@<TRIPOS>MOLECULE
3R540
247   249    1
SMALL
USER_CHARGES


@<TRIPOS>ATOM
      1 CA          1.7598  -10.7241  -51.9717 C.3       0 UNK        -0.1800 
      2 C           1.3275  -11.7101  -50.8957 C.2       0 UNK         0.5000 
      3 O           2.1515  -12.4806  -50.4044 O.2       0 UNK        -0.5000 
      4 N           0.0415  -11.6825  -50.5243 N.am      1 UNK        -0.5000 
      5 CA         -0.5632  -12.5686  -49.5195 C.3       1 UNK         0.1400 
      6 C6         -2.0896  -12.7287  -49.7325 C.3       23 UNK        -0.0398 
      7 S7         -2.5279  -13.4564  -51.3487 S.3       23 UNK        -0.2404 
      8 C8         -3.0042  -15.1538  -50.8847 C.3       23 UNK        -0.0205 
      9 C9         -1.8228  -16.1109  -50.9376 C.ar      23 UNK        -0.0193 
     10 C10        -1.6303  -16.9106  -52.0666 C.ar      23 UNK        -0.1150 
     11 C11        -0.5580  -17.8016  -52.1305 C.ar      23 UNK        -0.0193 
     12 C12         0.3239  -17.8923  -51.0507 C.ar      23 UNK        -0.1150 
     13 C13         0.1474  -17.1046  -49.9089 C.ar      23 UNK        -0.0193 
     14 C14        -0.9306  -16.2093  -49.8647 C.ar      23 UNK        -0.1150 
     15 C15         1.1696  -17.2332  -48.7767 C.3       23 UNK        -0.0205 
     16 S16         0.6030  -16.7518  -47.1073 S.3       23 UNK        -0.2404 
     17 C17        -0.8870  -17.7689  -46.8394 C.3       23 UNK        -0.0398 
     18 CA         -0.7127  -19.2983  -47.0218 C.3       11 UNK         0.1400 
     19 N           0.1871  -19.9178  -46.0394 N.am      11 UNK        -0.5000 
     20 C           0.5276  -21.2178  -46.0379 C.2       10 UNK         0.5000 
     21 O           0.1909  -22.0128  -46.9153 O.2       10 UNK        -0.5000 
     22 CA          1.3216  -21.7449  -44.8281 C.3       10 UNK         0.1400 
     23 CB          2.8215  -21.4483  -44.9716 C.3       10 UNK        -0.1800 
     24 N           0.8191  -21.2271  -43.5546 N.am      10 UNK        -0.5000 
     25 C          -0.4003  -21.4899  -43.0601 C.2       9 UNK         0.5000 
     26 O          -1.2055  -22.2475  -43.6001 O.2       9 UNK        -0.5000 
     27 CA         -0.8161  -20.7395  -41.7801 C.3       9 UNK         0.1400 
     28 CB         -0.2695  -21.4366  -40.5261 C.3       9 UNK        -0.1800 
     29 N          -0.3943  -19.3386  -41.7954 N.am      9 UNK        -0.5000 
     30 C          -0.8258  -18.4332  -42.6851 C.2       8 UNK         0.5000 
     31 O          -1.6938  -18.6629  -43.5274 O.2       8 UNK        -0.5000 
     32 CA         -0.1275  -17.0627  -42.6727 C.3       8 UNK         0.1400 
     33 CB         -0.7847  -16.1197  -41.6561 C.3       8 UNK        -0.1800 
     34 N           1.3098  -17.1783  -42.4097 N.am      8 UNK        -0.5000 
     35 C           2.1760  -17.7390  -43.2669 C.2       7 UNK         0.5000 
     36 O           1.8539  -18.1599  -44.3755 O.2       7 UNK        -0.5000 
     37 CA          3.6263  -17.9187  -42.7866 C.3       7 UNK         0.1400 
     38 CB          4.4639  -16.6540  -43.0252 C.3       7 UNK        -0.1800 
     39 N           3.6862  -18.3047  -41.3773 N.am      7 UNK        -0.5000 
     40 C           3.3422  -19.5227  -40.9346 C.2       6 UNK         0.5000 
     41 O           2.9877  -20.4372  -41.6780 O.2       6 UNK        -0.5000 
     42 CA          3.3601  -19.7576  -39.4127 C.3       6 UNK         0.1400 
     43 CB          4.7236  -20.3095  -38.9712 C.3       6 UNK        -0.1800 
     44 N           3.0474  -18.5641  -38.6255 N.am      6 UNK        -0.5000 
     45 C           1.8886  -17.8926  -38.6633 C.2       5 UNK         0.5000 
     46 O           0.9459  -18.2089  -39.3916 O.2       5 UNK        -0.5000 
     47 CA          1.7602  -16.6478  -37.7560 C.3       5 UNK         0.1400 
     48 CB          3.0021  -16.3782  -36.8760 C.3       5 UNK        -0.1800 
     49 N           1.4128  -15.4326  -38.5020 N.am      5 UNK        -0.5000 
     50 C           2.0549  -14.9284  -39.5644 C.2       4 UNK         0.5000 
     51 O           3.0109  -15.4758  -40.1213 O.2       4 UNK        -0.5000 
     52 CA          1.5461  -13.5768  -40.0852 C.3       4 UNK         0.1400 
     53 CB          2.0716  -12.4182  -39.2204 C.3       4 UNK        -0.1800 
     54 N           1.9960  -13.4004  -41.4625 N.am      4 UNK        -0.5000 
     55 C           1.3330  -12.7379  -42.4143 C.2       3 UNK         0.5000 
     56 O           0.2634  -12.1506  -42.2244 O.2       3 UNK        -0.5000 
     57 CA          1.9595  -12.7515  -43.8171 C.3       3 UNK         0.1400 
     58 CB          1.8509  -14.1495  -44.4550 C.3       3 UNK        -0.1800 
     59 N           1.2643  -11.7793  -44.6517 N.am      3 UNK        -0.5000 
     60 C           1.6948  -11.2956  -45.8193 C.2       2 UNK         0.5000 
     61 O           2.7964  -11.5529  -46.3101 O.2       2 UNK        -0.5000 
     62 CA          0.7136  -10.3831  -46.5799 C.3       2 UNK         0.1400 
     63 CB          1.3081   -8.9816  -46.7921 C.3       2 UNK        -0.1800 
     64 N           0.3444  -10.9501  -47.8778 N.am      2 UNK        -0.5000 
     65 C          -0.2783  -12.1240  -48.0660 C.2       1 UNK         0.5000 
     66 O          -0.6590  -12.8424  -47.1409 O.2       1 UNK        -0.5000 
     67 C          -2.1005  -19.9665  -47.0214 C.2       11 UNK         0.5000 
     68 O          -2.5901  -20.3309  -48.0886 O.2       11 UNK        -0.5000 
     69 N          -2.6949  -20.1360  -45.8311 N.am      12 UNK        -0.5000 
     70 CA         -3.9967  -20.7772  -45.6404 C.3       12 UNK         0.1400 
     71 CB         -4.4187  -20.6634  -44.1681 C.3       12 UNK        -0.1800 
     72 C          -4.0162  -22.2429  -46.1094 C.2       12 UNK         0.5000 
     73 O          -4.9592  -22.6474  -46.7896 O.2       12 UNK        -0.5000 
     74 N          -2.9584  -22.9957  -45.7761 N.am      13 UNK        -0.5000 
     75 CA         -2.7504  -24.3743  -46.2150 C.3       13 UNK         0.1400 
     76 CB         -1.5267  -24.9690  -45.5020 C.3       13 UNK        -0.1800 
     77 C          -2.6091  -24.4906  -47.7421 C.2       13 UNK         0.5000 
     78 O          -3.2794  -25.3279  -48.3451 O.2       13 UNK        -0.5000 
     79 N          -1.7779  -23.6281  -48.3446 N.am      14 UNK        -0.5000 
     80 CA         -1.5701  -23.5573  -49.7918 C.3       14 UNK         0.1400 
     81 CB         -0.4176  -22.5921  -50.1045 C.3       14 UNK        -0.1800 
     82 C          -2.8468  -23.1618  -50.5547 C.2       14 UNK         0.5000 
     83 O          -3.1763  -23.8056  -51.5516 O.2       14 UNK        -0.5000 
     84 N          -3.5666  -22.1548  -50.0386 N.am      15 UNK        -0.5000 
     85 CA         -4.8406  -21.6790  -50.5750 C.3       15 UNK         0.1400 
     86 CB         -5.2743  -20.4017  -49.8414 C.3       15 UNK        -0.1800 
     87 C          -5.9545  -22.7400  -50.5281 C.2       15 UNK         0.5000 
     88 O          -6.7715  -22.7992  -51.4461 O.2       15 UNK        -0.5000 
     89 N          -5.9656  -23.5679  -49.4757 N.am      16 UNK        -0.5000 
     90 CA         -6.8785  -24.7001  -49.3412 C.3       16 UNK         0.1400 
     91 CB         -6.9084  -25.1649  -47.8769 C.3       16 UNK        -0.1800 
     92 C          -6.5051  -25.8633  -50.2781 C.2       16 UNK         0.5000 
     93 O          -7.3885  -26.4311  -50.9216 O.2       16 UNK        -0.5000 
     94 N          -5.2113  -26.2070  -50.3260 N.am      17 UNK        -0.5000 
     95 CA         -4.6936  -27.3671  -51.0494 C.3       17 UNK         0.1400 
     96 CB         -3.2911  -27.7085  -50.5222 C.3       17 UNK        -0.1800 
     97 C          -4.6545  -27.1935  -52.5772 C.2       17 UNK         0.5000 
     98 O          -4.9581  -28.1493  -53.2930 O.2       17 UNK        -0.5000 
     99 N          -4.2482  -26.0085  -53.0499 N.am      18 UNK        -0.5000 
    100 CA        -3.8961  -25.7590  -54.4509 C.3       18 UNK         0.1400 
    101 CB        -2.3633  -25.6576  -54.5508 C.3       18 UNK        -0.1800 
    102 C         -4.6026  -24.5221  -55.0357 C.2       18 UNK         0.5000 
    103 O         -4.1524  -23.9993  -56.0584 O.2       18 UNK        -0.5000 
    104 N         -5.6943  -24.0844  -54.3895 N.am      19 UNK        -0.5000 
    105 CA        -6.4855  -22.8789  -54.6747 C.3       19 UNK         0.1400 
    106 CB        -7.0496  -22.9030  -56.1117 C.3       19 UNK        -0.1800 
    107 C         -5.7082  -21.5768  -54.3889 C.2       19 UNK         0.5000 
    108 O         -4.5082  -21.6075  -54.1161 O.2       19 UNK        -0.5000 
    109 N         -6.4020  -20.4327  -54.4618 N.am      20 UNK        -0.5000 
    110 CA        -5.8500  -19.1003  -54.1763 C.3       20 UNK         0.1400 
    111 CB        -6.9886  -18.0700  -54.2164 C.3       20 UNK        -0.1800 
    112 C         -4.6952  -18.6687  -55.1068 C.2       20 UNK         0.5000 
    113 O         -3.9082  -17.7997  -54.7331 O.2       20 UNK        -0.5000 
    114 N         -4.6054  -19.2898  -56.2901 N.am      21 UNK        -0.5000 
    115 CA        -3.4974  -19.1380  -57.2324 C.3       21 UNK         0.1400 
    116 CB        -3.9768  -19.5838  -58.6230 C.3       21 UNK        -0.1800 
    117 C         -2.2343  -19.9264  -56.8237 C.2       21 UNK         0.5000 
    118 O         -1.1608  -19.6401  -57.3555 O.2       21 UNK        -0.5000 
    119 N         -2.3787  -20.8993  -55.9119 N.am      22 UNK        -0.5000 
    120 CA        -1.3438  -21.8400  -55.4550 C.3       22 UNK         0.1400 
    121 C         -0.7876  -22.7234  -56.6103 C.2       22 UNK         0.5000 
    122 N         -1.6532  -23.4142  -57.3401 N.am      22 UNK        -0.7600 
    123 O          0.4147  -22.7869  -56.8562 O.2       22 UNK        -0.5000 
    124 C124       -0.2317  -21.1701  -54.6044 C.3       23 UNK        -0.0398 
    125 S125       -0.8823  -20.3651  -53.1007 S.3       23 UNK        -0.2404 
    126 C126       -0.3368  -18.6533  -53.3699 C.3       23 UNK        -0.0205 
    127 H127        2.1589  -11.2603  -52.8328 H         1 UNK         0.0600 
    128 H128        2.5393  -10.0663  -51.5870 H         1 UNK         0.0600 
    129 H129        0.9295  -10.1049  -52.3122 H         1 UNK         0.0600 
    130 H130       -0.5915  -11.0359  -50.9738 H         1 UNK         0.3000 
    131 H131       -0.1053  -13.5528  -49.6272 H         1 UNK         0.0600 
    132 H132       -2.5289  -13.3397  -48.9423 H         1 UNK         0.0800 
    133 H133       -2.5826  -11.7578  -49.6591 H         1 UNK         0.0800 
    134 H134       -3.7795  -15.4901  -51.5752 H         1 UNK         0.0800 
    135 H135       -3.4641  -15.1752  -49.8960 H         1 UNK         0.0800 
    136 H136       -2.3146  -16.8364  -52.8999 H         1 UNK         0.1150 
    137 H137        1.1557  -18.5810  -51.1049 H         1 UNK         0.1150 
    138 H138       -1.0807  -15.5828  -48.9979 H         1 UNK         0.1150 
    139 H139        1.5476  -18.2553  -48.7276 H         1 UNK         0.0800 
    140 H140        2.0279  -16.6096  -49.0294 H         1 UNK         0.0800 
    141 H141       -1.6603  -17.3938  -47.5109 H         1 UNK         0.0800 
    142 H142       -1.2502  -17.5477  -45.8361 H         1 UNK         0.0800 
    143 H143       -0.2864  -19.4835  -48.0087 H         1 UNK         0.0600 
    144 H144        0.5684  -19.3090  -45.3210 H         1 UNK         0.3000 
    145 H145        1.2019  -22.8301  -44.8063 H         1 UNK         0.0600 
    146 H146        3.3870  -21.8602  -44.1356 H         1 UNK         0.0600 
    147 H147        3.2184  -21.8945  -45.8842 H         1 UNK         0.0600 
    148 H148        3.0244  -20.3795  -45.0186 H         1 UNK         0.0600 
    149 H149        1.4490  -20.6388  -43.0207 H         1 UNK         0.3000 
    150 H150       -1.9065  -20.7547  -41.7251 H         1 UNK         0.0600 
    151 H151       -0.6501  -22.4560  -40.4532 H         1 UNK         0.0600 
    152 H152       -0.5680  -20.9107  -39.6190 H         1 UNK         0.0600 
    153 H153        0.8180  -21.4958  -40.5372 H         1 UNK         0.0600 
    154 H154        0.2753  -19.0470  -41.0907 H         1 UNK         0.3000 
    155 H155       -0.2545  -16.6234  -43.6645 H         1 UNK         0.0600 
    156 H156       -0.6257  -16.4492  -40.6296 H         1 UNK         0.0600 
    157 H157       -1.8619  -16.0630  -41.8180 H         1 UNK         0.0600 
    158 H158       -0.3952  -15.1085  -41.7550 H         1 UNK         0.0600 
    159 H159        1.6401  -16.9060  -41.4941 H         1 UNK         0.3000 
    160 H160        4.0708  -18.7208  -43.3800 H         1 UNK         0.0600 
    161 H161        4.4453  -16.3691  -44.0780 H         1 UNK         0.0600 
    162 H162        5.5065  -16.8174  -42.7523 H         1 UNK         0.0600 
    163 H163        4.0987  -15.8054  -42.4491 H         1 UNK         0.0600 
    164 H164        3.9118  -17.5786  -40.7095 H         1 UNK         0.3000 
    165 H165        2.6007  -20.5088  -39.1878 H         1 UNK         0.0600 
    166 H166        4.7218  -20.5661  -37.9117 H         1 UNK         0.0600 
    167 H167        4.9750  -21.2163  -39.5231 H         1 UNK         0.0600 
    168 H168        5.5241  -19.5886  -39.1421 H         1 UNK         0.0600 
    169 H169        3.7758  -18.2250  -38.0142 H         1 UNK         0.3000 
    170 H170        0.9215  -16.8515  -37.0888 H         1 UNK         0.0600 
    171 H171        3.2289  -17.2307  -36.2344 H         1 UNK         0.0600 
    172 H172        3.8883  -16.1582  -37.4728 H         1 UNK         0.0600 
    173 H173        2.8322  -15.5256  -36.2183 H         1 UNK         0.0600 
    174 H174        0.6160  -14.9259  -38.1427 H         1 UNK         0.3000 
    175 H175        0.4548  -13.5887  -40.0497 H         1 UNK         0.0600 
    176 H176        1.7522  -12.5241  -38.1830 H         1 UNK         0.0600 
    177 H177        1.6975  -11.4586  -39.5776 H         1 UNK         0.0600 
    178 H178        3.1615  -12.3759  -39.2268 H         1 UNK         0.0600 
    179 H179        2.8430  -13.9070  -41.6859 H         1 UNK         0.3000 
    180 H180        3.0091  -12.4641  -43.7273 H         1 UNK         0.0600 
    181 H181        0.8113  -14.4583  -44.5719 H         1 UNK         0.0600 
    182 H182        2.3486  -14.8975  -43.8432 H         1 UNK         0.0600 
    183 H183        2.3178  -14.1816  -45.4395 H         1 UNK         0.0600 
    184 H184        0.3632  -11.5005  -44.2825 H         1 UNK         0.3000 
    185 H185       -0.2007  -10.2768  -45.9923 H         1 UNK         0.0600 
    186 H186        1.5851   -8.5279  -45.8397 H         1 UNK         0.0600 
    187 H187        2.2042   -9.0134  -47.4135 H         1 UNK         0.0600 
    188 H188        0.5902   -8.3162  -47.2720 H         1 UNK         0.0600 
    189 H189        0.6409  -10.4382  -48.6951 H         1 UNK         0.3000 
    190 H190       -2.2374  -19.7780  -44.9967 H         1 UNK         0.3000 
    191 H191       -4.7235  -20.2291  -46.2433 H         1 UNK         0.0600 
    192 H192       -5.4033  -21.1049  -44.0093 H         1 UNK         0.0600 
    193 H193       -3.7191  -21.1744  -43.5066 H         1 UNK         0.0600 
    194 H194       -4.4741  -19.6210  -43.8536 H         1 UNK         0.0600 
    195 H195       -2.2454  -22.5980  -45.1703 H         1 UNK         0.3000 
    196 H196       -3.6282  -24.9523  -45.9188 H         1 UNK         0.0600 
    197 H197       -1.3612  -26.0030  -45.8068 H         1 UNK         0.0600 
    198 H198       -1.6618  -24.9658  -44.4203 H         1 UNK         0.0600 
    199 H199       -0.6178  -24.4101  -45.7260 H         1 UNK         0.0600 
    200 H200       -1.2441  -22.9749  -47.7769 H         1 UNK         0.3000 
    201 H201       -1.2767  -24.5527  -50.1314 H         1 UNK         0.0600 
    202 H202        0.4990  -22.8938  -49.5976 H         1 UNK         0.0600 
    203 H203       -0.6498  -21.5714  -49.7975 H         1 UNK         0.0600 
    204 H204       -0.2058  -22.5761  -51.1738 H         1 UNK         0.0600 
    205 H205       -3.2018  -21.6517  -49.2323 H         1 UNK         0.3000 
    206 H206       -4.6714  -21.4178  -51.6175 H         1 UNK         0.0600 
    207 H207       -5.4125  -20.5792  -48.7744 H         1 UNK         0.0600 
    208 H208       -4.5327  -19.6110  -49.9576 H         1 UNK         0.0600 
    209 H209       -6.2169  -20.0233  -50.2390 H         1 UNK         0.0600 
    210 H210       -5.3006  -23.4202  -48.7245 H         1 UNK         0.3000 
    211 H211       -7.8843  -24.3667  -49.6060 H         1 UNK         0.0600 
    212 H212       -5.9232  -25.4802  -47.5317 H         1 UNK         0.0600 
    213 H213       -7.5882  -26.0078  -47.7477 H         1 UNK         0.0600 
    214 H214       -7.2510  -24.3663  -47.2186 H         1 UNK         0.0600 
    215 H215       -4.5482  -25.7109  -49.7361 H         1 UNK         0.3000 
    216 H216       -5.3444  -28.2170  -50.8327 H         1 UNK         0.0600 
    217 H217       -2.8804  -28.5803  -51.0331 H         1 UNK         0.0600 
    218 H218       -3.3160  -27.9384  -49.4569 H         1 UNK         0.0600 
    219 H219       -2.5949  -26.8816  -50.6698 H         1 UNK         0.0600 
    220 H220       -4.0029  -25.2652  -52.3972 H         1 UNK         0.3000 
    221 H221       -4.2129  -26.5939  -55.0785 H         1 UNK         0.0600 
    222 H222       -1.9825  -24.8016  -53.9932 H         1 UNK         0.0600 
    223 H223       -2.0386  -25.5558  -55.5860 H         1 UNK         0.0600 
    224 H224       -1.8838  -26.5524  -54.1538 H         1 UNK         0.0600 
    225 H225       -5.9460  -24.5705  -53.5405 H         1 UNK         0.3000 
    226 H226       -7.3322  -22.9052  -53.9886 H         1 UNK         0.0600 
    227 H227       -7.8038  -22.1282  -56.2510 H         1 UNK         0.0600 
    228 H228       -6.2752  -22.7362  -56.8608 H         1 UNK         0.0600 
    229 H229       -7.5278  -23.8577  -56.3313 H         1 UNK         0.0600 
    230 H230       -7.3848  -20.4695  -54.6909 H         1 UNK         0.3000 
    231 H231       -5.4478  -19.1233  -53.1611 H         1 UNK         0.0600 
    232 H232       -7.7646  -18.3098  -53.4893 H         1 UNK         0.0600 
    233 H233       -7.4526  -18.0224  -55.2024 H         1 UNK         0.0600 
    234 H234       -6.6208  -17.0709  -53.9781 H         1 UNK         0.0600 
    235 H235       -5.3010  -19.9848  -56.5163 H         1 UNK         0.3000 
    236 H236       -3.2241  -18.0821  -57.2870 H         1 UNK         0.0600 
    237 H237       -4.8345  -18.9971  -58.9525 H         1 UNK         0.0600 
    238 H238       -3.1906  -19.4543  -59.3679 H         1 UNK         0.0600 
    239 H239       -4.2649  -20.6360  -58.6302 H         1 UNK         0.0600 
    240 H240       -3.2869  -21.0442  -55.4814 H         1 UNK         0.3000 
    241 H241       -1.8604  -22.5357  -54.7932 H         1 UNK         0.0600 
    242 H242       -1.3208  -23.9862  -58.0995 H         1 UNK         0.3800 
    243 H243       -2.6337  -23.4500  -57.0710 H         1 UNK         0.3800 
    244 H244        0.3280  -20.4535  -55.2069 H         1 UNK         0.0800 
    245 H245        0.4925  -21.9180  -54.2776 H         1 UNK         0.0800 
    246 H246       -0.8722  -18.2379  -54.2256 H         1 UNK         0.0800 
    247 H247        0.7231  -18.6415  -53.6282 H         1 UNK         0.0800 
@<TRIPOS>BOND
     1    1    2 1    
     2    1  127 1    
     3    1  128 1    
     4    1  129 1    
     5    2    3 2    
     6    2    4 am   BACKBONE|DICT|INTERRES
     7    4    5 1    
     8    4  130 1    
     9    5    6 1    
    10    5   65 1    
    11    5  131 1    
    12    6    7 1    
    13    6  132 1    
    14    6  133 1    
    15    7    8 1    
    16    8    9 1    
    17    8  134 1    
    18    8  135 1    
    19    9   10 ar   
    20    9   14 ar   
    21   10   11 ar   
    22   10  136 1    
    23   11   12 ar   
    24   11  126 1    
    25   12   13 ar   
    26   12  137 1    
    27   13   14 ar   
    28   13   15 1    
    29   14  138 1    
    30   15   16 1    
    31   15  139 1    
    32   15  140 1    
    33   16   17 1    
    34   17   18 1    
    35   17  141 1    
    36   17  142 1    
    37   18   19 1    
    38   18   67 1    
    39   18  143 1    
    40   19   20 am   BACKBONE|DICT|INTERRES
    41   19  144 1    
    42   20   21 2    
    43   20   22 1    
    44   22   23 1    
    45   22   24 1    
    46   22  145 1    
    47   23  146 1    
    48   23  147 1    
    49   23  148 1    
    50   24   25 am   BACKBONE|DICT|INTERRES
    51   24  149 1    
    52   25   26 2    
    53   25   27 1    
    54   27   28 1    
    55   27   29 1    
    56   27  150 1    
    57   28  151 1    
    58   28  152 1    
    59   28  153 1    
    60   29   30 am   BACKBONE|DICT|INTERRES
    61   29  154 1    
    62   30   31 2    
    63   30   32 1    
    64   32   33 1    
    65   32   34 1    
    66   32  155 1    
    67   33  156 1    
    68   33  157 1    
    69   33  158 1    
    70   34   35 am   BACKBONE|DICT|INTERRES
    71   34  159 1    
    72   35   36 2    
    73   35   37 1    
    74   37   38 1    
    75   37   39 1    
    76   37  160 1    
    77   38  161 1    
    78   38  162 1    
    79   38  163 1    
    80   39   40 am   BACKBONE|DICT|INTERRES
    81   39  164 1    
    82   40   41 2    
    83   40   42 1    
    84   42   43 1    
    85   42   44 1    
    86   42  165 1    
    87   43  166 1    
    88   43  167 1    
    89   43  168 1    
    90   44   45 am   BACKBONE|DICT|INTERRES
    91   44  169 1    
    92   45   46 2    
    93   45   47 1    
    94   47   48 1    
    95   47   49 1    
    96   47  170 1    
    97   48  171 1    
    98   48  172 1    
    99   48  173 1    
   100   49   50 am   BACKBONE|DICT|INTERRES
   101   49  174 1    
   102   50   51 2    
   103   50   52 1    
   104   52   53 1    
   105   52   54 1    
   106   52  175 1    
   107   53  176 1    
   108   53  177 1    
   109   53  178 1    
   110   54   55 am   BACKBONE|DICT|INTERRES
   111   54  179 1    
   112   55   56 2    
   113   55   57 1    
   114   57   58 1    
   115   57   59 1    
   116   57  180 1    
   117   58  181 1    
   118   58  182 1    
   119   58  183 1    
   120   59   60 am   BACKBONE|DICT|INTERRES
   121   59  184 1    
   122   60   61 2    
   123   60   62 1    
   124   62   63 1    
   125   62   64 1    
   126   62  185 1    
   127   63  186 1    
   128   63  187 1    
   129   63  188 1    
   130   64   65 am   BACKBONE|DICT|INTERRES
   131   64  189 1    
   132   65   66 2    
   133   67   68 2    
   134   67   69 am   BACKBONE|DICT|INTERRES
   135   69   70 1    
   136   69  190 1    
   137   70   71 1    
   138   70   72 1    
   139   70  191 1    
   140   71  192 1    
   141   71  193 1    
   142   71  194 1    
   143   72   73 2    
   144   72   74 am   BACKBONE|DICT|INTERRES
   145   74   75 1    
   146   74  195 1    
   147   75   76 1    
   148   75   77 1    
   149   75  196 1    
   150   76  197 1    
   151   76  198 1    
   152   76  199 1    
   153   77   78 2    
   154   77   79 am   BACKBONE|DICT|INTERRES
   155   79   80 1    
   156   79  200 1    
   157   80   81 1    
   158   80   82 1    
   159   80  201 1    
   160   81  202 1    
   161   81  203 1    
   162   81  204 1    
   163   82   83 2    
   164   82   84 am   BACKBONE|DICT|INTERRES
   165   84   85 1    
   166   84  205 1    
   167   85   86 1    
   168   85   87 1    
   169   85  206 1    
   170   86  207 1    
   171   86  208 1    
   172   86  209 1    
   173   87   88 2    
   174   87   89 am   BACKBONE|DICT|INTERRES
   175   89   90 1    
   176   89  210 1    
   177   90   91 1    
   178   90   92 1    
   179   90  211 1    
   180   91  212 1    
   181   91  213 1    
   182   91  214 1    
   183   92   93 2    
   184   92   94 am   BACKBONE|DICT|INTERRES
   185   94   95 1    
   186   94  215 1    
   187   95   96 1    
   188   95   97 1    
   189   95  216 1    
   190   96  217 1    
   191   96  218 1    
   192   96  219 1    
   193   97   98 2    
   194   97   99 am   BACKBONE|DICT|INTERRES
   195   99  100 1    
   196   99  220 1    
   197  100  101 1    
   198  100  102 1    
   199  100  221 1    
   200  101  222 1    
   201  101  223 1    
   202  101  224 1    
   203  102  103 2    
   204  102  104 am   BACKBONE|DICT|INTERRES
   205  104  105 1    
   206  104  225 1    
   207  105  106 1    
   208  105  107 1    
   209  105  226 1    
   210  106  227 1    
   211  106  228 1    
   212  106  229 1    
   213  107  108 2    
   214  107  109 am   BACKBONE|DICT|INTERRES
   215  109  110 1    
   216  109  230 1    
   217  110  111 1    
   218  110  112 1    
   219  110  231 1    
   220  111  232 1    
   221  111  233 1    
   222  111  234 1    
   223  112  113 2    
   224  112  114 am   BACKBONE|DICT|INTERRES
   225  114  115 1    
   226  114  235 1    
   227  115  116 1    
   228  115  117 1    
   229  115  236 1    
   230  116  237 1    
   231  116  238 1    
   232  116  239 1    
   233  117  118 2    
   234  117  119 am   BACKBONE|DICT|INTERRES
   235  119  120 1    
   236  119  240 1    
   237  120  121 1    
   238  120  124 1    
   239  120  241 1    
   240  121  122 am   BACKBONE|DICT|INTERRES
   241  121  123 2    
   242  122  242 1    
   243  122  243 1    
   244  124  125 1    
   245  124  244 1    
   246  124  245 1    
   247  125  126 1    
   248  126  246 1    
   249  126  247 1    
@<TRIPOS>SUBSTRUCTURE
     1 UNK         1 GROUP             0       ****    0 ROOT    
