@<TRIPOS>MOLECULE
3R540
247   249    1
SMALL
USER_CHARGES


@<TRIPOS>ATOM
      1 CA          0.2902  -12.9213  -48.9554 C.3       0 UNK        -0.1800 
      2 C           1.7896  -12.8426  -49.2070 C.2       0 UNK         0.5000 
      3 O           2.2078  -12.4000  -50.2766 O.2       0 UNK        -0.5000 
      4 N           2.5979  -13.2704  -48.2325 N.am      1 UNK        -0.5000 
      5 CA          4.0588  -13.2837  -48.3091 C.3       1 UNK         0.1400 
      6 C6          4.6363  -14.4714  -49.1383 C.3       23 UNK        -0.0398 
      7 S7          3.8688  -16.1056  -48.8324 S.3       23 UNK        -0.2404 
      8 C8          2.9369  -16.3512  -50.3775 C.3       23 UNK        -0.0205 
      9 C9          1.7324  -17.2481  -50.1523 C.ar      23 UNK        -0.0193 
     10 C10         0.5679  -16.7070  -49.6074 C.ar      23 UNK        -0.1150 
     11 C11        -0.5530  -17.5052  -49.3769 C.ar      23 UNK        -0.0193 
     12 C12        -0.5034  -18.8643  -49.7034 C.ar      23 UNK        -0.1150 
     13 C13         0.6567  -19.4218  -50.2541 C.ar      23 UNK        -0.0193 
     14 C14         1.7702  -18.6053  -50.4825 C.ar      23 UNK        -0.1150 
     15 C15         0.7031  -20.9065  -50.5977 C.3       23 UNK        -0.0205 
     16 S16         2.0477  -21.8070  -49.7478 S.3       23 UNK        -0.2404 
     17 C17         1.7199  -21.4482  -47.9864 C.3       23 UNK        -0.0398 
     18 CA          0.9576  -22.5674  -47.2384 C.3       11 UNK         0.1400 
     19 N           0.9792  -22.3600  -45.7884 N.am      11 UNK        -0.5000 
     20 C           0.4858  -23.2073  -44.8732 C.2       10 UNK         0.5000 
     21 O           0.0228  -24.3146  -45.1438 O.2       10 UNK        -0.5000 
     22 CA          0.4446  -22.7062  -43.4170 C.3       10 UNK         0.1400 
     23 CB          1.8112  -22.8696  -42.7364 C.3       10 UNK        -0.1800 
     24 N           0.0081  -21.3120  -43.3239 N.am      10 UNK        -0.5000 
     25 C          -1.2025  -20.8711  -43.6964 C.2       9 UNK         0.5000 
     26 O          -2.1095  -21.6101  -44.0775 O.2       9 UNK        -0.5000 
     27 CA         -1.4152  -19.3473  -43.7036 C.3       9 UNK         0.1400 
     28 CB         -1.8042  -18.8280  -42.3123 C.3       9 UNK        -0.1800 
     29 N          -0.2323  -18.6383  -44.1935 N.am      9 UNK        -0.5000 
     30 C           0.1647  -18.6513  -45.4740 C.2       8 UNK         0.5000 
     31 O          -0.4660  -19.2088  -46.3707 O.2       8 UNK        -0.5000 
     32 CA          1.5102  -17.9749  -45.7942 C.3       8 UNK         0.1400 
     33 CB          1.3171  -16.4799  -46.0572 C.3       8 UNK        -0.1800 
     34 N           2.4805  -18.1441  -44.7132 N.am      8 UNK        -0.5000 
     35 C           3.0956  -19.3020  -44.4392 C.2       7 UNK         0.5000 
     36 O           2.9159  -20.3333  -45.0848 O.2       7 UNK        -0.5000 
     37 CA          4.0316  -19.3329  -43.2162 C.3       7 UNK         0.1400 
     38 CB          5.4587  -18.9377  -43.6228 C.3       7 UNK        -0.1800 
     39 N           3.5890  -18.4753  -42.1153 N.am      7 UNK        -0.5000 
     40 C           2.4249  -18.5952  -41.4632 C.2       6 UNK         0.5000 
     41 O           1.5881  -19.4608  -41.7237 O.2       6 UNK        -0.5000 
     42 CA          2.1135  -17.5586  -40.3632 C.3       6 UNK         0.1400 
     43 CB          3.3284  -16.7000  -39.9441 C.3       6 UNK        -0.1800 
     44 N           0.9853  -16.6932  -40.7277 N.am      6 UNK        -0.5000 
     45 C           0.8772  -15.9352  -41.8279 C.2       5 UNK         0.5000 
     46 O           1.7249  -15.8945  -42.7236 O.2       5 UNK        -0.5000 
     47 CA         -0.3882  -15.0715  -41.9345 C.3       5 UNK         0.1400 
     48 CB         -0.2861  -13.8309  -41.0312 C.3       5 UNK        -0.1800 
     49 N          -0.5610  -14.6386  -43.3161 N.am      5 UNK        -0.5000 
     50 C          -1.7231  -14.4828  -43.9565 C.2       4 UNK         0.5000 
     51 O          -2.8201  -14.6889  -43.4349 O.2       4 UNK        -0.5000 
     52 CA         -1.6322  -13.9738  -45.4119 C.3       4 UNK         0.1400 
     53 CB         -3.0021  -13.8856  -46.1073 C.3       4 UNK        -0.1800 
     54 N          -0.9819  -12.6618  -45.4730 N.am      4 UNK        -0.5000 
     55 C           0.3410  -12.4662  -45.4558 C.2       3 UNK         0.5000 
     56 O           1.1613  -13.3878  -45.4348 O.2       3 UNK        -0.5000 
     57 CA          0.8326  -11.0120  -45.4635 C.3       3 UNK         0.1400 
     58 CB          0.5595  -10.3322  -44.1116 C.3       3 UNK        -0.1800 
     59 N           2.2711  -11.0289  -45.7022 N.am      3 UNK        -0.5000 
     60 C           2.9355  -10.3126  -46.6126 C.2       2 UNK         0.5000 
     61 O           2.4206   -9.4396  -47.3110 O.2       2 UNK        -0.5000 
     62 CA          4.4315  -10.6422  -46.7836 C.3       2 UNK         0.1400 
     63 CB          5.2812   -9.6066  -46.0309 C.3       2 UNK        -0.1800 
     64 N           4.7874  -11.9804  -46.2866 N.am      2 UNK        -0.5000 
     65 C           4.6293  -13.1786  -46.8765 C.2       1 UNK         0.5000 
     66 O           4.9224  -14.2085  -46.2727 O.2       1 UNK        -0.5000 
     67 C          -0.4833  -22.7307  -47.7612 C.2       11 UNK         0.5000 
     68 O          -0.7611  -23.7110  -48.4498 O.2       11 UNK        -0.5000 
     69 N          -1.3799  -21.8037  -47.3907 N.am      12 UNK        -0.5000 
     70 CA         -2.8018  -21.8413  -47.7401 C.3       12 UNK         0.1400 
     71 CB         -3.4977  -20.5787  -47.2154 C.3       12 UNK        -0.1800 
     72 C          -3.5185  -23.1023  -47.2251 C.2       12 UNK         0.5000 
     73 O          -4.3045  -23.6933  -47.9624 O.2       12 UNK        -0.5000 
     74 N          -3.2136  -23.5161  -45.9883 N.am      13 UNK        -0.5000 
     75 CA         -3.7320  -24.7428  -45.3835 C.3       13 UNK         0.1400 
     76 CB         -3.3662  -24.7743  -43.8918 C.3       13 UNK        -0.1800 
     77 C          -3.2416  -26.0176  -46.0972 C.2       13 UNK         0.5000 
     78 O          -4.0349  -26.9359  -46.3070 O.2       13 UNK        -0.5000 
     79 N          -1.9525  -26.0496  -46.4603 N.am      14 UNK        -0.5000 
     80 CA         -1.3102  -27.1744  -47.1383 C.3       14 UNK         0.1400 
     81 CB          0.2160  -27.0350  -47.0224 C.3       14 UNK        -0.1800 
     82 C          -1.7320  -27.3121  -48.6120 C.2       14 UNK         0.5000 
     83 O          -2.0615  -28.4158  -49.0484 O.2       14 UNK        -0.5000 
     84 N          -1.6959  -26.1994  -49.3561 N.am      15 UNK        -0.5000 
     85 CA         -1.9576  -26.1602  -50.7965 C.3       15 UNK         0.1400 
     86 CB         -1.2678  -24.9223  -51.3923 C.3       15 UNK        -0.1800 
     87 C          -3.4544  -26.1500  -51.1545 C.2       15 UNK         0.5000 
     88 O          -3.7888  -26.4988  -52.2862 O.2       15 UNK        -0.5000 
     89 N          -4.3004  -25.7442  -50.1961 N.am      16 UNK        -0.5000 
     90 CA         -5.7094  -25.3556  -50.3089 C.3       16 UNK         0.1400 
     91 CB         -6.5656  -26.3492  -51.1187 C.3       16 UNK        -0.1800 
     92 C          -5.8184  -23.9216  -50.8543 C.2       16 UNK         0.5000 
     93 O          -5.2654  -23.6132  -51.9120 O.2       16 UNK        -0.5000 
     94 N          -6.5308  -23.0626  -50.1143 N.am      17 UNK        -0.5000 
     95 CA         -6.6024  -21.6159  -50.3371 C.3       17 UNK         0.1400 
     96 CB         -7.4321  -20.9750  -49.2151 C.3       17 UNK        -0.1800 
     97 C          -7.1511  -21.2069  -51.7157 C.2       17 UNK         0.5000 
     98 O          -6.7011  -20.2080  -52.2778 O.2       17 UNK        -0.5000 
     99 N          -8.0864  -22.0044  -52.2484 N.am      18 UNK        -0.5000 
    100 CA        -8.6722  -21.8241  -53.5766 C.3       18 UNK         0.1400 
    101 CB        -9.9290  -22.6993  -53.6946 C.3       18 UNK        -0.1800 
    102 C         -7.6862  -22.1391  -54.7178 C.2       18 UNK         0.5000 
    103 O         -7.7562  -21.4993  -55.7672 O.2       18 UNK        -0.5000 
    104 N         -6.7825  -23.1032  -54.4933 N.am      19 UNK        -0.5000 
    105 CA        -5.7356  -23.4887  -55.4403 C.3       19 UNK         0.1400 
    106 CB        -5.3201  -24.9434  -55.1810 C.3       19 UNK        -0.1800 
    107 C         -4.5244  -22.5457  -55.3515 C.2       19 UNK         0.5000 
    108 O         -3.9410  -22.2073  -56.3818 O.2       19 UNK        -0.5000 
    109 N         -4.1919  -22.1098  -54.1277 N.am      20 UNK        -0.5000 
    110 CA        -3.1642  -21.1048  -53.8476 C.3       20 UNK         0.1400 
    111 CB        -2.8816  -21.0862  -52.3361 C.3       20 UNK        -0.1800 
    112 C         -3.5521  -19.6916  -54.3277 C.2       20 UNK         0.5000 
    113 O         -2.6636  -18.8707  -54.5569 O.2       20 UNK        -0.5000 
    114 N         -4.8657  -19.4371  -54.4435 N.am      21 UNK        -0.5000 
    115 CA        -5.5118  -18.1486  -54.7170 C.3       21 UNK         0.1400 
    116 CB        -5.1811  -17.6511  -56.1392 C.3       21 UNK        -0.1800 
    117 C         -5.1997  -17.1150  -53.6144 C.2       21 UNK         0.5000 
    118 O         -4.9503  -15.9428  -53.9022 O.2       21 UNK        -0.5000 
    119 N         -5.1867  -17.5925  -52.3665 N.am      22 UNK        -0.5000 
    120 CA        -4.7355  -16.8786  -51.1735 C.3       22 UNK         0.1400 
    121 C         -5.2116  -17.6715  -49.9325 C.2       22 UNK         0.5000 
    122 N         -6.0216  -17.0760  -49.0684 N.am      22 UNK        -0.7600 
    123 O         -4.8285  -18.8209  -49.7388 O.2       22 UNK        -0.5000 
    124 C124       -3.1950  -16.6816  -51.1888 C.3       23 UNK        -0.0398 
    125 S125       -2.5721  -15.6394  -49.8252 S.3       23 UNK        -0.2404 
    126 C126       -1.8012  -16.8946  -48.7531 C.3       23 UNK        -0.0205 
    127 H127       -0.2285  -13.2444  -49.8582 H         1 UNK         0.0600 
    128 H128        0.0520  -13.6316  -48.1640 H         1 UNK         0.0600 
    129 H129       -0.0961  -11.9428  -48.6711 H         1 UNK         0.0600 
    130 H130        2.2109  -13.6091  -47.3578 H         1 UNK         0.3000 
    131 H131        4.3793  -12.3920  -48.8453 H         1 UNK         0.0600 
    132 H132        4.5423  -14.2370  -50.1992 H         1 UNK         0.0800 
    133 H133        5.7106  -14.5647  -48.9708 H         1 UNK         0.0800 
    134 H134        3.5980  -16.7722  -51.1363 H         1 UNK         0.0800 
    135 H135        2.5922  -15.3917  -50.7657 H         1 UNK         0.0800 
    136 H136        0.5371  -15.6597  -49.3509 H         1 UNK         0.1150 
    137 H137       -1.3660  -19.4890  -49.5184 H         1 UNK         0.1150 
    138 H138        2.6698  -19.0314  -50.9040 H         1 UNK         0.1150 
    139 H139       -0.2480  -21.3880  -50.3666 H         1 UNK         0.0800 
    140 H140        0.8392  -21.0113  -51.6747 H         1 UNK         0.0800 
    141 H141        1.2120  -20.4913  -47.8820 H         1 UNK         0.0800 
    142 H142        2.6965  -21.3087  -47.5222 H         1 UNK         0.0800 
    143 H143        1.4793  -23.5086  -47.4246 H         1 UNK         0.0600 
    144 H144        1.4120  -21.4999  -45.4662 H         1 UNK         0.3000 
    145 H145       -0.2794  -23.3177  -42.8745 H         1 UNK         0.0600 
    146 H146        1.7771  -22.5394  -41.6980 H         1 UNK         0.0600 
    147 H147        2.1226  -23.9148  -42.7370 H         1 UNK         0.0600 
    148 H148        2.5871  -22.2974  -43.2439 H         1 UNK         0.0600 
    149 H149        0.6768  -20.6427  -42.9539 H         1 UNK         0.3000 
    150 H150       -2.2454  -19.1343  -44.3805 H         1 UNK         0.0600 
    151 H151       -2.6755  -19.3609  -41.9292 H         1 UNK         0.0600 
    152 H152       -2.0656  -17.7713  -42.3507 H         1 UNK         0.0600 
    153 H153       -1.0003  -18.9536  -41.5876 H         1 UNK         0.0600 
    154 H154        0.3763  -18.2241  -43.5028 H         1 UNK         0.3000 
    155 H155        1.9135  -18.4279  -46.7025 H         1 UNK         0.0600 
    156 H156        0.6527  -16.3081  -46.9005 H         1 UNK         0.0600 
    157 H157        0.8817  -15.9847  -45.1940 H         1 UNK         0.0600 
    158 H158        2.2635  -15.9877  -46.2803 H         1 UNK         0.0600 
    159 H159        2.6342  -17.3452  -44.1084 H         1 UNK         0.3000 
    160 H160        4.0550  -20.3593  -42.8453 H         1 UNK         0.0600 
    161 H161        5.8261  -19.5764  -44.4273 H         1 UNK         0.0600 
    162 H162        6.1507  -19.0400  -42.7867 H         1 UNK         0.0600 
    163 H163        5.5056  -17.9064  -43.9752 H         1 UNK         0.0600 
    164 H164        4.2024  -17.7150  -41.8606 H         1 UNK         0.3000 
    165 H165        1.7985  -18.1318  -39.4901 H         1 UNK         0.0600 
    166 H166        3.0728  -16.0535  -39.1045 H         1 UNK         0.0600 
    167 H167        4.1618  -17.3255  -39.6213 H         1 UNK         0.0600 
    168 H168        3.6827  -16.0593  -40.7524 H         1 UNK         0.0600 
    169 H169        0.2258  -16.6797  -40.0614 H         1 UNK         0.3000 
    170 H170       -1.2412  -15.6765  -41.6227 H         1 UNK         0.0600 
    171 H171       -0.1594  -14.1121  -39.9852 H         1 UNK         0.0600 
    172 H172        0.5612  -13.2023  -41.3088 H         1 UNK         0.0600 
    173 H173       -1.1881  -13.2220  -41.0956 H         1 UNK         0.0600 
    174 H174        0.3047  -14.4763  -43.8228 H         1 UNK         0.3000 
    175 H175       -1.0365  -14.6963  -45.9717 H         1 UNK         0.0600 
    176 H176       -3.6627  -13.1732  -45.6119 H         1 UNK         0.0600 
    177 H177       -2.8947  -13.5777  -47.1477 H         1 UNK         0.0600 
    178 H178       -3.5024  -14.8549  -46.1095 H         1 UNK         0.0600 
    179 H179       -1.5969  -11.8609  -45.4607 H         1 UNK         0.3000 
    180 H180        0.3125  -10.4771  -46.2608 H         1 UNK         0.0600 
    181 H181        1.0258  -10.8736  -43.2872 H         1 UNK         0.0600 
    182 H182       -0.5099  -10.2763  -43.9053 H         1 UNK         0.0600 
    183 H183        0.9445   -9.3124  -44.1011 H         1 UNK         0.0600 
    184 H184        2.7598  -11.7838  -45.2389 H         1 UNK         0.3000 
    185 H185        4.6804  -10.5481  -47.8402 H         1 UNK         0.0600 
    186 H186        5.0697   -8.5959  -46.3830 H         1 UNK         0.0600 
    187 H187        5.0865   -9.6270  -44.9577 H         1 UNK         0.0600 
    188 H188        6.3461   -9.7844  -46.1825 H         1 UNK         0.0600 
    189 H189        5.1780  -11.9847  -45.3560 H         1 UNK         0.3000 
    190 H190       -1.0676  -21.0006  -46.8520 H         1 UNK         0.3000 
    191 H191       -2.8725  -21.8405  -48.8300 H         1 UNK         0.0600 
    192 H192       -4.5432  -20.5538  -47.5249 H         1 UNK         0.0600 
    193 H193       -3.0240  -19.6797  -47.6039 H         1 UNK         0.0600 
    194 H194       -3.4751  -20.5235  -46.1275 H         1 UNK         0.0600 
    195 H195       -2.6010  -22.9427  -45.4154 H         1 UNK         0.3000 
    196 H196       -4.8209  -24.7179  -45.4623 H         1 UNK         0.0600 
    197 H197       -3.7665  -25.6672  -43.4101 H         1 UNK         0.0600 
    198 H198       -3.7751  -23.9101  -43.3679 H         1 UNK         0.0600 
    199 H199       -2.2866  -24.7753  -43.7408 H         1 UNK         0.0600 
    200 H200       -1.3540  -25.2676  -46.2112 H         1 UNK         0.3000 
    201 H201       -1.6009  -28.0924  -46.6229 H         1 UNK         0.0600 
    202 H202        0.5324  -27.0364  -45.9792 H         1 UNK         0.0600 
    203 H203        0.5721  -26.1094  -47.4766 H         1 UNK         0.0600 
    204 H204        0.7244  -27.8629  -47.5180 H         1 UNK         0.0600 
    205 H205       -1.3970  -25.3235  -48.9280 H         1 UNK         0.3000 
    206 H206       -1.5150  -27.0458  -51.2573 H         1 UNK         0.0600 
    207 H207       -0.1949  -24.9348  -51.1997 H         1 UNK         0.0600 
    208 H208       -1.4063  -24.8761  -52.4733 H         1 UNK         0.0600 
    209 H209       -1.6718  -24.0017  -50.9709 H         1 UNK         0.0600 
    210 H210       -3.8770  -25.4603  -49.3213 H         1 UNK         0.3000 
    211 H211       -6.0886  -25.3632  -49.2859 H         1 UNK         0.0600 
    212 H212       -6.3513  -26.3026  -52.1868 H         1 UNK         0.0600 
    213 H213       -7.6264  -26.1285  -50.9970 H         1 UNK         0.0600 
    214 H214       -6.4051  -27.3744  -50.7852 H         1 UNK         0.0600 
    215 H215       -6.9379  -23.3962  -49.2528 H         1 UNK         0.3000 
    216 H216       -5.5824  -21.2364  -50.2676 H         1 UNK         0.0600 
    217 H217       -7.4949  -19.8938  -49.3452 H         1 UNK         0.0600 
    218 H218       -6.9808  -21.1562  -48.2395 H         1 UNK         0.0600 
    219 H219       -8.4509  -21.3634  -49.1943 H         1 UNK         0.0600 
    220 H220       -8.3945  -22.8041  -51.7152 H         1 UNK         0.3000 
    221 H221       -8.9734  -20.7792  -53.6779 H         1 UNK         0.0600 
    222 H222       -9.6950  -23.7586  -53.5812 H         1 UNK         0.0600 
    223 H223      -10.6666  -22.4347  -52.9367 H         1 UNK         0.0600 
    224 H224      -10.4044  -22.5704  -54.6680 H         1 UNK         0.0600 
    225 H225       -6.7390  -23.5309  -53.5779 H         1 UNK         0.3000 
    226 H226       -6.1334  -23.4308  -56.4559 H         1 UNK         0.0600 
    227 H227       -6.1680  -25.6210  -55.2810 H         1 UNK         0.0600 
    228 H228       -4.5586  -25.2651  -55.8924 H         1 UNK         0.0600 
    229 H229       -4.9074  -25.0693  -54.1808 H         1 UNK         0.0600 
    230 H230       -4.6744  -22.5073  -53.3252 H         1 UNK         0.3000 
    231 H231       -2.2493  -21.3967  -54.3671 H         1 UNK         0.0600 
    232 H232       -2.5816  -22.0697  -51.9769 H         1 UNK         0.0600 
    233 H233       -3.7587  -20.7759  -51.7675 H         1 UNK         0.0600 
    234 H234       -2.0763  -20.3904  -52.0974 H         1 UNK         0.0600 
    235 H235       -5.4976  -20.1743  -54.1596 H         1 UNK         0.3000 
    236 H236       -6.5866  -18.3305  -54.6715 H         1 UNK         0.0600 
    237 H237       -5.7668  -16.7654  -56.3875 H         1 UNK         0.0600 
    238 H238       -4.1288  -17.3859  -56.2438 H         1 UNK         0.0600 
    239 H239       -5.4114  -18.4121  -56.8849 H         1 UNK         0.0600 
    240 H240       -5.4696  -18.5559  -52.2092 H         1 UNK         0.3000 
    241 H241       -5.2139  -15.8972  -51.1691 H         1 UNK         0.0600 
    242 H242       -6.3370  -16.1283  -49.2041 H         1 UNK         0.3800 
    243 H243       -6.3211  -17.5859  -48.2532 H         1 UNK         0.3800 
    244 H244       -2.6892  -17.6483  -51.1920 H         1 UNK         0.0800 
    245 H245       -2.8907  -16.1933  -52.1150 H         1 UNK         0.0800 
    246 H246       -2.5354  -17.6640  -48.5186 H         1 UNK         0.0800 
    247 H247       -1.5368  -16.4313  -47.8029 H         1 UNK         0.0800 
@<TRIPOS>BOND
     1    1    2 1    
     2    1  127 1    
     3    1  128 1    
     4    1  129 1    
     5    2    3 2    
     6    2    4 am   BACKBONE|DICT|INTERRES
     7    4    5 1    
     8    4  130 1    
     9    5    6 1    
    10    5   65 1    
    11    5  131 1    
    12    6    7 1    
    13    6  132 1    
    14    6  133 1    
    15    7    8 1    
    16    8    9 1    
    17    8  134 1    
    18    8  135 1    
    19    9   10 ar   
    20    9   14 ar   
    21   10   11 ar   
    22   10  136 1    
    23   11   12 ar   
    24   11  126 1    
    25   12   13 ar   
    26   12  137 1    
    27   13   14 ar   
    28   13   15 1    
    29   14  138 1    
    30   15   16 1    
    31   15  139 1    
    32   15  140 1    
    33   16   17 1    
    34   17   18 1    
    35   17  141 1    
    36   17  142 1    
    37   18   19 1    
    38   18   67 1    
    39   18  143 1    
    40   19   20 am   BACKBONE|DICT|INTERRES
    41   19  144 1    
    42   20   21 2    
    43   20   22 1    
    44   22   23 1    
    45   22   24 1    
    46   22  145 1    
    47   23  146 1    
    48   23  147 1    
    49   23  148 1    
    50   24   25 am   BACKBONE|DICT|INTERRES
    51   24  149 1    
    52   25   26 2    
    53   25   27 1    
    54   27   28 1    
    55   27   29 1    
    56   27  150 1    
    57   28  151 1    
    58   28  152 1    
    59   28  153 1    
    60   29   30 am   BACKBONE|DICT|INTERRES
    61   29  154 1    
    62   30   31 2    
    63   30   32 1    
    64   32   33 1    
    65   32   34 1    
    66   32  155 1    
    67   33  156 1    
    68   33  157 1    
    69   33  158 1    
    70   34   35 am   BACKBONE|DICT|INTERRES
    71   34  159 1    
    72   35   36 2    
    73   35   37 1    
    74   37   38 1    
    75   37   39 1    
    76   37  160 1    
    77   38  161 1    
    78   38  162 1    
    79   38  163 1    
    80   39   40 am   BACKBONE|DICT|INTERRES
    81   39  164 1    
    82   40   41 2    
    83   40   42 1    
    84   42   43 1    
    85   42   44 1    
    86   42  165 1    
    87   43  166 1    
    88   43  167 1    
    89   43  168 1    
    90   44   45 am   BACKBONE|DICT|INTERRES
    91   44  169 1    
    92   45   46 2    
    93   45   47 1    
    94   47   48 1    
    95   47   49 1    
    96   47  170 1    
    97   48  171 1    
    98   48  172 1    
    99   48  173 1    
   100   49   50 am   BACKBONE|DICT|INTERRES
   101   49  174 1    
   102   50   51 2    
   103   50   52 1    
   104   52   53 1    
   105   52   54 1    
   106   52  175 1    
   107   53  176 1    
   108   53  177 1    
   109   53  178 1    
   110   54   55 am   BACKBONE|DICT|INTERRES
   111   54  179 1    
   112   55   56 2    
   113   55   57 1    
   114   57   58 1    
   115   57   59 1    
   116   57  180 1    
   117   58  181 1    
   118   58  182 1    
   119   58  183 1    
   120   59   60 am   BACKBONE|DICT|INTERRES
   121   59  184 1    
   122   60   61 2    
   123   60   62 1    
   124   62   63 1    
   125   62   64 1    
   126   62  185 1    
   127   63  186 1    
   128   63  187 1    
   129   63  188 1    
   130   64   65 am   BACKBONE|DICT|INTERRES
   131   64  189 1    
   132   65   66 2    
   133   67   68 2    
   134   67   69 am   BACKBONE|DICT|INTERRES
   135   69   70 1    
   136   69  190 1    
   137   70   71 1    
   138   70   72 1    
   139   70  191 1    
   140   71  192 1    
   141   71  193 1    
   142   71  194 1    
   143   72   73 2    
   144   72   74 am   BACKBONE|DICT|INTERRES
   145   74   75 1    
   146   74  195 1    
   147   75   76 1    
   148   75   77 1    
   149   75  196 1    
   150   76  197 1    
   151   76  198 1    
   152   76  199 1    
   153   77   78 2    
   154   77   79 am   BACKBONE|DICT|INTERRES
   155   79   80 1    
   156   79  200 1    
   157   80   81 1    
   158   80   82 1    
   159   80  201 1    
   160   81  202 1    
   161   81  203 1    
   162   81  204 1    
   163   82   83 2    
   164   82   84 am   BACKBONE|DICT|INTERRES
   165   84   85 1    
   166   84  205 1    
   167   85   86 1    
   168   85   87 1    
   169   85  206 1    
   170   86  207 1    
   171   86  208 1    
   172   86  209 1    
   173   87   88 2    
   174   87   89 am   BACKBONE|DICT|INTERRES
   175   89   90 1    
   176   89  210 1    
   177   90   91 1    
   178   90   92 1    
   179   90  211 1    
   180   91  212 1    
   181   91  213 1    
   182   91  214 1    
   183   92   93 2    
   184   92   94 am   BACKBONE|DICT|INTERRES
   185   94   95 1    
   186   94  215 1    
   187   95   96 1    
   188   95   97 1    
   189   95  216 1    
   190   96  217 1    
   191   96  218 1    
   192   96  219 1    
   193   97   98 2    
   194   97   99 am   BACKBONE|DICT|INTERRES
   195   99  100 1    
   196   99  220 1    
   197  100  101 1    
   198  100  102 1    
   199  100  221 1    
   200  101  222 1    
   201  101  223 1    
   202  101  224 1    
   203  102  103 2    
   204  102  104 am   BACKBONE|DICT|INTERRES
   205  104  105 1    
   206  104  225 1    
   207  105  106 1    
   208  105  107 1    
   209  105  226 1    
   210  106  227 1    
   211  106  228 1    
   212  106  229 1    
   213  107  108 2    
   214  107  109 am   BACKBONE|DICT|INTERRES
   215  109  110 1    
   216  109  230 1    
   217  110  111 1    
   218  110  112 1    
   219  110  231 1    
   220  111  232 1    
   221  111  233 1    
   222  111  234 1    
   223  112  113 2    
   224  112  114 am   BACKBONE|DICT|INTERRES
   225  114  115 1    
   226  114  235 1    
   227  115  116 1    
   228  115  117 1    
   229  115  236 1    
   230  116  237 1    
   231  116  238 1    
   232  116  239 1    
   233  117  118 2    
   234  117  119 am   BACKBONE|DICT|INTERRES
   235  119  120 1    
   236  119  240 1    
   237  120  121 1    
   238  120  124 1    
   239  120  241 1    
   240  121  122 am   BACKBONE|DICT|INTERRES
   241  121  123 2    
   242  122  242 1    
   243  122  243 1    
   244  124  125 1    
   245  124  244 1    
   246  124  245 1    
   247  125  126 1    
   248  126  246 1    
   249  126  247 1    
@<TRIPOS>SUBSTRUCTURE
     1 UNK         1 GROUP             0       ****    0 ROOT    
