@<TRIPOS>MOLECULE
3R540
247   249    1
SMALL
USER_CHARGES


@<TRIPOS>ATOM
      1 CA         -1.2007   -9.8393  -48.1545 C.3       0 UNK        -0.1800 
      2 C          -0.0397  -10.7884  -48.4165 C.2       0 UNK         0.5000 
      3 O           1.1153  -10.4121  -48.2168 O.2       0 UNK        -0.5000 
      4 N          -0.3438  -12.0126  -48.8623 N.am      1 UNK        -0.5000 
      5 CA          0.6220  -13.0999  -49.0464 C.3       1 UNK         0.1400 
      6 C6          0.1964  -14.0317  -50.2088 C.3       23 UNK        -0.0398 
      7 S7          1.6283  -14.8262  -51.0162 S.3       23 UNK        -0.2404 
      8 C8          0.8040  -15.8759  -52.2502 C.3       23 UNK        -0.0205 
      9 C9          0.1415  -17.0854  -51.6107 C.ar      23 UNK        -0.0193 
     10 C10        -1.2205  -17.0625  -51.3055 C.ar      23 UNK        -0.1150 
     11 C11        -1.8488  -18.1849  -50.7595 C.ar      23 UNK        -0.0193 
     12 C12        -1.0919  -19.3306  -50.4911 C.ar      23 UNK        -0.1150 
     13 C13         0.2814  -19.3535  -50.7617 C.ar      23 UNK        -0.0193 
     14 C14         0.8883  -18.2325  -51.3337 C.ar      23 UNK        -0.1150 
     15 C15         1.1159  -20.5858  -50.4415 C.3       23 UNK        -0.0205 
     16 S16         2.2193  -20.3324  -49.0079 S.3       23 UNK        -0.2404 
     17 C17         1.0208  -20.0958  -47.6547 C.3       23 UNK        -0.0398 
     18 CA          0.4407  -21.4342  -47.1393 C.3       11 UNK         0.1400 
     19 N           1.4260  -22.2096  -46.3818 N.am      11 UNK        -0.5000 
     20 C           1.9436  -23.3840  -46.7691 C.2       10 UNK         0.5000 
     21 O           1.6729  -23.9363  -47.8351 O.2       10 UNK        -0.5000 
     22 CA          2.9361  -24.0772  -45.8105 C.3       10 UNK         0.1400 
     23 CB          4.3822  -23.8020  -46.2510 C.3       10 UNK        -0.1800 
     24 N           2.7903  -23.6867  -44.4073 N.am      10 UNK        -0.5000 
     25 C           1.6954  -23.8777  -43.6590 C.2       9 UNK         0.5000 
     26 O           0.6921  -24.4682  -44.0542 O.2       9 UNK        -0.5000 
     27 CA          1.6932  -23.2527  -42.2508 C.3       9 UNK         0.1400 
     28 CB          2.1039  -24.2970  -41.2025 C.3       9 UNK        -0.1800 
     29 N           2.5338  -22.0587  -42.0920 N.am      9 UNK        -0.5000 
     30 C           2.4906  -20.9507  -42.8442 C.2       8 UNK         0.5000 
     31 O           1.7924  -20.8317  -43.8523 O.2       8 UNK        -0.5000 
     32 CA          3.3477  -19.7662  -42.3746 C.3       8 UNK         0.1400 
     33 CB          4.0020  -19.0373  -43.5605 C.3       8 UNK        -0.1800 
     34 N           2.5215  -18.8174  -41.6353 N.am      8 UNK        -0.5000 
     35 C           2.0300  -19.0083  -40.4023 C.2       7 UNK         0.5000 
     36 O           2.2576  -20.0166  -39.7315 O.2       7 UNK        -0.5000 
     37 CA          1.1799  -17.8623  -39.8154 C.3       7 UNK         0.1400 
     38 CB          1.1088  -17.9071  -38.2778 C.3       7 UNK        -0.1800 
     39 N           1.7308  -16.5701  -40.2262 N.am      7 UNK        -0.5000 
     40 C           1.2377  -15.7961  -41.1973 C.2       6 UNK         0.5000 
     41 O           0.1796  -16.0231  -41.7888 O.2       6 UNK        -0.5000 
     42 CA          2.1007  -14.5873  -41.5858 C.3       6 UNK         0.1400 
     43 CB          3.4227  -15.0255  -42.2445 C.3       6 UNK        -0.1800 
     44 N           1.3561  -13.7566  -42.5200 N.am      6 UNK        -0.5000 
     45 C           1.3945  -12.4230  -42.5849 C.2       5 UNK         0.5000 
     46 O           2.1172  -11.7264  -41.8706 O.2       5 UNK        -0.5000 
     47 CA          0.4813  -11.7449  -43.6237 C.3       5 UNK         0.1400 
     48 CB          1.3186  -11.1376  -44.7591 C.3       5 UNK        -0.1800 
     49 N          -0.5139  -12.6500  -44.2044 N.am      5 UNK        -0.5000 
     50 C          -1.6529  -13.0193  -43.6038 C.2       4 UNK         0.5000 
     51 O          -1.9806  -12.6432  -42.4780 O.2       4 UNK        -0.5000 
     52 CA         -2.5828  -13.9599  -44.3851 C.3       4 UNK         0.1400 
     53 CB         -3.4251  -13.1587  -45.3917 C.3       4 UNK        -0.1800 
     54 N          -1.8407  -14.9941  -45.1086 N.am      4 UNK        -0.5000 
     55 C          -2.0053  -16.3141  -44.9391 C.2       3 UNK         0.5000 
     56 O          -2.7545  -16.8098  -44.0968 O.2       3 UNK        -0.5000 
     57 CA         -1.2527  -17.2532  -45.9045 C.3       3 UNK         0.1400 
     58 CB         -2.2015  -17.6945  -47.0311 C.3       3 UNK        -0.1800 
     59 N          -0.0564  -16.6565  -46.4980 N.am      3 UNK        -0.5000 
     60 C           1.0796  -16.4126  -45.8310 C.2       2 UNK         0.5000 
     61 O           1.2713  -16.7582  -44.6667 O.2       2 UNK        -0.5000 
     62 CA          2.1895  -15.6402  -46.5742 C.3       2 UNK         0.1400 
     63 CB          3.2782  -16.6143  -47.0504 C.3       2 UNK        -0.1800 
     64 N           1.7540  -14.8318  -47.7210 N.am      2 UNK        -0.5000 
     65 C           0.8190  -13.8723  -47.7215 C.2       1 UNK         0.5000 
     66 O           0.1137  -13.6162  -46.7417 O.2       1 UNK        -0.5000 
     67 C          -0.8355  -21.1886  -46.3143 C.2       11 UNK         0.5000 
     68 O          -1.9166  -21.1381  -46.8965 O.2       11 UNK        -0.5000 
     69 N          -0.7134  -21.0229  -44.9904 N.am      12 UNK        -0.5000 
     70 CA         -1.8248  -20.6889  -44.0976 C.3       12 UNK         0.1400 
     71 CB         -1.2634  -20.1813  -42.7601 C.3       12 UNK        -0.1800 
     72 C          -2.8215  -21.8415  -43.8743 C.2       12 UNK         0.5000 
     73 O          -3.9896  -21.5710  -43.5922 O.2       12 UNK        -0.5000 
     74 N          -2.3671  -23.0968  -44.0021 N.am      13 UNK        -0.5000 
     75 CA         -3.2008  -24.2906  -43.8599 C.3       13 UNK         0.1400 
     76 CB         -2.3052  -25.5257  -43.6754 C.3       13 UNK        -0.1800 
     77 C          -4.1385  -24.4512  -45.0697 C.2       13 UNK         0.5000 
     78 O          -3.6984  -24.9108  -46.1251 O.2       13 UNK        -0.5000 
     79 N          -5.4020  -24.0319  -44.9025 N.am      14 UNK        -0.5000 
     80 CA         -6.4997  -24.1047  -45.8785 C.3       14 UNK         0.1400 
     81 CB         -6.9528  -25.5688  -46.0562 C.3       14 UNK        -0.1800 
     82 C          -6.1745  -23.4196  -47.2242 C.2       14 UNK         0.5000 
     83 O          -6.5531  -23.9245  -48.2837 O.2       14 UNK        -0.5000 
     84 N          -5.4162  -22.3127  -47.1578 N.am      15 UNK        -0.5000 
     85 CA         -4.8691  -21.5435  -48.2858 C.3       15 UNK         0.1400 
     86 CB         -6.0151  -20.8776  -49.0767 C.3       15 UNK        -0.1800 
     87 C          -3.9309  -22.3649  -49.2040 C.2       15 UNK         0.5000 
     88 O          -3.7303  -21.9898  -50.3609 O.2       15 UNK        -0.5000 
     89 N          -3.4298  -23.5068  -48.7027 N.am      16 UNK        -0.5000 
     90 CA         -2.7281  -24.5648  -49.4345 C.3       16 UNK         0.1400 
     91 CB         -1.3104  -24.1049  -49.8180 C.3       16 UNK        -0.1800 
     92 C          -3.5519  -25.1146  -50.6208 C.2       16 UNK         0.5000 
     93 O          -2.9939  -25.4150  -51.6768 O.2       16 UNK        -0.5000 
     94 N          -4.8785  -25.2013  -50.4215 N.am      17 UNK        -0.5000 
     95 CA         -5.9074  -25.5412  -51.4106 C.3       17 UNK         0.1400 
     96 CB         -5.7497  -26.9946  -51.9051 C.3       17 UNK        -0.1800 
     97 C          -5.9909  -24.5085  -52.5566 C.2       17 UNK         0.5000 
     98 O          -6.2596  -24.8773  -53.7010 O.2       17 UNK        -0.5000 
     99 N          -5.7563  -23.2330  -52.2106 N.am      18 UNK        -0.5000 
    100 CA        -5.6539  -22.0636  -53.0859 C.3       18 UNK         0.1400 
    101 CB        -6.9966  -21.7595  -53.7818 C.3       18 UNK        -0.1800 
    102 C         -4.4708  -22.2007  -54.0617 C.2       18 UNK         0.5000 
    103 O         -4.6648  -22.2131  -55.2799 O.2       18 UNK        -0.5000 
    104 N         -3.2625  -22.3360  -53.4965 N.am      19 UNK        -0.5000 
    105 CA        -2.0004  -22.4938  -54.2245 C.3       19 UNK         0.1400 
    106 CB        -0.8461  -22.6460  -53.2244 C.3       19 UNK        -0.1800 
    107 C         -1.7395  -21.3219  -55.1875 C.2       19 UNK         0.5000 
    108 O         -1.6453  -20.1788  -54.7387 O.2       19 UNK        -0.5000 
    109 N         -1.6918  -21.6234  -56.4944 N.am      20 UNK        -0.5000 
    110 CA        -1.5910  -20.6741  -57.6141 C.3       20 UNK         0.1400 
    111 CB        -0.1948  -20.0177  -57.6405 C.3       20 UNK        -0.1800 
    112 C         -2.7386  -19.6369  -57.6331 C.2       20 UNK         0.5000 
    113 O         -2.5265  -18.4828  -58.0121 O.2       20 UNK        -0.5000 
    114 N         -3.9224  -20.0565  -57.1554 N.am      21 UNK        -0.5000 
    115 CA        -5.1210  -19.2497  -56.8935 C.3       21 UNK         0.1400 
    116 CB        -5.7188  -18.7151  -58.2115 C.3       21 UNK        -0.1800 
    117 C         -4.8980  -18.1327  -55.8475 C.2       21 UNK         0.5000 
    118 O         -5.6878  -17.1890  -55.7901 O.2       21 UNK        -0.5000 
    119 N         -3.8234  -18.2500  -55.0536 N.am      22 UNK        -0.5000 
    120 CA        -3.3116  -17.2490  -54.1067 C.3       22 UNK         0.1400 
    121 C         -2.8247  -15.9246  -54.7721 C.2       22 UNK         0.5000 
    122 N         -2.5087  -15.9132  -56.0632 N.am      22 UNK        -0.7600 
    123 O         -2.6946  -14.8993  -54.1090 O.2       22 UNK        -0.5000 
    124 C124       -4.2518  -17.0342  -52.8881 C.3       23 UNK        -0.0398 
    125 S125       -4.3826  -18.5465  -51.8726 S.3       23 UNK        -0.2404 
    126 C126       -3.3361  -18.1466  -50.4339 C.3       23 UNK        -0.0205 
    127 H127       -1.0970   -8.9412  -48.7633 H         1 UNK         0.0600 
    128 H128       -1.2117   -9.5430  -47.1055 H         1 UNK         0.0600 
    129 H129       -2.1615  -10.2994  -48.3869 H         1 UNK         0.0600 
    130 H130       -1.3148  -12.2677  -48.9693 H         1 UNK         0.3000 
    131 H131        1.5858  -12.6538  -49.3019 H         1 UNK         0.0600 
    132 H132       -0.5170  -14.7846  -49.8714 H         1 UNK         0.0800 
    133 H133       -0.3170  -13.4570  -50.9816 H         1 UNK         0.0800 
    134 H134        1.5444  -16.2107  -52.9782 H         1 UNK         0.0800 
    135 H135        0.0748  -15.2869  -52.8094 H         1 UNK         0.0800 
    136 H136       -1.7917  -16.1685  -51.5069 H         1 UNK         0.1150 
    137 H137       -1.5708  -20.1991  -50.0598 H         1 UNK         0.1150 
    138 H138        1.9465  -18.2501  -51.5538 H         1 UNK         0.1150 
    139 H139        0.4763  -21.4505  -50.2625 H         1 UNK         0.0800 
    140 H140        1.7242  -20.8383  -51.3110 H         1 UNK         0.0800 
    141 H141        0.2378  -19.4304  -48.0132 H         1 UNK         0.0800 
    142 H142        1.5155  -19.5586  -46.8433 H         1 UNK         0.0800 
    143 H143        0.1079  -22.0061  -48.0050 H         1 UNK         0.0600 
    144 H144        1.7101  -21.8234  -45.4871 H         1 UNK         0.3000 
    145 H145        2.7550  -25.1520  -45.8759 H         1 UNK         0.0600 
    146 H146        4.6271  -22.7411  -46.1833 H         1 UNK         0.0600 
    147 H147        5.0949  -24.3530  -45.6371 H         1 UNK         0.0600 
    148 H148        4.5409  -24.1094  -47.2857 H         1 UNK         0.0600 
    149 H149        3.5615  -23.1817  -43.9969 H         1 UNK         0.3000 
    150 H150        0.6656  -22.9513  -42.0405 H         1 UNK         0.0600 
    151 H151        1.4802  -25.1894  -41.2728 H         1 UNK         0.0600 
    152 H152        1.9938  -23.9055  -40.1910 H         1 UNK         0.0600 
    153 H153        3.1408  -24.6094  -41.3319 H         1 UNK         0.0600 
    154 H154        3.1071  -22.0374  -41.2601 H         1 UNK         0.3000 
    155 H155        4.1413  -20.1341  -41.7207 H         1 UNK         0.0600 
    156 H156        4.6268  -19.7174  -44.1408 H         1 UNK         0.0600 
    157 H157        4.6380  -18.2203  -43.2194 H         1 UNK         0.0600 
    158 H158        3.2568  -18.6187  -44.2378 H         1 UNK         0.0600 
    159 H159        2.2427  -17.9865  -42.1376 H         1 UNK         0.3000 
    160 H160        0.1660  -17.9890  -40.2013 H         1 UNK         0.0600 
    161 H161        0.5079  -17.0850  -37.8884 H         1 UNK         0.0600 
    162 H162        2.0997  -17.8415  -37.8263 H         1 UNK         0.0600 
    163 H163        0.6489  -18.8338  -37.9322 H         1 UNK         0.0600 
    164 H164        2.6157  -16.3192  -39.8074 H         1 UNK         0.3000 
    165 H165        2.3138  -14.0249  -40.6742 H         1 UNK         0.0600 
    166 H166        3.2473  -15.6184  -43.1429 H         1 UNK         0.0600 
    167 H167        4.0251  -14.1625  -42.5287 H         1 UNK         0.0600 
    168 H168        4.0265  -15.6288  -41.5659 H         1 UNK         0.0600 
    169 H169        0.6809  -14.2597  -43.0817 H         1 UNK         0.3000 
    170 H170       -0.0396  -10.9306  -43.1157 H         1 UNK         0.0600 
    171 H171        1.8507  -11.9044  -45.3234 H         1 UNK         0.0600 
    172 H172        0.6888  -10.5837  -45.4543 H         1 UNK         0.0600 
    173 H173        2.0617  -10.4394  -44.3717 H         1 UNK         0.0600 
    174 H174       -0.3106  -12.9920  -45.1418 H         1 UNK         0.3000 
    175 H175       -3.2638  -14.4107  -43.6602 H         1 UNK         0.0600 
    176 H176       -2.8023  -12.6845  -46.1518 H         1 UNK         0.0600 
    177 H177       -4.1431  -13.8013  -45.9014 H         1 UNK         0.0600 
    178 H178       -3.9910  -12.3720  -44.8910 H         1 UNK         0.0600 
    179 H179       -1.1760  -14.6684  -45.8036 H         1 UNK         0.3000 
    180 H180       -0.9453  -18.1340  -45.3393 H         1 UNK         0.0600 
    181 H181       -2.5444  -16.8448  -47.6226 H         1 UNK         0.0600 
    182 H182       -3.0846  -18.1909  -46.6265 H         1 UNK         0.0600 
    183 H183       -1.7251  -18.3996  -47.7081 H         1 UNK         0.0600 
    184 H184       -0.1265  -16.3437  -47.4544 H         1 UNK         0.3000 
    185 H185        2.6351  -14.9554  -45.8497 H         1 UNK         0.0600 
    186 H186        4.1264  -16.0808  -47.4796 H         1 UNK         0.0600 
    187 H187        3.6606  -17.2135  -46.2234 H         1 UNK         0.0600 
    188 H188        2.8970  -17.3030  -47.8060 H         1 UNK         0.0600 
    189 H189        2.2494  -15.0013  -48.5864 H         1 UNK         0.3000 
    190 H190        0.2138  -21.0196  -44.5692 H         1 UNK         0.3000 
    191 H191       -2.3880  -19.8712  -44.5519 H         1 UNK         0.0600 
    192 H192       -0.6846  -20.9491  -42.2471 H         1 UNK         0.0600 
    193 H193       -0.6166  -19.3153  -42.9070 H         1 UNK         0.0600 
    194 H194       -2.0675  -19.8731  -42.0908 H         1 UNK         0.0600 
    195 H195       -1.4028  -23.2481  -44.2667 H         1 UNK         0.3000 
    196 H196       -3.8062  -24.1876  -42.9567 H         1 UNK         0.0600 
    197 H197       -1.6699  -25.4248  -42.7952 H         1 UNK         0.0600 
    198 H198       -1.6586  -25.6899  -44.5383 H         1 UNK         0.0600 
    199 H199       -2.9063  -26.4258  -43.5418 H         1 UNK         0.0600 
    200 H200       -5.6388  -23.6003  -44.0190 H         1 UNK         0.3000 
    201 H201       -7.3343  -23.5484  -45.4497 H         1 UNK         0.0600 
    202 H202       -7.8444  -25.6314  -46.6813 H         1 UNK         0.0600 
    203 H203       -7.1993  -26.0244  -45.0972 H         1 UNK         0.0600 
    204 H204       -6.1792  -26.1765  -46.5270 H         1 UNK         0.0600 
    205 H205       -5.1259  -22.0024  -46.2405 H         1 UNK         0.3000 
    206 H206       -4.2641  -20.7454  -47.8561 H         1 UNK         0.0600 
    207 H207       -6.6339  -21.6095  -49.5960 H         1 UNK         0.0600 
    208 H208       -5.6286  -20.1933  -49.8296 H         1 UNK         0.0600 
    209 H209       -6.6623  -20.2973  -48.4193 H         1 UNK         0.0600 
    210 H210       -3.6446  -23.7389  -47.7379 H         1 UNK         0.3000 
    211 H211       -2.6221  -25.3997  -48.7405 H         1 UNK         0.0600 
    212 H212       -0.7230  -23.9157  -48.9226 H         1 UNK         0.0600 
    213 H213       -0.7796  -24.8657  -50.3910 H         1 UNK         0.0600 
    214 H214       -1.3255  -23.1889  -50.4060 H         1 UNK         0.0600 
    215 H215       -5.2443  -24.8908  -49.5265 H         1 UNK         0.3000 
    216 H216       -6.8601  -25.4787  -50.8827 H         1 UNK         0.0600 
    217 H217       -6.6029  -27.2930  -52.5152 H         1 UNK         0.0600 
    218 H218       -4.8545  -27.1232  -52.5138 H         1 UNK         0.0600 
    219 H219       -5.6909  -27.6914  -51.0690 H         1 UNK         0.0600 
    220 H220       -5.4717  -23.0622  -51.2554 H         1 UNK         0.3000 
    221 H221       -5.4278  -21.2180  -52.4369 H         1 UNK         0.0600 
    222 H222       -7.2797  -22.5397  -54.4886 H         1 UNK         0.0600 
    223 H223       -7.8017  -21.6569  -53.0543 H         1 UNK         0.0600 
    224 H224       -6.9393  -20.8224  -54.3361 H         1 UNK         0.0600 
    225 H225       -3.2021  -22.2946  -52.4855 H         1 UNK         0.3000 
    226 H226       -2.0679  -23.4169  -54.8035 H         1 UNK         0.0600 
    227 H227       -0.9377  -23.5780  -52.6683 H         1 UNK         0.0600 
    228 H228        0.1175  -22.6703  -53.7348 H         1 UNK         0.0600 
    229 H229       -0.8213  -21.8204  -52.5122 H         1 UNK         0.0600 
    230 H230       -1.8098  -22.5908  -56.7627 H         1 UNK         0.3000 
    231 H231       -1.6986  -21.2604  -58.5275 H         1 UNK         0.0600 
    232 H232       -0.0614  -19.4167  -58.5407 H         1 UNK         0.0600 
    233 H233        0.5945  -20.7693  -57.6343 H         1 UNK         0.0600 
    234 H234       -0.0396  -19.3612  -56.7836 H         1 UNK         0.0600 
    235 H235       -3.9798  -21.0071  -56.8030 H         1 UNK         0.3000 
    236 H236       -5.8514  -19.9300  -56.4543 H         1 UNK         0.0600 
    237 H237       -5.8654  -19.5191  -58.9327 H         1 UNK         0.0600 
    238 H238       -6.6921  -18.2537  -58.0411 H         1 UNK         0.0600 
    239 H239       -5.0784  -17.9626  -58.6722 H         1 UNK         0.0600 
    240 H240       -3.2195  -19.0583  -55.1615 H         1 UNK         0.3000 
    241 H241       -2.3897  -17.6868  -53.7251 H         1 UNK         0.0600 
    242 H242       -2.1842  -15.0576  -56.4849 H         1 UNK         0.3800 
    243 H243       -2.5861  -16.7517  -56.6254 H         1 UNK         0.3800 
    244 H244       -3.9128  -16.2147  -52.2554 H         1 UNK         0.0800 
    245 H245       -5.2507  -16.7481  -53.2177 H         1 UNK         0.0800 
    246 H246       -3.5525  -18.8634  -49.6409 H         1 UNK         0.0800 
    247 H247       -3.6113  -17.1687  -50.0368 H         1 UNK         0.0800 
@<TRIPOS>BOND
     1    1    2 1    
     2    1  127 1    
     3    1  128 1    
     4    1  129 1    
     5    2    3 2    
     6    2    4 am   BACKBONE|DICT|INTERRES
     7    4    5 1    
     8    4  130 1    
     9    5    6 1    
    10    5   65 1    
    11    5  131 1    
    12    6    7 1    
    13    6  132 1    
    14    6  133 1    
    15    7    8 1    
    16    8    9 1    
    17    8  134 1    
    18    8  135 1    
    19    9   10 ar   
    20    9   14 ar   
    21   10   11 ar   
    22   10  136 1    
    23   11   12 ar   
    24   11  126 1    
    25   12   13 ar   
    26   12  137 1    
    27   13   14 ar   
    28   13   15 1    
    29   14  138 1    
    30   15   16 1    
    31   15  139 1    
    32   15  140 1    
    33   16   17 1    
    34   17   18 1    
    35   17  141 1    
    36   17  142 1    
    37   18   19 1    
    38   18   67 1    
    39   18  143 1    
    40   19   20 am   BACKBONE|DICT|INTERRES
    41   19  144 1    
    42   20   21 2    
    43   20   22 1    
    44   22   23 1    
    45   22   24 1    
    46   22  145 1    
    47   23  146 1    
    48   23  147 1    
    49   23  148 1    
    50   24   25 am   BACKBONE|DICT|INTERRES
    51   24  149 1    
    52   25   26 2    
    53   25   27 1    
    54   27   28 1    
    55   27   29 1    
    56   27  150 1    
    57   28  151 1    
    58   28  152 1    
    59   28  153 1    
    60   29   30 am   BACKBONE|DICT|INTERRES
    61   29  154 1    
    62   30   31 2    
    63   30   32 1    
    64   32   33 1    
    65   32   34 1    
    66   32  155 1    
    67   33  156 1    
    68   33  157 1    
    69   33  158 1    
    70   34   35 am   BACKBONE|DICT|INTERRES
    71   34  159 1    
    72   35   36 2    
    73   35   37 1    
    74   37   38 1    
    75   37   39 1    
    76   37  160 1    
    77   38  161 1    
    78   38  162 1    
    79   38  163 1    
    80   39   40 am   BACKBONE|DICT|INTERRES
    81   39  164 1    
    82   40   41 2    
    83   40   42 1    
    84   42   43 1    
    85   42   44 1    
    86   42  165 1    
    87   43  166 1    
    88   43  167 1    
    89   43  168 1    
    90   44   45 am   BACKBONE|DICT|INTERRES
    91   44  169 1    
    92   45   46 2    
    93   45   47 1    
    94   47   48 1    
    95   47   49 1    
    96   47  170 1    
    97   48  171 1    
    98   48  172 1    
    99   48  173 1    
   100   49   50 am   BACKBONE|DICT|INTERRES
   101   49  174 1    
   102   50   51 2    
   103   50   52 1    
   104   52   53 1    
   105   52   54 1    
   106   52  175 1    
   107   53  176 1    
   108   53  177 1    
   109   53  178 1    
   110   54   55 am   BACKBONE|DICT|INTERRES
   111   54  179 1    
   112   55   56 2    
   113   55   57 1    
   114   57   58 1    
   115   57   59 1    
   116   57  180 1    
   117   58  181 1    
   118   58  182 1    
   119   58  183 1    
   120   59   60 am   BACKBONE|DICT|INTERRES
   121   59  184 1    
   122   60   61 2    
   123   60   62 1    
   124   62   63 1    
   125   62   64 1    
   126   62  185 1    
   127   63  186 1    
   128   63  187 1    
   129   63  188 1    
   130   64   65 am   BACKBONE|DICT|INTERRES
   131   64  189 1    
   132   65   66 2    
   133   67   68 2    
   134   67   69 am   BACKBONE|DICT|INTERRES
   135   69   70 1    
   136   69  190 1    
   137   70   71 1    
   138   70   72 1    
   139   70  191 1    
   140   71  192 1    
   141   71  193 1    
   142   71  194 1    
   143   72   73 2    
   144   72   74 am   BACKBONE|DICT|INTERRES
   145   74   75 1    
   146   74  195 1    
   147   75   76 1    
   148   75   77 1    
   149   75  196 1    
   150   76  197 1    
   151   76  198 1    
   152   76  199 1    
   153   77   78 2    
   154   77   79 am   BACKBONE|DICT|INTERRES
   155   79   80 1    
   156   79  200 1    
   157   80   81 1    
   158   80   82 1    
   159   80  201 1    
   160   81  202 1    
   161   81  203 1    
   162   81  204 1    
   163   82   83 2    
   164   82   84 am   BACKBONE|DICT|INTERRES
   165   84   85 1    
   166   84  205 1    
   167   85   86 1    
   168   85   87 1    
   169   85  206 1    
   170   86  207 1    
   171   86  208 1    
   172   86  209 1    
   173   87   88 2    
   174   87   89 am   BACKBONE|DICT|INTERRES
   175   89   90 1    
   176   89  210 1    
   177   90   91 1    
   178   90   92 1    
   179   90  211 1    
   180   91  212 1    
   181   91  213 1    
   182   91  214 1    
   183   92   93 2    
   184   92   94 am   BACKBONE|DICT|INTERRES
   185   94   95 1    
   186   94  215 1    
   187   95   96 1    
   188   95   97 1    
   189   95  216 1    
   190   96  217 1    
   191   96  218 1    
   192   96  219 1    
   193   97   98 2    
   194   97   99 am   BACKBONE|DICT|INTERRES
   195   99  100 1    
   196   99  220 1    
   197  100  101 1    
   198  100  102 1    
   199  100  221 1    
   200  101  222 1    
   201  101  223 1    
   202  101  224 1    
   203  102  103 2    
   204  102  104 am   BACKBONE|DICT|INTERRES
   205  104  105 1    
   206  104  225 1    
   207  105  106 1    
   208  105  107 1    
   209  105  226 1    
   210  106  227 1    
   211  106  228 1    
   212  106  229 1    
   213  107  108 2    
   214  107  109 am   BACKBONE|DICT|INTERRES
   215  109  110 1    
   216  109  230 1    
   217  110  111 1    
   218  110  112 1    
   219  110  231 1    
   220  111  232 1    
   221  111  233 1    
   222  111  234 1    
   223  112  113 2    
   224  112  114 am   BACKBONE|DICT|INTERRES
   225  114  115 1    
   226  114  235 1    
   227  115  116 1    
   228  115  117 1    
   229  115  236 1    
   230  116  237 1    
   231  116  238 1    
   232  116  239 1    
   233  117  118 2    
   234  117  119 am   BACKBONE|DICT|INTERRES
   235  119  120 1    
   236  119  240 1    
   237  120  121 1    
   238  120  124 1    
   239  120  241 1    
   240  121  122 am   BACKBONE|DICT|INTERRES
   241  121  123 2    
   242  122  242 1    
   243  122  243 1    
   244  124  125 1    
   245  124  244 1    
   246  124  245 1    
   247  125  126 1    
   248  126  246 1    
   249  126  247 1    
@<TRIPOS>SUBSTRUCTURE
     1 UNK         1 GROUP             0       ****    0 ROOT    
