@<TRIPOS>MOLECULE
3R540
247   249    1
SMALL
USER_CHARGES


@<TRIPOS>ATOM
      1 CA          7.0607  -10.0809  -44.6935 C.3       0 UNK        -0.1800 
      2 C           5.8688  -11.0007  -44.9133 C.2       0 UNK         0.5000 
      3 O           4.8987  -10.9349  -44.1607 O.2       0 UNK        -0.5000 
      4 N           5.9328  -11.8576  -45.9396 N.am      1 UNK        -0.5000 
      5 CA          4.8696  -12.7886  -46.3338 C.3       1 UNK         0.1400 
      6 C6          5.3552  -13.7149  -47.4732 C.3       23 UNK        -0.0398 
      7 S7          4.2818  -15.1668  -47.7309 S.3       23 UNK        -0.2404 
      8 C8          3.6068  -14.7895  -49.3762 C.3       23 UNK        -0.0205 
      9 C9          2.7081  -15.9017  -49.8923 C.ar      23 UNK        -0.0193 
     10 C10         1.3688  -15.6476  -50.2000 C.ar      23 UNK        -0.1150 
     11 C11         0.5498  -16.6470  -50.7362 C.ar      23 UNK        -0.0193 
     12 C12         1.0990  -17.9182  -50.9604 C.ar      23 UNK        -0.1150 
     13 C13         2.4213  -18.2001  -50.6066 C.ar      23 UNK        -0.0193 
     14 C14         3.2253  -17.1835  -50.0906 C.ar      23 UNK        -0.1150 
     15 C15         2.9824  -19.6051  -50.7648 C.3       23 UNK        -0.0205 
     16 S16         2.7936  -20.5706  -49.2292 S.3       23 UNK        -0.2404 
     17 C17         0.9926  -20.8426  -49.2145 C.3       23 UNK        -0.0398 
     18 CA          0.5783  -22.0435  -48.3333 C.3       11 UNK         0.1400 
     19 N           0.7001  -21.7606  -46.8998 N.am      11 UNK        -0.5000 
     20 C           0.5936  -22.6887  -45.9381 C.2       10 UNK         0.5000 
     21 O           0.4538  -23.8903  -46.1644 O.2       10 UNK        -0.5000 
     22 CA          0.5614  -22.1861  -44.4835 C.3       10 UNK         0.1400 
     23 CB          1.9804  -21.9311  -43.9553 C.3       10 UNK        -0.1800 
     24 N          -0.2588  -20.9823  -44.3304 N.am      10 UNK        -0.5000 
     25 C          -1.5797  -20.9376  -44.5579 C.2       9 UNK         0.5000 
     26 O          -2.2493  -21.9275  -44.8473 O.2       9 UNK        -0.5000 
     27 CA         -2.2638  -19.5594  -44.5111 C.3       9 UNK         0.1400 
     28 CB         -2.6685  -19.2023  -43.0745 C.3       9 UNK        -0.1800 
     29 N          -1.4338  -18.4943  -45.0742 N.am      9 UNK        -0.5000 
     30 C          -1.0521  -18.4185  -46.3576 C.2       8 UNK         0.5000 
     31 O          -1.4046  -19.2207  -47.2226 O.2       8 UNK        -0.5000 
     32 CA         -0.0711  -17.2882  -46.7222 C.3       8 UNK         0.1400 
     33 CB         -0.8134  -15.9711  -46.9923 C.3       8 UNK        -0.1800 
     34 N           0.9329  -17.0799  -45.6781 N.am      8 UNK        -0.5000 
     35 C           1.9099  -17.9523  -45.3936 C.2       7 UNK         0.5000 
     36 O           2.0936  -18.9971  -46.0182 O.2       7 UNK        -0.5000 
     37 CA          2.7822  -17.6331  -44.1647 C.3       7 UNK         0.1400 
     38 CB          3.8918  -16.6313  -44.5103 C.3       7 UNK        -0.1800 
     39 N           1.9927  -17.1121  -43.0480 N.am      7 UNK        -0.5000 
     40 C           1.1522  -17.8593  -42.3172 C.2       6 UNK         0.5000 
     41 O           0.9791  -19.0627  -42.5027 O.2       6 UNK        -0.5000 
     42 CA          0.3406  -17.1452  -41.2183 C.3       6 UNK         0.1400 
     43 CB          1.1104  -17.1618  -39.8896 C.3       6 UNK        -0.1800 
     44 N          -0.0099  -15.7645  -41.5501 N.am      6 UNK        -0.5000 
     45 C          -0.7170  -15.3748  -42.6202 C.2       5 UNK         0.5000 
     46 O          -1.2045  -16.1549  -43.4368 O.2       5 UNK        -0.5000 
     47 CA         -0.8590  -13.8584  -42.8476 C.3       5 UNK         0.1400 
     48 CB         -2.2239  -13.3643  -42.3485 C.3       5 UNK        -0.1800 
     49 N           0.1995  -13.0587  -42.2228 N.am      5 UNK        -0.5000 
     50 C           1.5042  -13.1421  -42.5128 C.2       4 UNK         0.5000 
     51 O           1.9734  -13.9366  -43.3329 O.2       4 UNK        -0.5000 
     52 CA          2.4158  -12.1210  -41.8105 C.3       4 UNK         0.1400 
     53 CB          3.8268  -12.6829  -41.5670 C.3       4 UNK        -0.1800 
     54 N           2.5001  -10.9449  -42.6668 N.am      4 UNK        -0.5000 
     55 C           1.5525  -10.0021  -42.7653 C.2       3 UNK         0.5000 
     56 O           0.6590   -9.8369  -41.9337 O.2       3 UNK        -0.5000 
     57 CA          1.5373   -9.1999  -44.0800 C.3       3 UNK         0.1400 
     58 CB          2.6697   -8.1629  -44.1333 C.3       3 UNK        -0.1800 
     59 N           1.6343  -10.1158  -45.2201 N.am      3 UNK        -0.5000 
     60 C           0.6689  -10.9762  -45.5778 C.2       2 UNK         0.5000 
     61 O          -0.4812  -10.9201  -45.1420 O.2       2 UNK        -0.5000 
     62 CA          1.0460  -12.1405  -46.5147 C.3       2 UNK         0.1400 
     63 CB          0.7099  -11.8279  -47.9850 C.3       2 UNK        -0.1800 
     64 N           2.4227  -12.6256  -46.3452 N.am      2 UNK        -0.5000 
     65 C           3.5704  -12.0414  -46.7143 C.2       1 UNK         0.5000 
     66 O           3.6350  -10.9593  -47.3018 O.2       1 UNK        -0.5000 
     67 C          -0.8363  -22.5319  -48.7143 C.2       11 UNK         0.5000 
     68 O          -0.9547  -23.3683  -49.6088 O.2       11 UNK        -0.5000 
     69 N          -1.8849  -22.0188  -48.0557 N.am      12 UNK        -0.5000 
     70 CA         -3.2672  -22.4676  -48.2494 C.3       12 UNK         0.1400 
     71 CB         -4.2487  -21.4265  -47.6924 C.3       12 UNK        -0.1800 
     72 C          -3.5263  -23.8609  -47.6619 C.2       12 UNK         0.5000 
     73 O          -4.2252  -24.6551  -48.2905 O.2       12 UNK        -0.5000 
     74 N          -2.9292  -24.1513  -46.4996 N.am      13 UNK        -0.5000 
     75 CA         -2.9474  -25.4684  -45.8659 C.3       13 UNK         0.1400 
     76 CB         -2.3639  -25.3685  -44.4485 C.3       13 UNK        -0.1800 
     77 C          -2.1989  -26.5231  -46.7008 C.2       13 UNK         0.5000 
     78 O          -2.7108  -27.6289  -46.8750 O.2       13 UNK        -0.5000 
     79 N          -1.0275  -26.1487  -47.2363 N.am      14 UNK        -0.5000 
     80 CA         -0.2060  -26.9808  -48.1177 C.3       14 UNK         0.1400 
     81 CB          1.1514  -26.2996  -48.3478 C.3       14 UNK        -0.1800 
     82 C          -0.8906  -27.2917  -49.4615 C.2       14 UNK         0.5000 
     83 O          -0.8339  -28.4324  -49.9222 O.2       14 UNK        -0.5000 
     84 N          -1.5422  -26.2811  -50.0534 N.am      15 UNK        -0.5000 
     85 CA         -2.3063  -26.4043  -51.2975 C.3       15 UNK         0.1400 
     86 CB         -2.4626  -25.0101  -51.9177 C.3       15 UNK        -0.1800 
     87 C          -3.6853  -27.0690  -51.1126 C.2       15 UNK         0.5000 
     88 O          -4.2952  -27.4662  -52.1057 O.2       15 UNK        -0.5000 
     89 N          -4.1482  -27.1656  -49.8580 N.am      16 UNK        -0.5000 
     90 CA         -5.4488  -27.6722  -49.4142 C.3       16 UNK         0.1400 
     91 CB         -5.5809  -29.1821  -49.7037 C.3       16 UNK        -0.1800 
     92 C          -6.6211  -26.8326  -49.9644 C.2       16 UNK         0.5000 
     93 O          -7.6076  -27.3919  -50.4469 O.2       16 UNK        -0.5000 
     94 N          -6.4756  -25.5011  -49.8695 N.am      17 UNK        -0.5000 
     95 CA         -7.4013  -24.4604  -50.3300 C.3       17 UNK         0.1400 
     96 CB         -8.6890  -24.4624  -49.4812 C.3       17 UNK        -0.1800 
     97 C          -7.6762  -24.5579  -51.8455 C.2       17 UNK         0.5000 
     98 O          -8.7749  -24.9325  -52.2618 O.2       17 UNK        -0.5000 
     99 N          -6.6462  -24.2436  -52.6392 N.am      18 UNK        -0.5000 
    100 CA        -6.6770  -24.2513  -54.1029 C.3       18 UNK         0.1400 
    101 CB        -5.2468  -24.5079  -54.6124 C.3       18 UNK        -0.1800 
    102 C         -7.2876  -22.9521  -54.6758 C.2       18 UNK         0.5000 
    103 O         -7.9861  -22.2231  -53.9667 O.2       18 UNK        -0.5000 
    104 N         -7.0165  -22.6690  -55.9579 N.am      19 UNK        -0.5000 
    105 CA        -7.3704  -21.4155  -56.6277 C.3       19 UNK         0.1400 
    106 CB        -6.9976  -21.5097  -58.1154 C.3       19 UNK        -0.1800 
    107 C         -6.6673  -20.2218  -55.9527 C.2       19 UNK         0.5000 
    108 O         -5.4421  -20.2388  -55.8250 O.2       19 UNK        -0.5000 
    109 N         -7.4652  -19.2480  -55.4911 N.am      20 UNK        -0.5000 
    110 CA        -7.0738  -18.1134  -54.6403 C.3       20 UNK         0.1400 
    111 CB        -6.0781  -17.1818  -55.3639 C.3       20 UNK        -0.1800 
    112 C         -6.5852  -18.5385  -53.2346 C.2       20 UNK         0.5000 
    113 O         -5.8592  -17.7849  -52.5838 O.2       20 UNK        -0.5000 
    114 N         -7.0105  -19.7304  -52.7879 N.am      21 UNK        -0.5000 
    115 CA        -6.6965  -20.4229  -51.5365 C.3       21 UNK         0.1400 
    116 CB        -7.1441  -19.6189  -50.2999 C.3       21 UNK        -0.1800 
    117 C         -5.2285  -20.8680  -51.4319 C.2       21 UNK         0.5000 
    118 O         -4.9685  -22.0696  -51.3490 O.2       21 UNK        -0.5000 
    119 N         -4.3118  -19.8965  -51.4007 N.am      22 UNK        -0.5000 
    120 CA        -2.8778  -20.0945  -51.1819 C.3       22 UNK         0.1400 
    121 C         -2.1579  -20.7833  -52.3779 C.2       22 UNK         0.5000 
    122 N         -1.3414  -21.7997  -52.1304 N.am      22 UNK        -0.7600 
    123 O         -2.3147  -20.3942  -53.5319 O.2       22 UNK        -0.5000 
    124 C124       -2.2029  -18.7905  -50.6799 C.3       23 UNK        -0.0398 
    125 S125       -1.8970  -17.5171  -51.9564 S.3       23 UNK        -0.2404 
    126 C126       -0.9096  -16.2869  -51.0361 C.3       23 UNK        -0.0205 
    127 H127        7.4835  -10.2469  -43.7027 H         1 UNK         0.0600 
    128 H128        7.8450  -10.2490  -45.4319 H         1 UNK         0.0600 
    129 H129        6.7461   -9.0395  -44.7611 H         1 UNK         0.0600 
    130 H130        6.7461  -11.8417  -46.5378 H         1 UNK         0.3000 
    131 H131        4.6617  -13.4053  -45.4562 H         1 UNK         0.0600 
    132 H132        5.4763  -13.1567  -48.4035 H         1 UNK         0.0800 
    133 H133        6.3455  -14.1038  -47.2316 H         1 UNK         0.0800 
    134 H134        4.4274  -14.6492  -50.0812 H         1 UNK         0.0800 
    135 H135        3.0669  -13.8425  -49.3325 H         1 UNK         0.0800 
    136 H136        0.9618  -14.6600  -50.0358 H         1 UNK         0.1150 
    137 H137        0.5086  -18.7080  -51.3968 H         1 UNK         0.1150 
    138 H138        4.2544  -17.3915  -49.8330 H         1 UNK         0.1150 
    139 H139        2.4988  -20.1227  -51.5947 H         1 UNK         0.0800 
    140 H140        4.0422  -19.5515  -51.0182 H         1 UNK         0.0800 
    141 H141        0.6797  -20.9978  -50.2483 H         1 UNK         0.0800 
    142 H142        0.5069  -19.9276  -48.8763 H         1 UNK         0.0800 
    143 H143        1.2546  -22.8708  -48.5584 H         1 UNK         0.0600 
    144 H144        0.8549  -20.7950  -46.6354 H         1 UNK         0.3000 
    145 H145        0.1128  -22.9722  -43.8727 H         1 UNK         0.0600 
    146 H146        1.9639  -21.6510  -42.9021 H         1 UNK         0.0600 
    147 H147        2.5953  -22.8276  -44.0432 H         1 UNK         0.0600 
    148 H148        2.4818  -21.1352  -44.5052 H         1 UNK         0.0600 
    149 H149        0.2163  -20.1427  -44.0162 H         1 UNK         0.3000 
    150 H150       -3.1731  -19.6183  -45.1122 H         1 UNK         0.0600 
    151 H151       -3.3635  -19.9405  -42.6724 H         1 UNK         0.0600 
    152 H152       -3.1621  -18.2313  -43.0304 H         1 UNK         0.0600 
    153 H153       -1.8054  -19.1726  -42.4110 H         1 UNK         0.0600 
    154 H154       -1.1584  -17.7485  -44.4406 H         1 UNK         0.3000 
    155 H155        0.4438  -17.5799  -47.6407 H         1 UNK         0.0600 
    156 H156       -1.6034  -16.1134  -47.7299 H         1 UNK         0.0600 
    157 H157       -0.1348  -15.2130  -47.3837 H         1 UNK         0.0600 
    158 H158       -1.2792  -15.5741  -46.0902 H         1 UNK         0.0600 
    159 H159        0.8143  -16.2748  -45.0815 H         1 UNK         0.3000 
    160 H160        3.2577  -18.5630  -43.8448 H         1 UNK         0.0600 
    161 H161        3.4829  -15.6740  -44.8335 H         1 UNK         0.0600 
    162 H162        4.5216  -17.0126  -45.3149 H         1 UNK         0.0600 
    163 H163        4.5379  -16.4454  -43.6523 H         1 UNK         0.0600 
    164 H164        2.0554  -16.1173  -42.8685 H         1 UNK         0.3000 
    165 H165       -0.5902  -17.6967  -41.0787 H         1 UNK         0.0600 
    166 H166        0.5135  -16.7382  -39.0817 H         1 UNK         0.0600 
    167 H167        1.3683  -18.1817  -39.6006 H         1 UNK         0.0600 
    168 H168        2.0396  -16.5941  -39.9554 H         1 UNK         0.0600 
    169 H169        0.3483  -15.0482  -40.9365 H         1 UNK         0.3000 
    170 H170       -0.8081  -13.6882  -43.9249 H         1 UNK         0.0600 
    171 H171       -3.0367  -13.9236  -42.8142 H         1 UNK         0.0600 
    172 H172       -2.3229  -13.4776  -41.2682 H         1 UNK         0.0600 
    173 H173       -2.3742  -12.3123  -42.5927 H         1 UNK         0.0600 
    174 H174       -0.1045  -12.3385  -41.5819 H         1 UNK         0.3000 
    175 H175        1.9831  -11.8502  -40.8452 H         1 UNK         0.0600 
    176 H176        4.3111  -12.9902  -42.4947 H         1 UNK         0.0600 
    177 H177        4.4672  -11.9419  -41.0885 H         1 UNK         0.0600 
    178 H178        3.7898  -13.5551  -40.9134 H         1 UNK         0.0600 
    179 H179        3.2373  -10.9716  -43.3684 H         1 UNK         0.3000 
    180 H180        0.5862   -8.6668  -44.1424 H         1 UNK         0.0600 
    181 H181        3.6544   -8.6266  -44.0858 H         1 UNK         0.0600 
    182 H182        2.5960   -7.4657  -43.2979 H         1 UNK         0.0600 
    183 H183        2.6216   -7.5768  -45.0512 H         1 UNK         0.0600 
    184 H184        2.5429  -10.2183  -45.6563 H         1 UNK         0.3000 
    185 H185        0.4163  -12.9801  -46.2162 H         1 UNK         0.0600 
    186 H186        1.2527  -10.9587  -48.3561 H         1 UNK         0.0600 
    187 H187        0.9431  -12.6733  -48.6309 H         1 UNK         0.0600 
    188 H188       -0.3537  -11.6159  -48.1000 H         1 UNK         0.0600 
    189 H189        2.4920  -13.4851  -45.8164 H         1 UNK         0.3000 
    190 H190       -1.7281  -21.2771  -47.3824 H         1 UNK         0.3000 
    191 H191       -3.4509  -22.5653  -49.3183 H         1 UNK         0.0600 
    192 H192       -4.1602  -21.3231  -46.6117 H         1 UNK         0.0600 
    193 H193       -5.2786  -21.7116  -47.9106 H         1 UNK         0.0600 
    194 H194       -4.0813  -20.4459  -48.1384 H         1 UNK         0.0600 
    195 H195       -2.4385  -23.4103  -46.0062 H         1 UNK         0.3000 
    196 H196       -3.9890  -25.7856  -45.7823 H         1 UNK         0.0600 
    197 H197       -2.4029  -26.3335  -43.9419 H         1 UNK         0.0600 
    198 H198       -2.9253  -24.6581  -43.8413 H         1 UNK         0.0600 
    199 H199       -1.3228  -25.0460  -44.4609 H         1 UNK         0.0600 
    200 H200       -0.6475  -25.2390  -46.9882 H         1 UNK         0.3000 
    201 H201       -0.0274  -27.9299  -47.6082 H         1 UNK         0.0600 
    202 H202        1.6783  -26.1422  -47.4066 H         1 UNK         0.0600 
    203 H203        1.0375  -25.3303  -48.8338 H         1 UNK         0.0600 
    204 H204        1.7939  -26.9118  -48.9819 H         1 UNK         0.0600 
    205 H205       -1.4905  -25.3536  -49.6458 H         1 UNK         0.3000 
    206 H206       -1.7373  -27.0218  -51.9955 H         1 UNK         0.0600 
    207 H207       -1.4881  -24.5571  -52.0950 H         1 UNK         0.0600 
    208 H208       -2.9679  -25.0630  -52.8804 H         1 UNK         0.0600 
    209 H209       -3.0389  -24.3418  -51.2761 H         1 UNK         0.0600 
    210 H210       -3.5764  -26.7644  -49.1267 H         1 UNK         0.3000 
    211 H211       -5.4670  -27.5448  -48.3308 H         1 UNK         0.0600 
    212 H212       -5.6216  -29.3904  -50.7731 H         1 UNK         0.0600 
    213 H213       -6.4906  -29.5858  -49.2578 H         1 UNK         0.0600 
    214 H214       -4.7411  -29.7369  -49.2851 H         1 UNK         0.0600 
    215 H215       -5.6210  -25.1623  -49.4318 H         1 UNK         0.3000 
    216 H216       -6.9036  -23.5062  -50.1545 H         1 UNK         0.0600 
    217 H217       -9.3487  -23.6458  -49.7766 H         1 UNK         0.0600 
    218 H218       -8.4620  -24.3305  -48.4233 H         1 UNK         0.0600 
    219 H219       -9.2502  -25.3909  -49.5898 H         1 UNK         0.0600 
    220 H220       -5.8095  -23.8638  -52.2121 H         1 UNK         0.3000 
    221 H221       -7.3067  -25.0773  -54.4392 H         1 UNK         0.0600 
    222 H222       -4.5715  -23.6949  -54.3409 H         1 UNK         0.0600 
    223 H223       -4.8502  -25.4323  -54.1926 H         1 UNK         0.0600 
    224 H224       -5.2140  -24.6224  -55.6960 H         1 UNK         0.0600 
    225 H225       -6.4196  -23.2966  -56.4758 H         1 UNK         0.3000 
    226 H226       -8.4523  -21.2867  -56.5536 H         1 UNK         0.0600 
    227 H227       -7.5256  -22.3288  -58.6039 H         1 UNK         0.0600 
    228 H228       -7.2633  -20.5921  -58.6418 H         1 UNK         0.0600 
    229 H229       -5.9274  -21.6693  -58.2540 H         1 UNK         0.0600 
    230 H230       -8.4600  -19.3380  -55.6478 H         1 UNK         0.3000 
    231 H231       -7.9865  -17.5402  -54.4721 H         1 UNK         0.0600 
    232 H232       -6.4394  -16.9103  -56.3557 H         1 UNK         0.0600 
    233 H233       -5.0968  -17.6433  -55.4769 H         1 UNK         0.0600 
    234 H234       -5.9364  -16.2551  -54.8066 H         1 UNK         0.0600 
    235 H235       -7.5592  -20.2956  -53.4274 H         1 UNK         0.3000 
    236 H236       -7.2954  -21.3340  -51.5492 H         1 UNK         0.0600 
    237 H237       -6.9758  -20.1901  -49.3861 H         1 UNK         0.0600 
    238 H238       -6.6030  -18.6782  -50.1972 H         1 UNK         0.0600 
    239 H239       -8.2083  -19.3883  -50.3467 H         1 UNK         0.0600 
    240 H240       -4.6194  -18.9485  -51.5948 H         1 UNK         0.3000 
    241 H241       -2.8036  -20.7815  -50.3462 H         1 UNK         0.0600 
    242 H242       -0.8745  -22.2273  -52.9139 H         1 UNK         0.3800 
    243 H243       -1.2643  -22.2341  -51.2191 H         1 UNK         0.3800 
    244 H244       -1.2689  -19.0430  -50.1839 H         1 UNK         0.0800 
    245 H245       -2.8135  -18.3417  -49.8948 H         1 UNK         0.0800 
    246 H246       -1.4194  -16.0603  -50.0998 H         1 UNK         0.0800 
    247 H247       -0.9206  -15.3641  -51.6180 H         1 UNK         0.0800 
@<TRIPOS>BOND
     1    1    2 1    
     2    1  127 1    
     3    1  128 1    
     4    1  129 1    
     5    2    3 2    
     6    2    4 am   BACKBONE|DICT|INTERRES
     7    4    5 1    
     8    4  130 1    
     9    5    6 1    
    10    5   65 1    
    11    5  131 1    
    12    6    7 1    
    13    6  132 1    
    14    6  133 1    
    15    7    8 1    
    16    8    9 1    
    17    8  134 1    
    18    8  135 1    
    19    9   10 ar   
    20    9   14 ar   
    21   10   11 ar   
    22   10  136 1    
    23   11   12 ar   
    24   11  126 1    
    25   12   13 ar   
    26   12  137 1    
    27   13   14 ar   
    28   13   15 1    
    29   14  138 1    
    30   15   16 1    
    31   15  139 1    
    32   15  140 1    
    33   16   17 1    
    34   17   18 1    
    35   17  141 1    
    36   17  142 1    
    37   18   19 1    
    38   18   67 1    
    39   18  143 1    
    40   19   20 am   BACKBONE|DICT|INTERRES
    41   19  144 1    
    42   20   21 2    
    43   20   22 1    
    44   22   23 1    
    45   22   24 1    
    46   22  145 1    
    47   23  146 1    
    48   23  147 1    
    49   23  148 1    
    50   24   25 am   BACKBONE|DICT|INTERRES
    51   24  149 1    
    52   25   26 2    
    53   25   27 1    
    54   27   28 1    
    55   27   29 1    
    56   27  150 1    
    57   28  151 1    
    58   28  152 1    
    59   28  153 1    
    60   29   30 am   BACKBONE|DICT|INTERRES
    61   29  154 1    
    62   30   31 2    
    63   30   32 1    
    64   32   33 1    
    65   32   34 1    
    66   32  155 1    
    67   33  156 1    
    68   33  157 1    
    69   33  158 1    
    70   34   35 am   BACKBONE|DICT|INTERRES
    71   34  159 1    
    72   35   36 2    
    73   35   37 1    
    74   37   38 1    
    75   37   39 1    
    76   37  160 1    
    77   38  161 1    
    78   38  162 1    
    79   38  163 1    
    80   39   40 am   BACKBONE|DICT|INTERRES
    81   39  164 1    
    82   40   41 2    
    83   40   42 1    
    84   42   43 1    
    85   42   44 1    
    86   42  165 1    
    87   43  166 1    
    88   43  167 1    
    89   43  168 1    
    90   44   45 am   BACKBONE|DICT|INTERRES
    91   44  169 1    
    92   45   46 2    
    93   45   47 1    
    94   47   48 1    
    95   47   49 1    
    96   47  170 1    
    97   48  171 1    
    98   48  172 1    
    99   48  173 1    
   100   49   50 am   BACKBONE|DICT|INTERRES
   101   49  174 1    
   102   50   51 2    
   103   50   52 1    
   104   52   53 1    
   105   52   54 1    
   106   52  175 1    
   107   53  176 1    
   108   53  177 1    
   109   53  178 1    
   110   54   55 am   BACKBONE|DICT|INTERRES
   111   54  179 1    
   112   55   56 2    
   113   55   57 1    
   114   57   58 1    
   115   57   59 1    
   116   57  180 1    
   117   58  181 1    
   118   58  182 1    
   119   58  183 1    
   120   59   60 am   BACKBONE|DICT|INTERRES
   121   59  184 1    
   122   60   61 2    
   123   60   62 1    
   124   62   63 1    
   125   62   64 1    
   126   62  185 1    
   127   63  186 1    
   128   63  187 1    
   129   63  188 1    
   130   64   65 am   BACKBONE|DICT|INTERRES
   131   64  189 1    
   132   65   66 2    
   133   67   68 2    
   134   67   69 am   BACKBONE|DICT|INTERRES
   135   69   70 1    
   136   69  190 1    
   137   70   71 1    
   138   70   72 1    
   139   70  191 1    
   140   71  192 1    
   141   71  193 1    
   142   71  194 1    
   143   72   73 2    
   144   72   74 am   BACKBONE|DICT|INTERRES
   145   74   75 1    
   146   74  195 1    
   147   75   76 1    
   148   75   77 1    
   149   75  196 1    
   150   76  197 1    
   151   76  198 1    
   152   76  199 1    
   153   77   78 2    
   154   77   79 am   BACKBONE|DICT|INTERRES
   155   79   80 1    
   156   79  200 1    
   157   80   81 1    
   158   80   82 1    
   159   80  201 1    
   160   81  202 1    
   161   81  203 1    
   162   81  204 1    
   163   82   83 2    
   164   82   84 am   BACKBONE|DICT|INTERRES
   165   84   85 1    
   166   84  205 1    
   167   85   86 1    
   168   85   87 1    
   169   85  206 1    
   170   86  207 1    
   171   86  208 1    
   172   86  209 1    
   173   87   88 2    
   174   87   89 am   BACKBONE|DICT|INTERRES
   175   89   90 1    
   176   89  210 1    
   177   90   91 1    
   178   90   92 1    
   179   90  211 1    
   180   91  212 1    
   181   91  213 1    
   182   91  214 1    
   183   92   93 2    
   184   92   94 am   BACKBONE|DICT|INTERRES
   185   94   95 1    
   186   94  215 1    
   187   95   96 1    
   188   95   97 1    
   189   95  216 1    
   190   96  217 1    
   191   96  218 1    
   192   96  219 1    
   193   97   98 2    
   194   97   99 am   BACKBONE|DICT|INTERRES
   195   99  100 1    
   196   99  220 1    
   197  100  101 1    
   198  100  102 1    
   199  100  221 1    
   200  101  222 1    
   201  101  223 1    
   202  101  224 1    
   203  102  103 2    
   204  102  104 am   BACKBONE|DICT|INTERRES
   205  104  105 1    
   206  104  225 1    
   207  105  106 1    
   208  105  107 1    
   209  105  226 1    
   210  106  227 1    
   211  106  228 1    
   212  106  229 1    
   213  107  108 2    
   214  107  109 am   BACKBONE|DICT|INTERRES
   215  109  110 1    
   216  109  230 1    
   217  110  111 1    
   218  110  112 1    
   219  110  231 1    
   220  111  232 1    
   221  111  233 1    
   222  111  234 1    
   223  112  113 2    
   224  112  114 am   BACKBONE|DICT|INTERRES
   225  114  115 1    
   226  114  235 1    
   227  115  116 1    
   228  115  117 1    
   229  115  236 1    
   230  116  237 1    
   231  116  238 1    
   232  116  239 1    
   233  117  118 2    
   234  117  119 am   BACKBONE|DICT|INTERRES
   235  119  120 1    
   236  119  240 1    
   237  120  121 1    
   238  120  124 1    
   239  120  241 1    
   240  121  122 am   BACKBONE|DICT|INTERRES
   241  121  123 2    
   242  122  242 1    
   243  122  243 1    
   244  124  125 1    
   245  124  244 1    
   246  124  245 1    
   247  125  126 1    
   248  126  246 1    
   249  126  247 1    
@<TRIPOS>SUBSTRUCTURE
     1 UNK         1 GROUP             0       ****    0 ROOT    
