@<TRIPOS>MOLECULE
3R540
247   249    1
SMALL
USER_CHARGES


@<TRIPOS>ATOM
      1 CA         -1.2630  -15.4826  -48.8951 C.3       0 UNK        -0.1800 
      2 C          -0.2774  -14.3590  -48.6079 C.2       0 UNK         0.5000 
      3 O          -0.5434  -13.5181  -47.7491 O.2       0 UNK        -0.5000 
      4 N           0.8600  -14.3419  -49.3171 N.am      1 UNK        -0.5000 
      5 CA          1.8652  -13.2653  -49.3001 C.3       1 UNK         0.1400 
      6 C6          2.9595  -13.4667  -50.3750 C.3       23 UNK        -0.0398 
      7 S7          2.2775  -13.6159  -52.0610 S.3       23 UNK        -0.2404 
      8 C8          2.9175  -15.2399  -52.5749 C.3       23 UNK        -0.0205 
      9 C9          2.1754  -16.3934  -51.9158 C.ar      23 UNK        -0.0193 
     10 C10         0.9409  -16.8070  -52.4242 C.ar      23 UNK        -0.1150 
     11 C11         0.2821  -17.9122  -51.8786 C.ar      23 UNK        -0.0193 
     12 C12         0.8564  -18.5903  -50.8011 C.ar      23 UNK        -0.1150 
     13 C13         2.0849  -18.1810  -50.2751 C.ar      23 UNK        -0.0193 
     14 C14         2.7396  -17.0801  -50.8356 C.ar      23 UNK        -0.1150 
     15 C15         2.7259  -18.9599  -49.1354 C.3       23 UNK        -0.0205 
     16 S16         2.4345  -18.1992  -47.5070 S.3       23 UNK        -0.2404 
     17 C17         0.6202  -18.2746  -47.3491 C.3       23 UNK        -0.0398 
     18 CA          0.0367  -19.7015  -47.2165 C.3       11 UNK         0.1400 
     19 N           0.6546  -20.4800  -46.1423 N.am      11 UNK        -0.5000 
     20 C           0.4759  -21.7934  -45.9497 C.2       10 UNK         0.5000 
     21 O          -0.1949  -22.4965  -46.7072 O.2       10 UNK        -0.5000 
     22 CA          1.0733  -22.4030  -44.6652 C.3       10 UNK         0.1400 
     23 CB          1.6375  -23.8210  -44.8861 C.3       10 UNK        -0.1800 
     24 N           2.0380  -21.5270  -43.9888 N.am      10 UNK        -0.5000 
     25 C           3.2740  -21.1879  -44.3862 C.2       9 UNK         0.5000 
     26 O           3.8099  -21.6132  -45.4094 O.2       9 UNK        -0.5000 
     27 CA          4.0356  -20.1775  -43.5036 C.3       9 UNK         0.1400 
     28 CB          4.1267  -18.8146  -44.2073 C.3       9 UNK        -0.1800 
     29 N           3.4300  -19.9764  -42.1854 N.am      9 UNK        -0.5000 
     30 C           3.4828  -20.8465  -41.1678 C.2       8 UNK         0.5000 
     31 O           4.0652  -21.9299  -41.2207 O.2       8 UNK        -0.5000 
     32 CA          2.7362  -20.4426  -39.8861 C.3       8 UNK         0.1400 
     33 CB          3.5897  -19.4845  -39.0400 C.3       8 UNK        -0.1800 
     34 N           1.4546  -19.8055  -40.1926 N.am      8 UNK        -0.5000 
     35 C           0.3044  -20.4638  -40.3922 C.2       7 UNK         0.5000 
     36 O           0.1983  -21.6884  -40.3261 O.2       7 UNK        -0.5000 
     37 CA         -0.9378  -19.6153  -40.7309 C.3       7 UNK         0.1400 
     38 CB         -1.6813  -19.2110  -39.4494 C.3       7 UNK        -0.1800 
     39 N          -0.6109  -18.4106  -41.4942 N.am      7 UNK        -0.5000 
     40 C          -0.2416  -18.4165  -42.7805 C.2       6 UNK         0.5000 
     41 O          -0.2204  -19.4294  -43.4804 O.2       6 UNK        -0.5000 
     42 CA          0.2065  -17.0805  -43.3971 C.3       6 UNK         0.1400 
     43 CB         -0.9372  -16.4432  -44.1981 C.3       6 UNK        -0.1800 
     44 N           0.7501  -16.1029  -42.4457 N.am      6 UNK        -0.5000 
     45 C           1.8298  -16.3045  -41.6722 C.2       5 UNK         0.5000 
     46 O           2.4322  -17.3774  -41.6401 O.2       5 UNK        -0.5000 
     47 CA          2.3292  -15.1496  -40.7822 C.3       5 UNK         0.1400 
     48 CB          3.8203  -14.8650  -41.0276 C.3       5 UNK        -0.1800 
     49 N           1.5732  -13.9130  -40.9768 N.am      5 UNK        -0.5000 
     50 C           0.5213  -13.5357  -40.2371 C.2       4 UNK         0.5000 
     51 O           0.0833  -14.1918  -39.2916 O.2       4 UNK        -0.5000 
     52 CA         -0.1751  -12.2138  -40.6237 C.3       4 UNK         0.1400 
     53 CB          0.3288  -11.0632  -39.7394 C.3       4 UNK        -0.1800 
     54 N          -0.0039  -11.8413  -42.0305 N.am      4 UNK        -0.5000 
     55 C          -0.4625  -12.5482  -43.0717 C.2       3 UNK         0.5000 
     56 O          -1.1017  -13.5917  -42.9461 O.2       3 UNK        -0.5000 
     57 CA         -0.1270  -12.0369  -44.4872 C.3       3 UNK         0.1400 
     58 CB          0.3221  -10.5594  -44.5293 C.3       3 UNK        -0.1800 
     59 N           0.8621  -12.8819  -45.1636 N.am      3 UNK        -0.5000 
     60 C           2.0927  -13.2040  -44.7301 C.2       2 UNK         0.5000 
     61 O           2.5305  -12.8839  -43.6239 O.2       2 UNK        -0.5000 
     62 CA          3.0047  -14.0069  -45.6847 C.3       2 UNK         0.1400 
     63 CB          3.2054  -15.4429  -45.1857 C.3       2 UNK        -0.1800 
     64 N           2.5202  -14.0624  -47.0644 N.am      2 UNK        -0.5000 
     65 C           2.5239  -13.0338  -47.9225 C.2       1 UNK         0.5000 
     66 O           3.0068  -11.9314  -47.6608 O.2       1 UNK        -0.5000 
     67 C          -1.4962  -19.6366  -47.0588 C.2       11 UNK         0.5000 
     68 O          -2.2048  -19.6157  -48.0634 O.2       11 UNK        -0.5000 
     69 N          -1.9814  -19.6487  -45.8073 N.am      12 UNK        -0.5000 
     70 CA         -3.4049  -19.7049  -45.4745 C.3       12 UNK         0.1400 
     71 CB         -3.5968  -19.4225  -43.9770 C.3       12 UNK        -0.1800 
     72 C          -4.0350  -21.0556  -45.8546 C.2       12 UNK         0.5000 
     73 O          -5.1635  -21.0816  -46.3434 O.2       12 UNK        -0.5000 
     74 N          -3.2804  -22.1473  -45.6621 N.am      13 UNK        -0.5000 
     75 CA         -3.6730  -23.4978  -46.0638 C.3       13 UNK         0.1400 
     76 CB         -2.7364  -24.5313  -45.4198 C.3       13 UNK        -0.1800 
     77 C          -3.7052  -23.6486  -47.5939 C.2       13 UNK         0.5000 
     78 O          -4.6492  -24.2362  -48.1206 O.2       13 UNK        -0.5000 
     79 N          -2.7080  -23.0685  -48.2796 N.am      14 UNK        -0.5000 
     80 CA         -2.6537  -22.9786  -49.7401 C.3       14 UNK         0.1400 
     81 CB         -1.3069  -22.3854  -50.1808 C.3       14 UNK        -0.1800 
     82 C          -3.8306  -22.1709  -50.3173 C.2       14 UNK         0.5000 
     83 O          -4.4756  -22.6336  -51.2555 O.2       14 UNK        -0.5000 
     84 N          -4.1272  -21.0122  -49.7095 N.am      15 UNK        -0.5000 
     85 CA         -5.2739  -20.1670  -50.0436 C.3       15 UNK         0.1400 
     86 CB         -5.2305  -18.8736  -49.2162 C.3       15 UNK        -0.1800 
     87 C          -6.6211  -20.8943  -49.8704 C.2       15 UNK         0.5000 
     88 O          -7.4476  -20.8647  -50.7842 O.2       15 UNK        -0.5000 
     89 N          -6.7955  -21.5658  -48.7221 N.am      16 UNK        -0.5000 
     90 CA         -7.9836  -22.3502  -48.3781 C.3       16 UNK         0.1400 
     91 CB         -7.8842  -22.8195  -46.9192 C.3       16 UNK        -0.1800 
     92 C          -8.2285  -23.5487  -49.3136 C.2       16 UNK         0.5000 
     93 O          -9.3842  -23.8603  -49.6042 O.2       16 UNK        -0.5000 
     94 N          -7.1519  -24.1736  -49.8081 N.am      17 UNK        -0.5000 
     95 CA         -7.1628  -25.2867  -50.7620 C.3       17 UNK         0.1400 
     96 CB         -5.8277  -26.0446  -50.6478 C.3       17 UNK        -0.1800 
     97 C          -7.4652  -24.8392  -52.2115 C.2       17 UNK         0.5000 
     98 O          -6.7723  -25.2537  -53.1425 O.2       17 UNK        -0.5000 
     99 N          -8.4909  -23.9904  -52.3792 N.am      18 UNK        -0.5000 
    100 CA        -8.9681  -23.3938  -53.6333 C.3       18 UNK         0.1400 
    101 CB        -9.6681  -24.4615  -54.4992 C.3       18 UNK        -0.1800 
    102 C         -7.8584  -22.6345  -54.3926 C.2       18 UNK         0.5000 
    103 O         -7.7330  -22.7712  -55.6104 O.2       18 UNK        -0.5000 
    104 N         -7.0418  -21.8895  -53.6340 N.am      19 UNK        -0.5000 
    105 CA        -5.8354  -21.1577  -54.0393 C.3       19 UNK         0.1400 
    106 CB        -6.1439  -20.1153  -55.1327 C.3       19 UNK        -0.1800 
    107 C         -4.6240  -22.0394  -54.4122 C.2       19 UNK         0.5000 
    108 O         -3.5440  -21.4880  -54.6166 O.2       19 UNK        -0.5000 
    109 N         -4.7923  -23.3697  -54.4676 N.am      20 UNK        -0.5000 
    110 CA        -3.8092  -24.4254  -54.7431 C.3       20 UNK         0.1400 
    111 CB        -2.7497  -24.4997  -53.6261 C.3       20 UNK        -0.1800 
    112 C         -3.1501  -24.3595  -56.1365 C.2       20 UNK         0.5000 
    113 O         -3.2351  -25.3276  -56.8931 O.2       20 UNK        -0.5000 
    114 N         -2.5114  -23.2270  -56.4412 N.am      21 UNK        -0.5000 
    115 CA        -1.7877  -22.9016  -57.6700 C.3       21 UNK         0.1400 
    116 CB        -0.5957  -23.8562  -57.8882 C.3       21 UNK        -0.1800 
    117 C         -1.2857  -21.4467  -57.6369 C.2       21 UNK         0.5000 
    118 O         -1.1567  -20.8307  -58.6961 O.2       21 UNK        -0.5000 
    119 N         -0.9910  -20.9303  -56.4358 N.am      22 UNK        -0.5000 
    120 CA        -0.5300  -19.5575  -56.1873 C.3       22 UNK         0.1400 
    121 C         -1.6215  -18.4642  -56.3903 C.2       22 UNK         0.5000 
    122 N         -1.2301  -17.1970  -56.4369 N.am      22 UNK        -0.7600 
    123 O         -2.8139  -18.7374  -56.5051 O.2       22 UNK        -0.5000 
    124 C124        0.1856  -19.4472  -54.8137 C.3       23 UNK        -0.0398 
    125 S125       -0.8261  -19.9615  -53.3774 S.3       23 UNK        -0.2404 
    126 C126       -1.0344  -18.3969  -52.4679 C.3       23 UNK        -0.0205 
    127 H127       -0.8813  -16.1765  -49.6442 H         1 UNK         0.0600 
    128 H128       -1.4792  -16.0389  -47.9832 H         1 UNK         0.0600 
    129 H129       -2.1997  -15.0682  -49.2675 H         1 UNK         0.0600 
    130 H130        1.0190  -15.0604  -50.0104 H         1 UNK         0.3000 
    131 H131        1.3330  -12.3425  -49.5410 H         1 UNK         0.0600 
    132 H132        3.6459  -12.6178  -50.3806 H         1 UNK         0.0800 
    133 H133        3.5681  -14.3409  -50.1398 H         1 UNK         0.0800 
    134 H134        3.9874  -15.2974  -52.3677 H         1 UNK         0.0800 
    135 H135        2.8188  -15.3246  -53.6581 H         1 UNK         0.0800 
    136 H136        0.5069  -16.2820  -53.2639 H         1 UNK         0.1150 
    137 H137        0.3523  -19.4534  -50.3911 H         1 UNK         0.1150 
    138 H138        3.7000  -16.7758  -50.4437 H         1 UNK         0.1150 
    139 H139        2.3718  -19.9915  -49.1267 H         1 UNK         0.0800 
    140 H140        3.8025  -19.0192  -49.3005 H         1 UNK         0.0800 
    141 H141        0.1862  -17.7728  -48.2118 H         1 UNK         0.0800 
    142 H142        0.3507  -17.6688  -46.4850 H         1 UNK         0.0800 
    143 H143        0.2315  -20.2345  -48.1478 H         1 UNK         0.0600 
    144 H144        1.1881  -19.9689  -45.4554 H         1 UNK         0.3000 
    145 H145        0.2356  -22.4955  -43.9726 H         1 UNK         0.0600 
    146 H146        2.0562  -24.2270  -43.9653 H         1 UNK         0.0600 
    147 H147        0.8544  -24.5052  -45.2145 H         1 UNK         0.0600 
    148 H148        2.4178  -23.8357  -45.6471 H         1 UNK         0.0600 
    149 H149        1.6917  -21.0810  -43.1505 H         1 UNK         0.3000 
    150 H150        5.0485  -20.5608  -43.3643 H         1 UNK         0.0600 
    151 H151        4.6174  -18.9035  -45.1774 H         1 UNK         0.0600 
    152 H152        4.7013  -18.1009  -43.6166 H         1 UNK         0.0600 
    153 H153        3.1392  -18.3868  -44.3780 H         1 UNK         0.0600 
    154 H154        2.9802  -19.0768  -42.0284 H         1 UNK         0.3000 
    155 H155        2.5614  -21.3459  -39.2974 H         1 UNK         0.0600 
    156 H156        3.8061  -18.5561  -39.5697 H         1 UNK         0.0600 
    157 H157        4.5444  -19.9422  -38.7778 H         1 UNK         0.0600 
    158 H158        3.0858  -19.2281  -38.1081 H         1 UNK         0.0600 
    159 H159        1.4766  -18.8052  -40.3399 H         1 UNK         0.3000 
    160 H160       -1.6079  -20.2349  -41.3305 H         1 UNK         0.0600 
    161 H161       -2.6004  -18.6722  -39.6808 H         1 UNK         0.0600 
    162 H162       -1.0686  -18.5726  -38.8117 H         1 UNK         0.0600 
    163 H163       -1.9591  -20.0895  -38.8654 H         1 UNK         0.0600 
    164 H164       -0.6161  -17.5328  -40.9959 H         1 UNK         0.3000 
    165 H165        1.0035  -17.3354  -44.0933 H         1 UNK         0.0600 
    166 H166       -0.5895  -15.5758  -44.7596 H         1 UNK         0.0600 
    167 H167       -1.3622  -17.1397  -44.9188 H         1 UNK         0.0600 
    168 H168       -1.7495  -16.1210  -43.5459 H         1 UNK         0.0600 
    169 H169        0.2829  -15.2046  -42.4101 H         1 UNK         0.3000 
    170 H170        2.2274  -15.4867  -39.7488 H         1 UNK         0.0600 
    171 H171        4.4256  -15.7586  -40.8691 H         1 UNK         0.0600 
    172 H172        4.0068  -14.5180  -42.0433 H         1 UNK         0.0600 
    173 H173        4.1899  -14.1011  -40.3434 H         1 UNK         0.0600 
    174 H174        1.8545  -13.3377  -41.7657 H         1 UNK         0.3000 
    175 H175       -1.2437  -12.3434  -40.4408 H         1 UNK         0.0600 
    176 H176       -0.2153  -10.1407  -39.9432 H         1 UNK         0.0600 
    177 H177        0.1909  -11.2931  -38.6820 H         1 UNK         0.0600 
    178 H178        1.3906  -10.8702  -39.8977 H         1 UNK         0.0600 
    179 H179        0.5429  -11.0132  -42.2167 H         1 UNK         0.3000 
    180 H180       -1.0482  -12.1178  -45.0662 H         1 UNK         0.0600 
    181 H181        1.2756  -10.4003  -44.0245 H         1 UNK         0.0600 
    182 H182       -0.4179   -9.9085  -44.0618 H         1 UNK         0.0600 
    183 H183        0.4390  -10.2218  -45.5593 H         1 UNK         0.0600 
    184 H184        0.5754  -13.2125  -46.0794 H         1 UNK         0.3000 
    185 H185        3.9777  -13.5112  -45.6817 H         1 UNK         0.0600 
    186 H186        2.2881  -16.0185  -45.2812 H         1 UNK         0.0600 
    187 H187        3.9781  -15.9536  -45.7605 H         1 UNK         0.0600 
    188 H188        3.5114  -15.4694  -44.1405 H         1 UNK         0.0600 
    189 H189        2.1095  -14.9332  -47.3679 H         1 UNK         0.3000 
    190 H190       -1.3292  -19.6753  -45.0284 H         1 UNK         0.3000 
    191 H191       -3.9194  -18.9239  -46.0380 H         1 UNK         0.0600 
    192 H192       -3.0677  -20.1484  -43.3590 H         1 UNK         0.0600 
    193 H193       -4.6519  -19.4658  -43.7038 H         1 UNK         0.0600 
    194 H194       -3.2365  -18.4290  -43.7119 H         1 UNK         0.0600 
    195 H195       -2.3492  -22.0343  -45.2925 H         1 UNK         0.3000 
    196 H196       -4.6824  -23.6810  -45.6893 H         1 UNK         0.0600 
    197 H197       -3.0566  -25.5455  -45.6613 H         1 UNK         0.0600 
    198 H198       -2.7358  -24.4412  -44.3335 H         1 UNK         0.0600 
    199 H199       -1.7090  -24.4246  -45.7664 H         1 UNK         0.0600 
    200 H200       -1.9394  -22.6541  -47.7634 H         1 UNK         0.3000 
    201 H201       -2.7213  -23.9942  -50.1357 H         1 UNK         0.0600 
    202 H202       -0.4711  -22.9662  -49.7902 H         1 UNK         0.0600 
    203 H203       -1.1873  -21.3567  -49.8433 H         1 UNK         0.0600 
    204 H204       -1.2232  -22.3821  -51.2683 H         1 UNK         0.0600 
    205 H205       -3.5129  -20.6715  -48.9752 H         1 UNK         0.3000 
    206 H206       -5.1757  -19.8842  -51.0910 H         1 UNK         0.0600 
    207 H207       -4.3119  -18.3170  -49.4035 H         1 UNK         0.0600 
    208 H208       -6.0647  -18.2193  -49.4717 H         1 UNK         0.0600 
    209 H209       -5.2870  -19.0740  -48.1468 H         1 UNK         0.0600 
    210 H210       -6.0750  -21.5072  -48.0079 H         1 UNK         0.3000 
    211 H211       -8.8482  -21.6889  -48.4627 H         1 UNK         0.0600 
    212 H212       -7.0108  -23.4525  -46.7602 H         1 UNK         0.0600 
    213 H213       -8.7649  -23.3949  -46.6314 H         1 UNK         0.0600 
    214 H214       -7.8130  -21.9726  -46.2366 H         1 UNK         0.0600 
    215 H215       -6.2364  -23.8643  -49.5004 H         1 UNK         0.3000 
    216 H216       -7.9580  -25.9773  -50.4750 H         1 UNK         0.0600 
    217 H217       -5.8108  -26.9184  -51.3001 H         1 UNK         0.0600 
    218 H218       -5.6617  -26.3989  -49.6304 H         1 UNK         0.0600 
    219 H219       -4.9841  -25.4101  -50.9221 H         1 UNK         0.0600 
    220 H220       -8.9970  -23.7227  -51.5409 H         1 UNK         0.3000 
    221 H221       -9.7147  -22.6481  -53.3571 H         1 UNK         0.0600 
    222 H222       -8.9693  -25.2246  -54.8438 H         1 UNK         0.0600 
    223 H223      -10.4618  -24.9608  -53.9435 H         1 UNK         0.0600 
    224 H224      -10.1247  -24.0124  -55.3819 H         1 UNK         0.0600 
    225 H225       -7.2335  -21.8536  -52.6379 H         1 UNK         0.3000 
    226 H226       -5.5259  -20.6051  -53.1550 H         1 UNK         0.0600 
    227 H227       -6.3758  -20.5824  -56.0898 H         1 UNK         0.0600 
    228 H228       -5.2868  -19.4608  -55.2951 H         1 UNK         0.0600 
    229 H229       -6.9854  -19.4826  -54.8512 H         1 UNK         0.0600 
    230 H230       -5.7165  -23.7220  -54.2496 H         1 UNK         0.3000 
    231 H231       -4.3729  -25.3590  -54.7120 H         1 UNK         0.0600 
    232 H232       -2.1794  -23.5747  -53.5373 H         1 UNK         0.0600 
    233 H233       -2.0396  -25.3058  -53.8135 H         1 UNK         0.0600 
    234 H234       -3.2159  -24.6964  -52.6609 H         1 UNK         0.0600 
    235 H235       -2.6477  -22.4565  -55.7869 H         1 UNK         0.3000 
    236 H236       -2.4807  -22.9960  -58.5079 H         1 UNK         0.0600 
    237 H237       -0.9228  -24.8794  -58.0698 H         1 UNK         0.0600 
    238 H238       -0.0070  -23.5547  -58.7557 H         1 UNK         0.0600 
    239 H239        0.0719  -23.8651  -57.0260 H         1 UNK         0.0600 
    240 H240       -1.1492  -21.4802  -55.6047 H         1 UNK         0.3000 
    241 H241        0.2254  -19.3512  -56.9483 H         1 UNK         0.0600 
    242 H242       -1.9263  -16.4801  -56.5694 H         1 UNK         0.3800 
    243 H243       -0.2592  -16.9348  -56.3722 H         1 UNK         0.3800 
    244 H244        1.0713  -20.0834  -54.8237 H         1 UNK         0.0800 
    245 H245        0.5678  -18.4381  -54.6640 H         1 UNK         0.0800 
    246 H246       -1.7535  -18.5510  -51.6617 H         1 UNK         0.0800 
    247 H247       -1.4693  -17.6466  -53.1302 H         1 UNK         0.0800 
@<TRIPOS>BOND
     1    1    2 1    
     2    1  127 1    
     3    1  128 1    
     4    1  129 1    
     5    2    3 2    
     6    2    4 am   BACKBONE|DICT|INTERRES
     7    4    5 1    
     8    4  130 1    
     9    5    6 1    
    10    5   65 1    
    11    5  131 1    
    12    6    7 1    
    13    6  132 1    
    14    6  133 1    
    15    7    8 1    
    16    8    9 1    
    17    8  134 1    
    18    8  135 1    
    19    9   10 ar   
    20    9   14 ar   
    21   10   11 ar   
    22   10  136 1    
    23   11   12 ar   
    24   11  126 1    
    25   12   13 ar   
    26   12  137 1    
    27   13   14 ar   
    28   13   15 1    
    29   14  138 1    
    30   15   16 1    
    31   15  139 1    
    32   15  140 1    
    33   16   17 1    
    34   17   18 1    
    35   17  141 1    
    36   17  142 1    
    37   18   19 1    
    38   18   67 1    
    39   18  143 1    
    40   19   20 am   BACKBONE|DICT|INTERRES
    41   19  144 1    
    42   20   21 2    
    43   20   22 1    
    44   22   23 1    
    45   22   24 1    
    46   22  145 1    
    47   23  146 1    
    48   23  147 1    
    49   23  148 1    
    50   24   25 am   BACKBONE|DICT|INTERRES
    51   24  149 1    
    52   25   26 2    
    53   25   27 1    
    54   27   28 1    
    55   27   29 1    
    56   27  150 1    
    57   28  151 1    
    58   28  152 1    
    59   28  153 1    
    60   29   30 am   BACKBONE|DICT|INTERRES
    61   29  154 1    
    62   30   31 2    
    63   30   32 1    
    64   32   33 1    
    65   32   34 1    
    66   32  155 1    
    67   33  156 1    
    68   33  157 1    
    69   33  158 1    
    70   34   35 am   BACKBONE|DICT|INTERRES
    71   34  159 1    
    72   35   36 2    
    73   35   37 1    
    74   37   38 1    
    75   37   39 1    
    76   37  160 1    
    77   38  161 1    
    78   38  162 1    
    79   38  163 1    
    80   39   40 am   BACKBONE|DICT|INTERRES
    81   39  164 1    
    82   40   41 2    
    83   40   42 1    
    84   42   43 1    
    85   42   44 1    
    86   42  165 1    
    87   43  166 1    
    88   43  167 1    
    89   43  168 1    
    90   44   45 am   BACKBONE|DICT|INTERRES
    91   44  169 1    
    92   45   46 2    
    93   45   47 1    
    94   47   48 1    
    95   47   49 1    
    96   47  170 1    
    97   48  171 1    
    98   48  172 1    
    99   48  173 1    
   100   49   50 am   BACKBONE|DICT|INTERRES
   101   49  174 1    
   102   50   51 2    
   103   50   52 1    
   104   52   53 1    
   105   52   54 1    
   106   52  175 1    
   107   53  176 1    
   108   53  177 1    
   109   53  178 1    
   110   54   55 am   BACKBONE|DICT|INTERRES
   111   54  179 1    
   112   55   56 2    
   113   55   57 1    
   114   57   58 1    
   115   57   59 1    
   116   57  180 1    
   117   58  181 1    
   118   58  182 1    
   119   58  183 1    
   120   59   60 am   BACKBONE|DICT|INTERRES
   121   59  184 1    
   122   60   61 2    
   123   60   62 1    
   124   62   63 1    
   125   62   64 1    
   126   62  185 1    
   127   63  186 1    
   128   63  187 1    
   129   63  188 1    
   130   64   65 am   BACKBONE|DICT|INTERRES
   131   64  189 1    
   132   65   66 2    
   133   67   68 2    
   134   67   69 am   BACKBONE|DICT|INTERRES
   135   69   70 1    
   136   69  190 1    
   137   70   71 1    
   138   70   72 1    
   139   70  191 1    
   140   71  192 1    
   141   71  193 1    
   142   71  194 1    
   143   72   73 2    
   144   72   74 am   BACKBONE|DICT|INTERRES
   145   74   75 1    
   146   74  195 1    
   147   75   76 1    
   148   75   77 1    
   149   75  196 1    
   150   76  197 1    
   151   76  198 1    
   152   76  199 1    
   153   77   78 2    
   154   77   79 am   BACKBONE|DICT|INTERRES
   155   79   80 1    
   156   79  200 1    
   157   80   81 1    
   158   80   82 1    
   159   80  201 1    
   160   81  202 1    
   161   81  203 1    
   162   81  204 1    
   163   82   83 2    
   164   82   84 am   BACKBONE|DICT|INTERRES
   165   84   85 1    
   166   84  205 1    
   167   85   86 1    
   168   85   87 1    
   169   85  206 1    
   170   86  207 1    
   171   86  208 1    
   172   86  209 1    
   173   87   88 2    
   174   87   89 am   BACKBONE|DICT|INTERRES
   175   89   90 1    
   176   89  210 1    
   177   90   91 1    
   178   90   92 1    
   179   90  211 1    
   180   91  212 1    
   181   91  213 1    
   182   91  214 1    
   183   92   93 2    
   184   92   94 am   BACKBONE|DICT|INTERRES
   185   94   95 1    
   186   94  215 1    
   187   95   96 1    
   188   95   97 1    
   189   95  216 1    
   190   96  217 1    
   191   96  218 1    
   192   96  219 1    
   193   97   98 2    
   194   97   99 am   BACKBONE|DICT|INTERRES
   195   99  100 1    
   196   99  220 1    
   197  100  101 1    
   198  100  102 1    
   199  100  221 1    
   200  101  222 1    
   201  101  223 1    
   202  101  224 1    
   203  102  103 2    
   204  102  104 am   BACKBONE|DICT|INTERRES
   205  104  105 1    
   206  104  225 1    
   207  105  106 1    
   208  105  107 1    
   209  105  226 1    
   210  106  227 1    
   211  106  228 1    
   212  106  229 1    
   213  107  108 2    
   214  107  109 am   BACKBONE|DICT|INTERRES
   215  109  110 1    
   216  109  230 1    
   217  110  111 1    
   218  110  112 1    
   219  110  231 1    
   220  111  232 1    
   221  111  233 1    
   222  111  234 1    
   223  112  113 2    
   224  112  114 am   BACKBONE|DICT|INTERRES
   225  114  115 1    
   226  114  235 1    
   227  115  116 1    
   228  115  117 1    
   229  115  236 1    
   230  116  237 1    
   231  116  238 1    
   232  116  239 1    
   233  117  118 2    
   234  117  119 am   BACKBONE|DICT|INTERRES
   235  119  120 1    
   236  119  240 1    
   237  120  121 1    
   238  120  124 1    
   239  120  241 1    
   240  121  122 am   BACKBONE|DICT|INTERRES
   241  121  123 2    
   242  122  242 1    
   243  122  243 1    
   244  124  125 1    
   245  124  244 1    
   246  124  245 1    
   247  125  126 1    
   248  126  246 1    
   249  126  247 1    
@<TRIPOS>SUBSTRUCTURE
     1 UNK         1 GROUP             0       ****    0 ROOT    
