@<TRIPOS>MOLECULE
3R540
247   249    1
SMALL
USER_CHARGES


@<TRIPOS>ATOM
      1 CA         -3.0173  -11.5839  -46.8933 C.3       0 UNK        -0.1800 
      2 C          -1.7106  -11.2471  -46.1884 C.2       0 UNK         0.5000 
      3 O          -1.6867  -10.3694  -45.3251 O.2       0 UNK        -0.5000 
      4 N          -0.6256  -11.9355  -46.5610 N.am      1 UNK        -0.5000 
      5 CA          0.6973  -11.8331  -45.9433 C.3       1 UNK         0.1400 
      6 C6          1.7990  -12.4842  -46.8182 C.3       23 UNK        -0.0398 
      7 S7          1.5138  -14.2464  -47.2024 S.3       23 UNK        -0.2404 
      8 C8          1.0799  -14.1779  -48.9698 C.3       23 UNK        -0.0205 
      9 C9          0.7247  -15.5496  -49.5310 C.ar      23 UNK        -0.0193 
     10 C10        -0.4862  -15.7526  -50.2040 C.ar      23 UNK        -0.1150 
     11 C11        -0.7908  -16.9955  -50.7722 C.ar      23 UNK        -0.0193 
     12 C12         0.1399  -18.0338  -50.6626 C.ar      23 UNK        -0.1150 
     13 C13         1.3301  -17.8634  -49.9511 C.ar      23 UNK        -0.0193 
     14 C14         1.6233  -16.6129  -49.4050 C.ar      23 UNK        -0.1150 
     15 C15         2.2991  -19.0246  -49.7576 C.3       23 UNK        -0.0205 
     16 S16         1.4737  -20.5916  -49.3123 S.3       23 UNK        -0.2404 
     17 C17         0.5063  -20.0891  -47.8476 C.3       23 UNK        -0.0398 
     18 CA         -0.3289  -21.2532  -47.2695 C.3       11 UNK         0.1400 
     19 N          -0.6598  -21.0301  -45.8639 N.am      11 UNK        -0.5000 
     20 C          -1.1664  -21.9598  -45.0444 C.2       10 UNK         0.5000 
     21 O          -1.3854  -23.1240  -45.3792 O.2       10 UNK        -0.5000 
     22 CA         -1.5263  -21.4940  -43.6248 C.3       10 UNK         0.1400 
     23 CB         -0.2779  -21.4484  -42.7314 C.3       10 UNK        -0.1800 
     24 N          -2.1724  -20.1817  -43.6336 N.am      10 UNK        -0.5000 
     25 C          -3.4121  -19.9571  -44.0897 C.2       9 UNK         0.5000 
     26 O          -4.1495  -20.8389  -44.5311 O.2       9 UNK        -0.5000 
     27 CA         -3.8923  -18.4939  -44.0817 C.3       9 UNK         0.1400 
     28 CB         -4.3572  -18.0811  -42.6771 C.3       9 UNK        -0.1800 
     29 N          -2.8719  -17.5546  -44.5525 N.am      9 UNK        -0.5000 
     30 C          -2.3889  -17.5356  -45.8025 C.2       8 UNK         0.5000 
     31 O          -2.7422  -18.3145  -46.6824 O.2       8 UNK        -0.5000 
     32 CA         -1.3069  -16.4928  -46.1240 C.3       8 UNK         0.1400 
     33 CB         -1.9770  -15.1486  -46.4436 C.3       8 UNK        -0.1800 
     34 N          -0.2891  -16.3241  -45.0782 N.am      8 UNK        -0.5000 
     35 C           0.4342  -17.3236  -44.5502 C.2       7 UNK         0.5000 
     36 O           0.2729  -18.5101  -44.8457 O.2       7 UNK        -0.5000 
     37 CA          1.4977  -16.9316  -43.5062 C.3       7 UNK         0.1400 
     38 CB          1.8947  -18.1260  -42.6082 C.3       7 UNK        -0.1800 
     39 N           2.6924  -16.3217  -44.1022 N.am      7 UNK        -0.5000 
     40 C           3.5359  -16.8834  -44.9853 C.2       6 UNK         0.5000 
     41 O           3.3762  -18.0091  -45.4582 O.2       6 UNK        -0.5000 
     42 CA          4.8018  -16.1021  -45.3945 C.3       6 UNK         0.1400 
     43 CB          4.8557  -15.8577  -46.9184 C.3       6 UNK        -0.1800 
     44 N           5.0123  -14.8500  -44.6572 N.am      6 UNK        -0.5000 
     45 C           6.1783  -14.1902  -44.6155 C.2       5 UNK         0.5000 
     46 O           7.2116  -14.5820  -45.1598 O.2       5 UNK        -0.5000 
     47 CA          6.2028  -12.8757  -43.8215 C.3       5 UNK         0.1400 
     48 CB          5.2428  -11.8306  -44.4166 C.3       5 UNK        -0.1800 
     49 N           5.8747  -13.1105  -42.4182 N.am      5 UNK        -0.5000 
     50 C           6.7692  -13.4353  -41.4737 C.2       4 UNK         0.5000 
     51 O           7.9747  -13.5630  -41.6919 O.2       4 UNK        -0.5000 
     52 CA          6.2469  -13.6276  -40.0355 C.3       4 UNK         0.1400 
     53 CB          6.5577  -12.3862  -39.1846 C.3       4 UNK        -0.1800 
     54 N           4.8086  -13.8858  -39.9760 N.am      4 UNK        -0.5000 
     55 C           4.2362  -15.0690  -40.2326 C.2       3 UNK         0.5000 
     56 O           4.8640  -16.0941  -40.4973 O.2       3 UNK        -0.5000 
     57 CA          2.6958  -15.0978  -40.2223 C.3       3 UNK         0.1400 
     58 CB          2.1697  -15.4151  -38.8149 C.3       3 UNK        -0.1800 
     59 N           2.0748  -13.8601  -40.7045 N.am      3 UNK        -0.5000 
     60 C           2.2487  -13.3315  -41.9227 C.2       2 UNK         0.5000 
     61 O           2.9832  -13.8233  -42.7858 O.2       2 UNK        -0.5000 
     62 CA          1.5289  -11.9974  -42.1853 C.3       2 UNK         0.1400 
     63 CB          2.2942  -10.8488  -41.5082 C.3       2 UNK        -0.1800 
     64 N           1.3966  -11.6841  -43.6074 N.am      2 UNK        -0.5000 
     65 C           0.6915  -12.3890  -44.5011 C.2       1 UNK         0.5000 
     66 O           0.0671  -13.4216  -44.2334 O.2       1 UNK        -0.5000 
     67 C          -1.5878  -21.5655  -48.1097 C.2       11 UNK         0.5000 
     68 O          -1.5599  -22.5039  -48.9037 O.2       11 UNK        -0.5000 
     69 N          -2.6903  -20.8377  -47.8729 N.am      12 UNK        -0.5000 
     70 CA         -3.9974  -21.0887  -48.4814 C.3       12 UNK         0.1400 
     71 CB         -4.9810  -19.9649  -48.1269 C.3       12 UNK        -0.1800 
     72 C          -4.5829  -22.4542  -48.0910 C.2       12 UNK         0.5000 
     73 O          -5.1252  -23.1392  -48.9575 O.2       12 UNK        -0.5000 
     74 N          -4.4410  -22.8439  -46.8157 N.am      13 UNK        -0.5000 
     75 CA         -4.8451  -24.1565  -46.3084 C.3       13 UNK         0.1400 
     76 CB         -4.7307  -24.1878  -44.7773 C.3       13 UNK        -0.1800 
     77 C          -4.0457  -25.3046  -46.9517 C.2       13 UNK         0.5000 
     78 O          -4.6454  -26.2907  -47.3819 O.2       13 UNK        -0.5000 
     79 N          -2.7204  -25.1306  -47.0668 N.am      14 UNK        -0.5000 
     80 CA         -1.8161  -26.0450  -47.7725 C.3       14 UNK         0.1400 
     81 CB         -0.3620  -25.6094  -47.5384 C.3       14 UNK        -0.1800 
     82 C          -2.1238  -26.1475  -49.2807 C.2       14 UNK         0.5000 
     83 O          -2.0090  -27.2295  -49.8562 O.2       14 UNK        -0.5000 
     84 N          -2.5673  -25.0328  -49.8744 N.am      15 UNK        -0.5000 
     85 CA         -3.0601  -24.9132  -51.2464 C.3       15 UNK         0.1400 
     86 CB         -2.8790  -23.4558  -51.7063 C.3       15 UNK        -0.1800 
     87 C          -4.5204  -25.3859  -51.4316 C.2       15 UNK         0.5000 
     88 O          -5.1140  -25.0792  -52.4652 O.2       15 UNK        -0.5000 
     89 N          -5.0820  -26.1071  -50.4485 N.am      16 UNK        -0.5000 
     90 CA         -6.4169  -26.7158  -50.4424 C.3       16 UNK         0.1400 
     91 CB         -6.5102  -27.8338  -51.5023 C.3       16 UNK        -0.1800 
     92 C          -7.5473  -25.6736  -50.5573 C.2       16 UNK         0.5000 
     93 O          -8.4299  -25.8016  -51.4071 O.2       16 UNK        -0.5000 
     94 N          -7.4744  -24.6525  -49.6928 N.am      17 UNK        -0.5000 
     95 CA         -8.3285  -23.4614  -49.6429 C.3       17 UNK         0.1400 
     96 CB         -9.8105  -23.8220  -49.4044 C.3       17 UNK        -0.1800 
     97 C          -8.0961  -22.5490  -50.8634 C.2       17 UNK         0.5000 
     98 O          -9.0511  -22.0679  -51.4760 O.2       17 UNK        -0.5000 
     99 N          -6.8090  -22.3322  -51.1733 N.am      18 UNK        -0.5000 
    100 CA        -6.2753  -21.4941  -52.2503 C.3       18 UNK         0.1400 
    101 CB        -6.5294  -20.0024  -51.9477 C.3       18 UNK        -0.1800 
    102 C         -6.7549  -21.9187  -53.6549 C.2       18 UNK         0.5000 
    103 O         -7.1112  -21.0697  -54.4752 O.2       18 UNK        -0.5000 
    104 N         -6.7415  -23.2307  -53.9214 N.am      19 UNK        -0.5000 
    105 CA        -7.1386  -23.8406  -55.1896 C.3       19 UNK         0.1400 
    106 CB        -7.5484  -25.3011  -54.9307 C.3       19 UNK        -0.1800 
    107 C         -6.0095  -23.7166  -56.2313 C.2       19 UNK         0.5000 
    108 O         -5.3525  -24.7063  -56.5578 O.2       19 UNK        -0.5000 
    109 N         -5.7661  -22.4794  -56.6873 N.am      20 UNK        -0.5000 
    110 CA        -4.7569  -22.0184  -57.6558 C.3       20 UNK         0.1400 
    111 CB        -4.9239  -22.7146  -59.0194 C.3       20 UNK        -0.1800 
    112 C         -3.2966  -22.1053  -57.1642 C.2       20 UNK         0.5000 
    113 O         -2.4948  -21.2304  -57.4958 O.2       20 UNK        -0.5000 
    114 N         -2.9815  -23.1155  -56.3440 N.am      21 UNK        -0.5000 
    115 CA        -1.6717  -23.3854  -55.7421 C.3       21 UNK         0.1400 
    116 CB        -1.7254  -24.7558  -55.0470 C.3       21 UNK        -0.1800 
    117 C         -1.1532  -22.2870  -54.7867 C.2       21 UNK         0.5000 
    118 O          0.0269  -22.3056  -54.4356 O.2       21 UNK        -0.5000 
    119 N         -2.0236  -21.3398  -54.4098 N.am      22 UNK        -0.5000 
    120 CA        -1.6627  -20.0842  -53.7303 C.3       22 UNK         0.1400 
    121 C         -0.8085  -19.1212  -54.6130 C.2       22 UNK         0.5000 
    122 N         -0.8308  -19.2373  -55.9375 N.am      22 UNK        -0.7600 
    123 O         -0.1095  -18.2591  -54.0919 O.2       22 UNK        -0.5000 
    124 C124       -2.9247  -19.3584  -53.1748 C.3       23 UNK        -0.0398 
    125 S125       -2.7946  -18.8800  -51.4177 S.3       23 UNK        -0.2404 
    126 C126       -2.1100  -17.1847  -51.5227 C.3       23 UNK        -0.0205 
    127 H127       -3.7377  -11.9786  -46.1769 H         1 UNK         0.0600 
    128 H128       -2.8755  -12.3280  -47.6775 H         1 UNK         0.0600 
    129 H129       -3.4413  -10.6885  -47.3479 H         1 UNK         0.0600 
    130 H130       -0.7168  -12.6665  -47.2493 H         1 UNK         0.3000 
    131 H131        0.9305  -10.7677  -45.8822 H         1 UNK         0.0600 
    132 H132        2.7716  -12.3987  -46.3317 H         1 UNK         0.0800 
    133 H133        1.8961  -11.9268  -47.7507 H         1 UNK         0.0800 
    134 H134        0.2532  -13.4804  -49.1102 H         1 UNK         0.0800 
    135 H135        1.9254  -13.7780  -49.5311 H         1 UNK         0.0800 
    136 H136       -1.1876  -14.9360  -50.3019 H         1 UNK         0.1150 
    137 H137       -0.0678  -18.9933  -51.1116 H         1 UNK         0.1150 
    138 H138        2.5522  -16.4638  -48.8737 H         1 UNK         0.1150 
    139 H139        2.8627  -19.1703  -50.6798 H         1 UNK         0.0800 
    140 H140        3.0274  -18.7883  -48.9799 H         1 UNK         0.0800 
    141 H141       -0.1327  -19.2359  -48.0809 H         1 UNK         0.0800 
    142 H142        1.2214  -19.7340  -47.1034 H         1 UNK         0.0800 
    143 H143        0.2963  -22.1487  -47.2898 H         1 UNK         0.0600 
    144 H144       -0.4752  -20.0994  -45.4955 H         1 UNK         0.3000 
    145 H145       -2.2238  -22.2184  -43.1989 H         1 UNK         0.0600 
    146 H146       -0.5293  -21.1459  -41.7148 H         1 UNK         0.0600 
    147 H147        0.1929  -22.4305  -42.6720 H         1 UNK         0.0600 
    148 H148        0.4674  -20.7518  -43.1157 H         1 UNK         0.0600 
    149 H149       -1.6081  -19.3936  -43.3526 H         1 UNK         0.3000 
    150 H150       -4.7483  -18.4246  -44.7564 H         1 UNK         0.0600 
    151 H151       -5.1288  -18.7578  -42.3074 H         1 UNK         0.0600 
    152 H152       -4.7826  -17.0773  -42.6821 H         1 UNK         0.0600 
    153 H153       -3.5367  -18.0947  -41.9587 H         1 UNK         0.0600 
    154 H154       -2.5213  -16.8808  -43.8880 H         1 UNK         0.3000 
    155 H155       -0.7901  -16.8343  -47.0237 H         1 UNK         0.0600 
    156 H156       -2.3217  -14.6406  -45.5423 H         1 UNK         0.0600 
    157 H157       -1.2904  -14.4894  -46.9645 H         1 UNK         0.0600 
    158 H158       -2.8383  -15.2791  -47.1007 H         1 UNK         0.0600 
    159 H159       -0.0929  -15.3682  -44.7947 H         1 UNK         0.3000 
    160 H160        1.0484  -16.1701  -42.8675 H         1 UNK         0.0600 
    161 H161        2.2593  -18.9720  -43.1917 H         1 UNK         0.0600 
    162 H162        1.0404  -18.4750  -42.0274 H         1 UNK         0.0600 
    163 H163        2.6840  -17.8623  -41.9059 H         1 UNK         0.0600 
    164 H164        2.8794  -15.3823  -43.7685 H         1 UNK         0.3000 
    165 H165        5.6283  -16.7691  -45.1405 H         1 UNK         0.0600 
    166 H166        5.8672  -15.6189  -47.2456 H         1 UNK         0.0600 
    167 H167        4.5459  -16.7396  -47.4800 H         1 UNK         0.0600 
    168 H168        4.2145  -15.0314  -47.2170 H         1 UNK         0.0600 
    169 H169        4.2272  -14.4716  -44.1393 H         1 UNK         0.3000 
    170 H170        7.2116  -12.4628  -43.8924 H         1 UNK         0.0600 
    171 H171        4.2026  -12.1465  -44.3629 H         1 UNK         0.0600 
    172 H172        5.3275  -10.8789  -43.8919 H         1 UNK         0.0600 
    173 H173        5.4738  -11.6444  -45.4661 H         1 UNK         0.0600 
    174 H174        4.8923  -13.1116  -42.1803 H         1 UNK         0.3000 
    175 H175        6.7772  -14.4787  -39.6026 H         1 UNK         0.0600 
    176 H176        6.2485  -12.5300  -38.1491 H         1 UNK         0.0600 
    177 H177        6.0519  -11.4987  -39.5670 H         1 UNK         0.0600 
    178 H178        7.6280  -12.1757  -39.1759 H         1 UNK         0.0600 
    179 H179        4.2140  -13.1006  -39.7557 H         1 UNK         0.3000 
    180 H180        2.3793  -15.8988  -40.8862 H         1 UNK         0.0600 
    181 H181        2.4217  -14.6279  -38.1033 H         1 UNK         0.0600 
    182 H182        2.5962  -16.3463  -38.4393 H         1 UNK         0.0600 
    183 H183        1.0860  -15.5338  -38.8160 H         1 UNK         0.0600 
    184 H184        1.4677  -13.3858  -40.0513 H         1 UNK         0.3000 
    185 H185        0.5253  -12.0585  -41.7595 H         1 UNK         0.0600 
    186 H186        2.3789  -11.0068  -40.4324 H         1 UNK         0.0600 
    187 H187        3.3055  -10.7492  -41.9056 H         1 UNK         0.0600 
    188 H188        1.7833   -9.8963  -41.6514 H         1 UNK         0.0600 
    189 H189        1.8863  -10.8589  -43.9195 H         1 UNK         0.3000 
    190 H190       -2.6363  -20.0339  -47.2505 H         1 UNK         0.3000 
    191 H191       -3.8651  -21.0816  -49.5638 H         1 UNK         0.0600 
    192 H192       -4.6430  -19.0089  -48.5274 H         1 UNK         0.0600 
    193 H193       -5.9687  -20.1604  -48.5461 H         1 UNK         0.0600 
    194 H194       -5.0973  -19.8563  -47.0482 H         1 UNK         0.0600 
    195 H195       -4.0270  -22.2029  -46.1481 H         1 UNK         0.3000 
    196 H196       -5.8960  -24.3011  -46.5674 H         1 UNK         0.0600 
    197 H197       -5.0562  -25.1507  -44.3819 H         1 UNK         0.0600 
    198 H198       -5.3564  -23.4207  -44.3207 H         1 UNK         0.0600 
    199 H199       -3.7068  -24.0254  -44.4422 H         1 UNK         0.0600 
    200 H200       -2.2987  -24.3052  -46.6496 H         1 UNK         0.3000 
    201 H201       -1.9469  -27.0392  -47.3406 H         1 UNK         0.0600 
    202 H202       -0.1221  -25.5917  -46.4751 H         1 UNK         0.0600 
    203 H203       -0.1690  -24.6147  -47.9403 H         1 UNK         0.0600 
    204 H204        0.3340  -26.2982  -48.0186 H         1 UNK         0.0600 
    205 H205       -2.5512  -24.1715  -49.3369 H         1 UNK         0.3000 
    206 H206       -2.4459  -25.5451  -51.8906 H         1 UNK         0.0600 
    207 H207       -3.4120  -22.7651  -51.0569 H         1 UNK         0.0600 
    208 H208       -1.8272  -23.1691  -51.7018 H         1 UNK         0.0600 
    209 H209       -3.2528  -23.2994  -52.7172 H         1 UNK         0.0600 
    210 H210       -4.5409  -26.2547  -49.6059 H         1 UNK         0.3000 
    211 H211       -6.5334  -27.1843  -49.4640 H         1 UNK         0.0600 
    212 H212       -6.4374  -27.4408  -52.5167 H         1 UNK         0.0600 
    213 H213       -7.4596  -28.3649  -51.4260 H         1 UNK         0.0600 
    214 H214       -5.7161  -28.5686  -51.3700 H         1 UNK         0.0600 
    215 H215       -6.6470  -24.5992  -49.1102 H         1 UNK         0.3000 
    216 H216       -7.9947  -22.8909  -48.7749 H         1 UNK         0.0600 
    217 H217      -10.3999  -22.9249  -49.2117 H         1 UNK         0.0600 
    218 H218       -9.9231  -24.4760  -48.5399 H         1 UNK         0.0600 
    219 H219      -10.2559  -24.3213  -50.2649 H         1 UNK         0.0600 
    220 H220       -6.1177  -22.7784  -50.5773 H         1 UNK         0.3000 
    221 H221       -5.1971  -21.6490  -52.2448 H         1 UNK         0.0600 
    222 H222       -7.5942  -19.7699  -51.9207 H         1 UNK         0.0600 
    223 H223       -6.0770  -19.3610  -52.7046 H         1 UNK         0.0600 
    224 H224       -6.0984  -19.7168  -50.9887 H         1 UNK         0.0600 
    225 H225       -6.3525  -23.8699  -53.2315 H         1 UNK         0.3000 
    226 H226       -8.0130  -23.3168  -55.5813 H         1 UNK         0.0600 
    227 H227       -8.3759  -25.3574  -54.2232 H         1 UNK         0.0600 
    228 H228       -7.8735  -25.7854  -55.8521 H         1 UNK         0.0600 
    229 H229       -6.7235  -25.8870  -54.5239 H         1 UNK         0.0600 
    230 H230       -6.3217  -21.7397  -56.2688 H         1 UNK         0.3000 
    231 H231       -4.9645  -20.9578  -57.8062 H         1 UNK         0.0600 
    232 H232       -4.6991  -23.7801  -58.9656 H         1 UNK         0.0600 
    233 H233       -4.2528  -22.2798  -59.7612 H         1 UNK         0.0600 
    234 H234       -5.9404  -22.6040  -59.3970 H         1 UNK         0.0600 
    235 H235       -3.7081  -23.8057  -56.1765 H         1 UNK         0.3000 
    236 H236       -0.9465  -23.4503  -56.5556 H         1 UNK         0.0600 
    237 H237       -1.8704  -25.5547  -55.7743 H         1 UNK         0.0600 
    238 H238       -0.7989  -24.9701  -54.5126 H         1 UNK         0.0600 
    239 H239       -2.5435  -24.8142  -54.3302 H         1 UNK         0.0600 
    240 H240       -2.9628  -21.4047  -54.7695 H         1 UNK         0.3000 
    241 H241       -1.0268  -20.3704  -52.8903 H         1 UNK         0.0600 
    242 H242       -1.3964  -19.9418  -56.3990 H         1 UNK         0.3800 
    243 H243       -0.2702  -18.6113  -56.4934 H         1 UNK         0.3800 
    244 H244       -3.2061  -18.4905  -53.7744 H         1 UNK         0.0800 
    245 H245       -3.7890  -20.0176  -53.2350 H         1 UNK         0.0800 
    246 H246       -1.9539  -16.8992  -52.5629 H         1 UNK         0.0800 
    247 H247       -2.8608  -16.4994  -51.1267 H         1 UNK         0.0800 
@<TRIPOS>BOND
     1    1    2 1    
     2    1  127 1    
     3    1  128 1    
     4    1  129 1    
     5    2    3 2    
     6    2    4 am   BACKBONE|DICT|INTERRES
     7    4    5 1    
     8    4  130 1    
     9    5    6 1    
    10    5   65 1    
    11    5  131 1    
    12    6    7 1    
    13    6  132 1    
    14    6  133 1    
    15    7    8 1    
    16    8    9 1    
    17    8  134 1    
    18    8  135 1    
    19    9   10 ar   
    20    9   14 ar   
    21   10   11 ar   
    22   10  136 1    
    23   11   12 ar   
    24   11  126 1    
    25   12   13 ar   
    26   12  137 1    
    27   13   14 ar   
    28   13   15 1    
    29   14  138 1    
    30   15   16 1    
    31   15  139 1    
    32   15  140 1    
    33   16   17 1    
    34   17   18 1    
    35   17  141 1    
    36   17  142 1    
    37   18   19 1    
    38   18   67 1    
    39   18  143 1    
    40   19   20 am   BACKBONE|DICT|INTERRES
    41   19  144 1    
    42   20   21 2    
    43   20   22 1    
    44   22   23 1    
    45   22   24 1    
    46   22  145 1    
    47   23  146 1    
    48   23  147 1    
    49   23  148 1    
    50   24   25 am   BACKBONE|DICT|INTERRES
    51   24  149 1    
    52   25   26 2    
    53   25   27 1    
    54   27   28 1    
    55   27   29 1    
    56   27  150 1    
    57   28  151 1    
    58   28  152 1    
    59   28  153 1    
    60   29   30 am   BACKBONE|DICT|INTERRES
    61   29  154 1    
    62   30   31 2    
    63   30   32 1    
    64   32   33 1    
    65   32   34 1    
    66   32  155 1    
    67   33  156 1    
    68   33  157 1    
    69   33  158 1    
    70   34   35 am   BACKBONE|DICT|INTERRES
    71   34  159 1    
    72   35   36 2    
    73   35   37 1    
    74   37   38 1    
    75   37   39 1    
    76   37  160 1    
    77   38  161 1    
    78   38  162 1    
    79   38  163 1    
    80   39   40 am   BACKBONE|DICT|INTERRES
    81   39  164 1    
    82   40   41 2    
    83   40   42 1    
    84   42   43 1    
    85   42   44 1    
    86   42  165 1    
    87   43  166 1    
    88   43  167 1    
    89   43  168 1    
    90   44   45 am   BACKBONE|DICT|INTERRES
    91   44  169 1    
    92   45   46 2    
    93   45   47 1    
    94   47   48 1    
    95   47   49 1    
    96   47  170 1    
    97   48  171 1    
    98   48  172 1    
    99   48  173 1    
   100   49   50 am   BACKBONE|DICT|INTERRES
   101   49  174 1    
   102   50   51 2    
   103   50   52 1    
   104   52   53 1    
   105   52   54 1    
   106   52  175 1    
   107   53  176 1    
   108   53  177 1    
   109   53  178 1    
   110   54   55 am   BACKBONE|DICT|INTERRES
   111   54  179 1    
   112   55   56 2    
   113   55   57 1    
   114   57   58 1    
   115   57   59 1    
   116   57  180 1    
   117   58  181 1    
   118   58  182 1    
   119   58  183 1    
   120   59   60 am   BACKBONE|DICT|INTERRES
   121   59  184 1    
   122   60   61 2    
   123   60   62 1    
   124   62   63 1    
   125   62   64 1    
   126   62  185 1    
   127   63  186 1    
   128   63  187 1    
   129   63  188 1    
   130   64   65 am   BACKBONE|DICT|INTERRES
   131   64  189 1    
   132   65   66 2    
   133   67   68 2    
   134   67   69 am   BACKBONE|DICT|INTERRES
   135   69   70 1    
   136   69  190 1    
   137   70   71 1    
   138   70   72 1    
   139   70  191 1    
   140   71  192 1    
   141   71  193 1    
   142   71  194 1    
   143   72   73 2    
   144   72   74 am   BACKBONE|DICT|INTERRES
   145   74   75 1    
   146   74  195 1    
   147   75   76 1    
   148   75   77 1    
   149   75  196 1    
   150   76  197 1    
   151   76  198 1    
   152   76  199 1    
   153   77   78 2    
   154   77   79 am   BACKBONE|DICT|INTERRES
   155   79   80 1    
   156   79  200 1    
   157   80   81 1    
   158   80   82 1    
   159   80  201 1    
   160   81  202 1    
   161   81  203 1    
   162   81  204 1    
   163   82   83 2    
   164   82   84 am   BACKBONE|DICT|INTERRES
   165   84   85 1    
   166   84  205 1    
   167   85   86 1    
   168   85   87 1    
   169   85  206 1    
   170   86  207 1    
   171   86  208 1    
   172   86  209 1    
   173   87   88 2    
   174   87   89 am   BACKBONE|DICT|INTERRES
   175   89   90 1    
   176   89  210 1    
   177   90   91 1    
   178   90   92 1    
   179   90  211 1    
   180   91  212 1    
   181   91  213 1    
   182   91  214 1    
   183   92   93 2    
   184   92   94 am   BACKBONE|DICT|INTERRES
   185   94   95 1    
   186   94  215 1    
   187   95   96 1    
   188   95   97 1    
   189   95  216 1    
   190   96  217 1    
   191   96  218 1    
   192   96  219 1    
   193   97   98 2    
   194   97   99 am   BACKBONE|DICT|INTERRES
   195   99  100 1    
   196   99  220 1    
   197  100  101 1    
   198  100  102 1    
   199  100  221 1    
   200  101  222 1    
   201  101  223 1    
   202  101  224 1    
   203  102  103 2    
   204  102  104 am   BACKBONE|DICT|INTERRES
   205  104  105 1    
   206  104  225 1    
   207  105  106 1    
   208  105  107 1    
   209  105  226 1    
   210  106  227 1    
   211  106  228 1    
   212  106  229 1    
   213  107  108 2    
   214  107  109 am   BACKBONE|DICT|INTERRES
   215  109  110 1    
   216  109  230 1    
   217  110  111 1    
   218  110  112 1    
   219  110  231 1    
   220  111  232 1    
   221  111  233 1    
   222  111  234 1    
   223  112  113 2    
   224  112  114 am   BACKBONE|DICT|INTERRES
   225  114  115 1    
   226  114  235 1    
   227  115  116 1    
   228  115  117 1    
   229  115  236 1    
   230  116  237 1    
   231  116  238 1    
   232  116  239 1    
   233  117  118 2    
   234  117  119 am   BACKBONE|DICT|INTERRES
   235  119  120 1    
   236  119  240 1    
   237  120  121 1    
   238  120  124 1    
   239  120  241 1    
   240  121  122 am   BACKBONE|DICT|INTERRES
   241  121  123 2    
   242  122  242 1    
   243  122  243 1    
   244  124  125 1    
   245  124  244 1    
   246  124  245 1    
   247  125  126 1    
   248  126  246 1    
   249  126  247 1    
@<TRIPOS>SUBSTRUCTURE
     1 UNK         1 GROUP             0       ****    0 ROOT    
