@<TRIPOS>MOLECULE
3R540
247   249    1
SMALL
USER_CHARGES


@<TRIPOS>ATOM
      1 CA          3.0254  -16.6786  -47.0883 C.3       0 UNK        -0.1800 
      2 C           2.4115  -15.5154  -47.8516 C.2       0 UNK         0.5000 
      3 O           3.0794  -14.5021  -48.0618 O.2       0 UNK        -0.5000 
      4 N           1.1436  -15.6584  -48.2573 N.am      1 UNK        -0.5000 
      5 CA          0.3294  -14.7144  -49.0332 C.3       1 UNK         0.1400 
      6 C6          0.8738  -14.4771  -50.4704 C.3       23 UNK        -0.0398 
      7 S7         -0.4404  -13.9669  -51.6328 S.3       23 UNK        -0.2404 
      8 C8         -0.8484  -15.5399  -52.4593 C.3       23 UNK        -0.0205 
      9 C9         -1.2603  -16.6135  -51.4644 C.ar      23 UNK        -0.0193 
     10 C10        -2.5120  -16.5561  -50.8425 C.ar      23 UNK        -0.1150 
     11 C11        -2.8782  -17.5246  -49.9041 C.ar      23 UNK        -0.0193 
     12 C12        -1.9938  -18.5632  -49.6101 C.ar      23 UNK        -0.1150 
     13 C13        -0.7437  -18.6336  -50.2259 C.ar      23 UNK        -0.0193 
     14 C14        -0.3791  -17.6539  -51.1514 C.ar      23 UNK        -0.1150 
     15 C15         0.1892  -19.7856  -49.9014 C.3       23 UNK        -0.0205 
     16 S16         0.7570  -19.6993  -48.1772 S.3       23 UNK        -0.2404 
     17 C17         1.4199  -21.3780  -47.9362 C.3       23 UNK        -0.0398 
     18 CA          0.4848  -22.3650  -47.1929 C.3       11 UNK         0.1400 
     19 N           0.2136  -22.0030  -45.7957 N.am      11 UNK        -0.5000 
     20 C          -0.1978  -22.8992  -44.8844 C.2       10 UNK         0.5000 
     21 O          -0.3874  -24.0877  -45.1424 O.2       10 UNK        -0.5000 
     22 CA         -0.4818  -22.4001  -43.4583 C.3       10 UNK         0.1400 
     23 CB          0.8234  -22.1311  -42.6947 C.3       10 UNK        -0.1800 
     24 N          -1.3426  -21.2200  -43.4276 N.am      10 UNK        -0.5000 
     25 C          -2.6095  -21.1946  -43.8656 C.2       9 UNK         0.5000 
     26 O          -3.1908  -22.1733  -44.3342 O.2       9 UNK        -0.5000 
     27 CA         -3.3410  -19.8409  -43.8054 C.3       9 UNK         0.1400 
     28 CB         -3.8864  -19.5755  -42.3946 C.3       9 UNK        -0.1800 
     29 N          -2.4962  -18.7235  -44.2276 N.am      9 UNK        -0.5000 
     30 C          -1.9733  -18.6024  -45.4558 C.2       8 UNK         0.5000 
     31 O          -2.1971  -19.3948  -46.3683 O.2       8 UNK        -0.5000 
     32 CA         -0.9932  -17.4385  -45.6851 C.3       8 UNK         0.1400 
     33 CB         -1.7397  -16.1116  -45.8805 C.3       8 UNK        -0.1800 
     34 N          -0.0212  -17.3055  -44.6000 N.am      8 UNK        -0.5000 
     35 C           0.8659  -18.2490  -44.2488 C.2       7 UNK         0.5000 
     36 O           1.0095  -19.3173  -44.8423 O.2       7 UNK        -0.5000 
     37 CA          1.6965  -17.9746  -42.9848 C.3       7 UNK         0.1400 
     38 CB          2.8809  -17.0449  -43.2887 C.3       7 UNK        -0.1800 
     39 N           0.8782  -17.4116  -41.9104 N.am      7 UNK        -0.5000 
     40 C          -0.0686  -18.0950  -41.2504 C.2       6 UNK         0.5000 
     41 O          -0.3240  -19.2804  -41.4557 O.2       6 UNK        -0.5000 
     42 CA         -0.8946  -17.3126  -40.2140 C.3       6 UNK         0.1400 
     43 CB         -0.1608  -17.2582  -38.8660 C.3       6 UNK        -0.1800 
     44 N          -1.2006  -15.9520  -40.6551 N.am      6 UNK        -0.5000 
     45 C          -1.9991  -15.6501  -41.6889 C.2       5 UNK         0.5000 
     46 O          -2.6012  -16.4892  -42.3573 O.2       5 UNK        -0.5000 
     47 CA         -2.0896  -14.1612  -42.0711 C.3       5 UNK         0.1400 
     48 CB         -3.1601  -13.4486  -41.2316 C.3       5 UNK        -0.1800 
     49 N          -0.8071  -13.4658  -41.9241 N.am      5 UNK        -0.5000 
     50 C           0.2812  -13.7458  -42.6511 C.2       4 UNK         0.5000 
     51 O           0.3107  -14.6054  -43.5369 O.2       4 UNK        -0.5000 
     52 CA          1.5624  -12.9819  -42.3013 C.3       4 UNK         0.1400 
     53 CB          2.3284  -13.7039  -41.1759 C.3       4 UNK        -0.1800 
     54 N           2.3641  -12.9027  -43.5146 N.am      4 UNK        -0.5000 
     55 C           3.4517  -12.1512  -43.7123 C.2       3 UNK         0.5000 
     56 O           3.9850  -11.4615  -42.8424 O.2       3 UNK        -0.5000 
     57 CA          4.0131  -12.1426  -45.1473 C.3       3 UNK         0.1400 
     58 CB          4.9299  -13.3543  -45.3739 C.3       3 UNK        -0.1800 
     59 N           2.9621  -12.1284  -46.1713 N.am      3 UNK        -0.5000 
     60 C           2.0896  -11.1210  -46.3490 C.2       2 UNK         0.5000 
     61 O           2.1024  -10.0910  -45.6734 O.2       2 UNK        -0.5000 
     62 CA          1.0252  -11.2642  -47.4527 C.3       2 UNK         0.1400 
     63 CB          1.1972  -10.1801  -48.5302 C.3       2 UNK        -0.1800 
     64 N           1.0710  -12.5734  -48.0981 N.am      2 UNK        -0.5000 
     65 C           0.0346  -13.3958  -48.2846 C.2       1 UNK         0.5000 
     66 O          -1.1100  -13.1560  -47.8987 O.2       1 UNK        -0.5000 
     67 C          -0.7994  -22.7111  -47.9791 C.2       11 UNK         0.5000 
     68 O          -0.7416  -23.5692  -48.8592 O.2       11 UNK        -0.5000 
     69 N          -1.9409  -22.0965  -47.6281 N.am      12 UNK        -0.5000 
     70 CA         -3.2579  -22.4617  -48.1568 C.3       12 UNK         0.1400 
     71 CB         -4.3143  -21.4366  -47.7163 C.3       12 UNK        -0.1800 
     72 C          -3.6803  -23.8814  -47.7348 C.2       12 UNK         0.5000 
     73 O          -4.1507  -24.6481  -48.5753 O.2       12 UNK        -0.5000 
     74 N          -3.4849  -24.2106  -46.4494 N.am      13 UNK        -0.5000 
     75 CA         -3.7826  -25.5221  -45.8725 C.3       13 UNK         0.1400 
     76 CB         -3.7200  -25.4359  -44.3398 C.3       13 UNK        -0.1800 
     77 C          -2.8532  -26.6328  -46.3943 C.2       13 UNK         0.5000 
     78 O          -3.3293  -27.7284  -46.6945 O.2       13 UNK        -0.5000 
     79 N          -1.5511  -26.3325  -46.4998 N.am      14 UNK        -0.5000 
     80 CA         -0.5295  -27.2458  -47.0174 C.3       14 UNK         0.1400 
     81 CB          0.8625  -26.6977  -46.6686 C.3       14 UNK        -0.1800 
     82 C          -0.6406  -27.4895  -48.5345 C.2       14 UNK         0.5000 
     83 O          -0.2558  -28.5638  -48.9991 O.2       14 UNK        -0.5000 
     84 N          -1.1595  -26.4922  -49.2653 N.am      15 UNK        -0.5000 
     85 CA         -1.2735  -26.4198  -50.7226 C.3       15 UNK         0.1400 
     86 CB         -2.2101  -27.5227  -51.2648 C.3       15 UNK        -0.1800 
     87 C           0.1106  -26.3762  -51.4067 C.2       15 UNK         0.5000 
     88 O           1.0832  -25.9342  -50.7898 O.2       15 UNK        -0.5000 
     89 N           0.1681  -26.7714  -52.6874 N.am      16 UNK        -0.5000 
     90 CA          1.3194  -26.7746  -53.6074 C.3       16 UNK         0.1400 
     91 CB          2.4690  -27.6515  -53.0749 C.3       16 UNK        -0.1800 
     92 C           1.8256  -25.3730  -54.0127 C.2       16 UNK         0.5000 
     93 O           2.1963  -25.1762  -55.1711 O.2       16 UNK        -0.5000 
     94 N           1.8091  -24.4227  -53.0721 N.am      17 UNK        -0.5000 
     95 CA          2.0455  -22.9966  -53.2778 C.3       17 UNK         0.1400 
     96 CB          2.1558  -22.3253  -51.8995 C.3       17 UNK        -0.1800 
     97 C           0.9236  -22.3387  -54.1056 C.2       17 UNK         0.5000 
     98 O          -0.1840  -22.8770  -54.1972 O.2       17 UNK        -0.5000 
     99 N           1.2208  -21.1603  -54.6665 N.am      18 UNK        -0.5000 
    100 CA         0.3105  -20.3441  -55.4738 C.3       18 UNK         0.1400 
    101 CB         1.1486  -19.3767  -56.3296 C.3       18 UNK        -0.1800 
    102 C         -0.7449  -19.6141  -54.6136 C.2       18 UNK         0.5000 
    103 O         -0.7611  -18.3830  -54.5614 O.2       18 UNK        -0.5000 
    104 N         -1.5936  -20.3965  -53.9373 N.am      19 UNK        -0.5000 
    105 CA        -2.7107  -19.9331  -53.1177 C.3       19 UNK         0.1400 
    106 CB        -3.2665  -21.1206  -52.3159 C.3       19 UNK        -0.1800 
    107 C         -3.8141  -19.2527  -53.9498 C.2       19 UNK         0.5000 
    108 O         -3.9939  -19.5747  -55.1279 O.2       19 UNK        -0.5000 
    109 N         -4.5328  -18.3279  -53.3057 N.am      20 UNK        -0.5000 
    110 CA        -5.6463  -17.5707  -53.8723 C.3       20 UNK         0.1400 
    111 CB        -5.6154  -16.1532  -53.2635 C.3       20 UNK        -0.1800 
    112 C         -6.9832  -18.3136  -53.6467 C.2       20 UNK         0.5000 
    113 O         -7.0293  -19.5421  -53.7310 O.2       20 UNK        -0.5000 
    114 N         -8.0540  -17.5631  -53.3503 N.am      21 UNK        -0.5000 
    115 CA        -9.3830  -18.0823  -53.0000 C.3       21 UNK         0.1400 
    116 CB       -10.4112  -16.9537  -53.1803 C.3       21 UNK        -0.1800 
    117 C         -9.4598  -18.6662  -51.5705 C.2       21 UNK         0.5000 
    118 O        -10.4702  -19.2745  -51.2144 O.2       21 UNK        -0.5000 
    119 N         -8.4018  -18.4516  -50.7811 N.am      22 UNK        -0.5000 
    120 CA        -8.1545  -19.0017  -49.4426 C.3       22 UNK         0.1400 
    121 C         -8.1714  -20.5582  -49.3679 C.2       22 UNK         0.5000 
    122 N         -8.4835  -21.1190  -48.2068 N.am      22 UNK        -0.7600 
    123 O         -7.8782  -21.2621  -50.3316 O.2       22 UNK        -0.5000 
    124 C124       -6.8388  -18.4195  -48.8582 C.3       23 UNK        -0.0398 
    125 S125       -5.4023  -18.5967  -49.9757 S.3       23 UNK        -0.2404 
    126 C126       -4.2217  -17.4592  -49.2005 C.3       23 UNK        -0.0205 
    127 H127        2.2802  -17.4273  -46.8213 H         1 UNK         0.0600 
    128 H128        3.4905  -16.3217  -46.1711 H         1 UNK         0.0600 
    129 H129        3.7916  -17.1610  -47.6946 H         1 UNK         0.0600 
    130 H130        0.6765  -16.5286  -48.0472 H         1 UNK         0.3000 
    131 H131       -0.6312  -15.2227  -49.1221 H         1 UNK         0.0600 
    132 H132        1.6680  -13.7295  -50.4841 H         1 UNK         0.0800 
    133 H133        1.3370  -15.3871  -50.8523 H         1 UNK         0.0800 
    134 H134        0.0060  -15.8706  -53.0522 H         1 UNK         0.0800 
    135 H135       -1.6619  -15.3728  -53.1667 H         1 UNK         0.0800 
    136 H136       -3.1899  -15.7474  -51.0773 H         1 UNK         0.1150 
    137 H137       -2.2749  -19.3241  -48.8983 H         1 UNK         0.1150 
    138 H138        0.5864  -17.7040  -51.6345 H         1 UNK         0.1150 
    139 H139       -0.3397  -20.7225  -50.0789 H         1 UNK         0.0800 
    140 H140        1.0557  -19.7824  -50.5633 H         1 UNK         0.0800 
    141 H141        2.3495  -21.2795  -47.3742 H         1 UNK         0.0800 
    142 H142        1.7117  -21.7929  -48.9021 H         1 UNK         0.0800 
    143 H143        1.0491  -23.2993  -47.1532 H         1 UNK         0.0600 
    144 H144        0.3573  -21.0318  -45.5288 H         1 UNK         0.3000 
    145 H145       -1.0104  -23.1991  -42.9342 H         1 UNK         0.0600 
    146 H146        0.6249  -21.8759  -41.6537 H         1 UNK         0.0600 
    147 H147        1.4639  -23.0138  -42.6953 H         1 UNK         0.0600 
    148 H148        1.3924  -21.3142  -43.1368 H         1 UNK         0.0600 
    149 H149       -0.9483  -20.3816  -43.0138 H         1 UNK         0.3000 
    150 H150       -4.1886  -19.8926  -44.4918 H         1 UNK         0.0600 
    151 H151       -4.5352  -20.3889  -42.0674 H         1 UNK         0.0600 
    152 H152       -4.4746  -18.6581  -42.3661 H         1 UNK         0.0600 
    153 H153       -3.0837  -19.4804  -41.6631 H         1 UNK         0.0600 
    154 H154       -2.3105  -18.0023  -43.5368 H         1 UNK         0.3000 
    155 H155       -0.4393  -17.6443  -46.6001 H         1 UNK         0.0600 
    156 H156       -2.3542  -15.8610  -45.0161 H         1 UNK         0.0600 
    157 H157       -2.3961  -16.1588  -46.7503 H         1 UNK         0.0600 
    158 H158       -1.0435  -15.2888  -46.0414 H         1 UNK         0.0600 
    159 H159       -0.0384  -16.4336  -44.0790 H         1 UNK         0.3000 
    160 H160        2.1004  -18.9277  -42.6370 H         1 UNK         0.0600 
    161 H161        2.5556  -16.0776  -43.6719 H         1 UNK         0.0600 
    162 H162        3.5368  -17.4908  -44.0369 H         1 UNK         0.0600 
    163 H163        3.4838  -16.8698  -42.3977 H         1 UNK         0.0600 
    164 H164        0.9945  -16.4300  -41.7134 H         1 UNK         0.3000 
    165 H165       -1.8379  -17.8435  -40.0692 H         1 UNK         0.0600 
    166 H166       -0.7704  -16.7709  -38.1048 H         1 UNK         0.0600 
    167 H167        0.0660  -18.2624  -38.5052 H         1 UNK         0.0600 
    168 H168        0.7822  -16.7151  -38.9401 H         1 UNK         0.0600 
    169 H169       -0.7502  -15.1981  -40.1582 H         1 UNK         0.3000 
    170 H170       -2.3862  -14.1061  -43.1208 H         1 UNK         0.0600 
    171 H171       -4.1288  -13.9388  -41.3381 H         1 UNK         0.0600 
    172 H172       -2.9077  -13.4473  -40.1705 H         1 UNK         0.0600 
    173 H173       -3.2849  -12.4131  -41.5488 H         1 UNK         0.0600 
    174 H174       -0.7584  -12.7493  -41.2138 H         1 UNK         0.3000 
    175 H175        1.2991  -11.9708  -41.9845 H         1 UNK         0.0600 
    176 H176        2.6572  -14.6959  -41.4841 H         1 UNK         0.0600 
    177 H177        3.2111  -13.1432  -40.8694 H         1 UNK         0.0600 
    178 H178        1.7047  -13.8240  -40.2893 H         1 UNK         0.0600 
    179 H179        1.9814  -13.4334  -44.2870 H         1 UNK         0.3000 
    180 H180        4.6100  -11.2361  -45.2672 H         1 UNK         0.0600 
    181 H181        5.7545  -13.3581  -44.6600 H         1 UNK         0.0600 
    182 H182        5.3644  -13.3405  -46.3737 H         1 UNK         0.0600 
    183 H183        4.3905  -14.2941  -45.2558 H         1 UNK         0.0600 
    184 H184        2.9106  -12.9437  -46.7708 H         1 UNK         0.3000 
    185 H185        0.0585  -11.1169  -46.9671 H         1 UNK         0.0600 
    186 H186        0.4139  -10.2490  -49.2853 H         1 UNK         0.0600 
    187 H187        1.1415   -9.1807  -48.0968 H         1 UNK         0.0600 
    188 H188        2.1592  -10.2670  -49.0366 H         1 UNK         0.0600 
    189 H189        1.9847  -12.9073  -48.3876 H         1 UNK         0.3000 
    190 H190       -1.9138  -21.3493  -46.9412 H         1 UNK         0.3000 
    191 H191       -3.1997  -22.4373  -49.2470 H         1 UNK         0.0600 
    192 H192       -4.4176  -21.3991  -46.6322 H         1 UNK         0.0600 
    193 H193       -5.2927  -21.6809  -48.1322 H         1 UNK         0.0600 
    194 H194       -4.0625  -20.4353  -48.0584 H         1 UNK         0.0600 
    195 H195       -3.1354  -23.5039  -45.8087 H         1 UNK         0.3000 
    196 H196       -4.8042  -25.7868  -46.1528 H         1 UNK         0.0600 
    197 H197       -3.9451  -26.4006  -43.8836 H         1 UNK         0.0600 
    198 H198       -4.4450  -24.7177  -43.9566 H         1 UNK         0.0600 
    199 H199       -2.7324  -25.1296  -43.9932 H         1 UNK         0.0600 
    200 H200       -1.2265  -25.4291  -46.1628 H         1 UNK         0.3000 
    201 H201       -0.6503  -28.2088  -46.5171 H         1 UNK         0.0600 
    202 H202        0.9795  -26.5694  -45.5924 H         1 UNK         0.0600 
    203 H203        1.0422  -25.7331  -47.1443 H         1 UNK         0.0600 
    204 H204        1.6458  -27.3789  -47.0032 H         1 UNK         0.0600 
    205 H205       -1.3557  -25.6201  -48.7887 H         1 UNK         0.3000 
    206 H206       -1.7426  -25.4570  -50.9301 H         1 UNK         0.0600 
    207 H207       -3.1353  -27.5659  -50.6896 H         1 UNK         0.0600 
    208 H208       -2.4910  -27.3319  -52.3008 H         1 UNK         0.0600 
    209 H209       -1.7468  -28.5090  -51.2236 H         1 UNK         0.0600 
    210 H210       -0.6974  -27.0816  -53.1064 H         1 UNK         0.3000 
    211 H211        0.9548  -27.2434  -54.5228 H         1 UNK         0.0600 
    212 H212        2.9218  -27.2326  -52.1761 H         1 UNK         0.0600 
    213 H213        3.2595  -27.7476  -53.8201 H         1 UNK         0.0600 
    214 H214        2.1210  -28.6571  -52.8383 H         1 UNK         0.0600 
    215 H215        1.5127  -24.7073  -52.1432 H         1 UNK         0.3000 
    216 H216        2.9906  -22.8781  -53.8115 H         1 UNK         0.0600 
    217 H217        2.3855  -21.2637  -51.9953 H         1 UNK         0.0600 
    218 H218        2.9504  -22.7747  -51.3037 H         1 UNK         0.0600 
    219 H219        1.2253  -22.4151  -51.3368 H         1 UNK         0.0600 
    220 H220        2.1391  -20.7696  -54.5128 H         1 UNK         0.3000 
    221 H221       -0.2319  -21.0009  -56.1573 H         1 UNK         0.0600 
    222 H222        1.7362  -18.6965  -55.7117 H         1 UNK         0.0600 
    223 H223        1.8359  -19.9189  -56.9793 H         1 UNK         0.0600 
    224 H224        0.5095  -18.7690  -56.9717 H         1 UNK         0.0600 
    225 H225       -1.4720  -21.4003  -54.0236 H         1 UNK         0.3000 
    226 H226       -2.3227  -19.1968  -52.4171 H         1 UNK         0.0600 
    227 H227       -2.4999  -21.5547  -51.6734 H         1 UNK         0.0600 
    228 H228       -4.0896  -20.8096  -51.6715 H         1 UNK         0.0600 
    229 H229       -3.6423  -21.9065  -52.9719 H         1 UNK         0.0600 
    230 H230       -4.3548  -18.1796  -52.3218 H         1 UNK         0.3000 
    231 H231       -5.5103  -17.4746  -54.9513 H         1 UNK         0.0600 
    232 H232       -4.6389  -15.6897  -53.4082 H         1 UNK         0.0600 
    233 H233       -5.8161  -16.1664  -52.1912 H         1 UNK         0.0600 
    234 H234       -6.3461  -15.4965  -53.7369 H         1 UNK         0.0600 
    235 H235       -7.9424  -16.5602  -53.3074 H         1 UNK         0.3000 
    236 H236       -9.6354  -18.8877  -53.6930 H         1 UNK         0.0600 
    237 H237      -11.4220  -17.3069  -52.9716 H         1 UNK         0.0600 
    238 H238      -10.2113  -16.1168  -52.5100 H         1 UNK         0.0600 
    239 H239      -10.4069  -16.5751  -54.2026 H         1 UNK         0.0600 
    240 H240       -7.6154  -17.9703  -51.1886 H         1 UNK         0.3000 
    241 H241       -8.9782  -18.6524  -48.8173 H         1 UNK         0.0600 
    242 H242       -8.4924  -22.1246  -48.1397 H         1 UNK         0.3800 
    243 H243       -8.7301  -20.5689  -47.3988 H         1 UNK         0.3800 
    244 H244       -6.9808  -17.3572  -48.6544 H         1 UNK         0.0800 
    245 H245       -6.5982  -18.8750  -47.8958 H         1 UNK         0.0800 
    246 H246       -4.6190  -16.4434  -49.2244 H         1 UNK         0.0800 
    247 H247       -4.0972  -17.7240  -48.1490 H         1 UNK         0.0800 
@<TRIPOS>BOND
     1    1    2 1    
     2    1  127 1    
     3    1  128 1    
     4    1  129 1    
     5    2    3 2    
     6    2    4 am   BACKBONE|DICT|INTERRES
     7    4    5 1    
     8    4  130 1    
     9    5    6 1    
    10    5   65 1    
    11    5  131 1    
    12    6    7 1    
    13    6  132 1    
    14    6  133 1    
    15    7    8 1    
    16    8    9 1    
    17    8  134 1    
    18    8  135 1    
    19    9   10 ar   
    20    9   14 ar   
    21   10   11 ar   
    22   10  136 1    
    23   11   12 ar   
    24   11  126 1    
    25   12   13 ar   
    26   12  137 1    
    27   13   14 ar   
    28   13   15 1    
    29   14  138 1    
    30   15   16 1    
    31   15  139 1    
    32   15  140 1    
    33   16   17 1    
    34   17   18 1    
    35   17  141 1    
    36   17  142 1    
    37   18   19 1    
    38   18   67 1    
    39   18  143 1    
    40   19   20 am   BACKBONE|DICT|INTERRES
    41   19  144 1    
    42   20   21 2    
    43   20   22 1    
    44   22   23 1    
    45   22   24 1    
    46   22  145 1    
    47   23  146 1    
    48   23  147 1    
    49   23  148 1    
    50   24   25 am   BACKBONE|DICT|INTERRES
    51   24  149 1    
    52   25   26 2    
    53   25   27 1    
    54   27   28 1    
    55   27   29 1    
    56   27  150 1    
    57   28  151 1    
    58   28  152 1    
    59   28  153 1    
    60   29   30 am   BACKBONE|DICT|INTERRES
    61   29  154 1    
    62   30   31 2    
    63   30   32 1    
    64   32   33 1    
    65   32   34 1    
    66   32  155 1    
    67   33  156 1    
    68   33  157 1    
    69   33  158 1    
    70   34   35 am   BACKBONE|DICT|INTERRES
    71   34  159 1    
    72   35   36 2    
    73   35   37 1    
    74   37   38 1    
    75   37   39 1    
    76   37  160 1    
    77   38  161 1    
    78   38  162 1    
    79   38  163 1    
    80   39   40 am   BACKBONE|DICT|INTERRES
    81   39  164 1    
    82   40   41 2    
    83   40   42 1    
    84   42   43 1    
    85   42   44 1    
    86   42  165 1    
    87   43  166 1    
    88   43  167 1    
    89   43  168 1    
    90   44   45 am   BACKBONE|DICT|INTERRES
    91   44  169 1    
    92   45   46 2    
    93   45   47 1    
    94   47   48 1    
    95   47   49 1    
    96   47  170 1    
    97   48  171 1    
    98   48  172 1    
    99   48  173 1    
   100   49   50 am   BACKBONE|DICT|INTERRES
   101   49  174 1    
   102   50   51 2    
   103   50   52 1    
   104   52   53 1    
   105   52   54 1    
   106   52  175 1    
   107   53  176 1    
   108   53  177 1    
   109   53  178 1    
   110   54   55 am   BACKBONE|DICT|INTERRES
   111   54  179 1    
   112   55   56 2    
   113   55   57 1    
   114   57   58 1    
   115   57   59 1    
   116   57  180 1    
   117   58  181 1    
   118   58  182 1    
   119   58  183 1    
   120   59   60 am   BACKBONE|DICT|INTERRES
   121   59  184 1    
   122   60   61 2    
   123   60   62 1    
   124   62   63 1    
   125   62   64 1    
   126   62  185 1    
   127   63  186 1    
   128   63  187 1    
   129   63  188 1    
   130   64   65 am   BACKBONE|DICT|INTERRES
   131   64  189 1    
   132   65   66 2    
   133   67   68 2    
   134   67   69 am   BACKBONE|DICT|INTERRES
   135   69   70 1    
   136   69  190 1    
   137   70   71 1    
   138   70   72 1    
   139   70  191 1    
   140   71  192 1    
   141   71  193 1    
   142   71  194 1    
   143   72   73 2    
   144   72   74 am   BACKBONE|DICT|INTERRES
   145   74   75 1    
   146   74  195 1    
   147   75   76 1    
   148   75   77 1    
   149   75  196 1    
   150   76  197 1    
   151   76  198 1    
   152   76  199 1    
   153   77   78 2    
   154   77   79 am   BACKBONE|DICT|INTERRES
   155   79   80 1    
   156   79  200 1    
   157   80   81 1    
   158   80   82 1    
   159   80  201 1    
   160   81  202 1    
   161   81  203 1    
   162   81  204 1    
   163   82   83 2    
   164   82   84 am   BACKBONE|DICT|INTERRES
   165   84   85 1    
   166   84  205 1    
   167   85   86 1    
   168   85   87 1    
   169   85  206 1    
   170   86  207 1    
   171   86  208 1    
   172   86  209 1    
   173   87   88 2    
   174   87   89 am   BACKBONE|DICT|INTERRES
   175   89   90 1    
   176   89  210 1    
   177   90   91 1    
   178   90   92 1    
   179   90  211 1    
   180   91  212 1    
   181   91  213 1    
   182   91  214 1    
   183   92   93 2    
   184   92   94 am   BACKBONE|DICT|INTERRES
   185   94   95 1    
   186   94  215 1    
   187   95   96 1    
   188   95   97 1    
   189   95  216 1    
   190   96  217 1    
   191   96  218 1    
   192   96  219 1    
   193   97   98 2    
   194   97   99 am   BACKBONE|DICT|INTERRES
   195   99  100 1    
   196   99  220 1    
   197  100  101 1    
   198  100  102 1    
   199  100  221 1    
   200  101  222 1    
   201  101  223 1    
   202  101  224 1    
   203  102  103 2    
   204  102  104 am   BACKBONE|DICT|INTERRES
   205  104  105 1    
   206  104  225 1    
   207  105  106 1    
   208  105  107 1    
   209  105  226 1    
   210  106  227 1    
   211  106  228 1    
   212  106  229 1    
   213  107  108 2    
   214  107  109 am   BACKBONE|DICT|INTERRES
   215  109  110 1    
   216  109  230 1    
   217  110  111 1    
   218  110  112 1    
   219  110  231 1    
   220  111  232 1    
   221  111  233 1    
   222  111  234 1    
   223  112  113 2    
   224  112  114 am   BACKBONE|DICT|INTERRES
   225  114  115 1    
   226  114  235 1    
   227  115  116 1    
   228  115  117 1    
   229  115  236 1    
   230  116  237 1    
   231  116  238 1    
   232  116  239 1    
   233  117  118 2    
   234  117  119 am   BACKBONE|DICT|INTERRES
   235  119  120 1    
   236  119  240 1    
   237  120  121 1    
   238  120  124 1    
   239  120  241 1    
   240  121  122 am   BACKBONE|DICT|INTERRES
   241  121  123 2    
   242  122  242 1    
   243  122  243 1    
   244  124  125 1    
   245  124  244 1    
   246  124  245 1    
   247  125  126 1    
   248  126  246 1    
   249  126  247 1    
@<TRIPOS>SUBSTRUCTURE
     1 UNK         1 GROUP             0       ****    0 ROOT    
