@<TRIPOS>MOLECULE
3R540
247   249    1
SMALL
USER_CHARGES


@<TRIPOS>ATOM
      1 CA         -2.7672  -16.2748  -46.4600 C.3       0 UNK        -0.1800 
      2 C          -2.4947  -14.8058  -46.7460 C.2       0 UNK         0.5000 
      3 O          -2.9486  -13.9480  -45.9885 O.2       0 UNK        -0.5000 
      4 N          -1.7587  -14.5075  -47.8252 N.am      1 UNK        -0.5000 
      5 CA         -1.3313  -13.1512  -48.1715 C.3       1 UNK         0.1400 
      6 C6         -1.0035  -12.9975  -49.6817 C.3       23 UNK        -0.0398 
      7 S7          0.5249  -13.8183  -50.2688 S.3       23 UNK        -0.2404 
      8 C8         -0.1093  -15.1265  -51.3598 C.3       23 UNK        -0.0205 
      9 C9         -0.6723  -16.3042  -50.5805 C.ar      23 UNK        -0.0193 
     10 C10        -2.0530  -16.4719  -50.4570 C.ar      23 UNK        -0.1150 
     11 C11        -2.5745  -17.5842  -49.7932 C.ar      23 UNK        -0.0193 
     12 C12        -1.7028  -18.5297  -49.2471 C.ar      23 UNK        -0.1150 
     13 C13        -0.3161  -18.3658  -49.3413 C.ar      23 UNK        -0.0193 
     14 C14         0.1893  -17.2473  -50.0123 C.ar      23 UNK        -0.1150 
     15 C15         0.6466  -19.4013  -48.7646 C.3       23 UNK        -0.0205 
     16 S16         0.3806  -19.7400  -46.9903 S.3       23 UNK        -0.2404 
     17 C17        -0.8793  -21.0544  -47.0362 C.3       23 UNK        -0.0398 
     18 CA         -0.4225  -22.3242  -46.2862 C.3       11 UNK         0.1400 
     19 N          -0.3887  -22.1460  -44.8321 N.am      11 UNK        -0.5000 
     20 C           0.0930  -23.0538  -43.9703 C.2       10 UNK         0.5000 
     21 O           0.6207  -24.1113  -44.3126 O.2       10 UNK        -0.5000 
     22 CA         -0.1161  -22.7665  -42.4749 C.3       10 UNK         0.1400 
     23 CB          0.9256  -21.7686  -41.9458 C.3       10 UNK        -0.1800 
     24 N          -1.4687  -22.2761  -42.2082 N.am      10 UNK        -0.5000 
     25 C          -2.5762  -23.0240  -42.3266 C.2       9 UNK         0.5000 
     26 O          -2.5652  -24.2171  -42.6279 O.2       9 UNK        -0.5000 
     27 CA         -3.9241  -22.3116  -42.1108 C.3       9 UNK         0.1400 
     28 CB         -4.2915  -22.2940  -40.6198 C.3       9 UNK        -0.1800 
     29 N          -3.9293  -20.9421  -42.6260 N.am      9 UNK        -0.5000 
     30 C          -3.8329  -20.6129  -43.9224 C.2       8 UNK         0.5000 
     31 O          -3.7672  -21.4344  -44.8357 O.2       8 UNK        -0.5000 
     32 CA         -3.7225  -19.1096  -44.2392 C.3       8 UNK         0.1400 
     33 CB         -5.1145  -18.4689  -44.3384 C.3       8 UNK        -0.1800 
     34 N          -2.9154  -18.3867  -43.2497 N.am      8 UNK        -0.5000 
     35 C          -1.6129  -18.6189  -43.0467 C.2       7 UNK         0.5000 
     36 O          -0.9610  -19.4430  -43.6955 O.2       7 UNK        -0.5000 
     37 CA         -0.9362  -17.8554  -41.9007 C.3       7 UNK         0.1400 
     38 CB         -1.2189  -18.5525  -40.5555 C.3       7 UNK        -0.1800 
     39 N           0.4913  -17.8419  -42.1879 N.am      7 UNK        -0.5000 
     40 C           1.4566  -17.1660  -41.5543 C.2       6 UNK         0.5000 
     41 O           1.2727  -16.4561  -40.5654 O.2       6 UNK        -0.5000 
     42 CA          2.8664  -17.2836  -42.1671 C.3       6 UNK         0.1400 
     43 CB          3.5736  -18.5528  -41.6665 C.3       6 UNK        -0.1800 
     44 N           2.7962  -17.3099  -43.6301 N.am      6 UNK        -0.5000 
     45 C           2.5718  -16.2242  -44.3805 C.2       5 UNK         0.5000 
     46 O           2.6127  -15.0686  -43.9513 O.2       5 UNK        -0.5000 
     47 CA          2.1437  -16.4891  -45.8308 C.3       5 UNK         0.1400 
     48 CB          0.6128  -16.4583  -45.9225 C.3       5 UNK        -0.1800 
     49 N           2.6960  -15.5024  -46.7558 N.am      5 UNK        -0.5000 
     50 C           3.9524  -15.5466  -47.2133 C.2       4 UNK         0.5000 
     51 O           4.7689  -16.3950  -46.8492 O.2       4 UNK        -0.5000 
     52 CA          4.3874  -14.5201  -48.2709 C.3       4 UNK         0.1400 
     53 CB          4.1929  -15.0966  -49.6852 C.3       4 UNK        -0.1800 
     54 N           3.7233  -13.2145  -48.1764 N.am      4 UNK        -0.5000 
     55 C           4.3347  -12.0659  -48.5114 C.2       3 UNK         0.5000 
     56 O           5.5246  -12.0000  -48.8259 O.2       3 UNK        -0.5000 
     57 CA          3.5068  -10.7652  -48.5434 C.3       3 UNK         0.1400 
     58 CB          3.1486  -10.4014  -49.9933 C.3       3 UNK        -0.1800 
     59 N           2.2747  -10.8202  -47.7656 N.am      3 UNK        -0.5000 
     60 C           2.1951  -10.7888  -46.4297 C.2       2 UNK         0.5000 
     61 O           3.1714  -10.6619  -45.6901 O.2       2 UNK        -0.5000 
     62 CA          0.7838  -10.9266  -45.8169 C.3       2 UNK         0.1400 
     63 CB          0.2851   -9.5662  -45.3053 C.3       2 UNK        -0.1800 
     64 N          -0.2244  -11.4884  -46.7273 N.am      2 UNK        -0.5000 
     65 C          -0.1668  -12.7177  -47.2562 C.2       1 UNK         0.5000 
     66 O           0.7833  -13.4817  -47.0742 O.2       1 UNK        -0.5000 
     67 C          -1.2907  -23.5278  -46.6993 C.2       11 UNK         0.5000 
     68 O          -0.8733  -24.2914  -47.5686 O.2       11 UNK        -0.5000 
     69 N          -2.4628  -23.6940  -46.0713 N.am      12 UNK        -0.5000 
     70 CA         -3.3631  -24.8248  -46.3008 C.3       12 UNK         0.1400 
     71 CB         -4.6915  -24.5931  -45.5667 C.3       12 UNK        -0.1800 
     72 C          -2.7352  -26.1724  -45.9011 C.2       12 UNK         0.5000 
     73 O          -2.8259  -27.1299  -46.6695 O.2       12 UNK        -0.5000 
     74 N          -2.0692  -26.2102  -44.7378 N.am      13 UNK        -0.5000 
     75 CA         -1.3350  -27.3742  -44.2352 C.3       13 UNK         0.1400 
     76 CB         -0.8932  -27.1144  -42.7871 C.3       13 UNK        -0.1800 
     77 C          -0.1263  -27.7515  -45.1136 C.2       13 UNK         0.5000 
     78 O           0.1230  -28.9383  -45.3278 O.2       13 UNK        -0.5000 
     79 N           0.5837  -26.7381  -45.6270 N.am      14 UNK        -0.5000 
     80 CA          1.7157  -26.8869  -46.5445 C.3       14 UNK         0.1400 
     81 CB          2.5283  -25.5819  -46.5350 C.3       14 UNK        -0.1800 
     82 C           1.3049  -27.2405  -47.9890 C.2       14 UNK         0.5000 
     83 O           2.1734  -27.6081  -48.7810 O.2       14 UNK        -0.5000 
     84 N           0.0114  -27.0882  -48.3139 N.am      15 UNK        -0.5000 
     85 CA         -0.5926  -27.1736  -49.6497 C.3       15 UNK         0.1400 
     86 CB         -0.4722  -28.5969  -50.2323 C.3       15 UNK        -0.1800 
     87 C          -0.0731  -26.0748  -50.6054 C.2       15 UNK         0.5000 
     88 O           0.0115  -26.2865  -51.8161 O.2       15 UNK        -0.5000 
     89 N           0.2567  -24.9123  -50.0303 N.am      16 UNK        -0.5000 
     90 CA          0.7530  -23.7192  -50.7123 C.3       16 UNK         0.1400 
     91 CB          1.8268  -23.0681  -49.8259 C.3       16 UNK        -0.1800 
     92 C          -0.3732  -22.7135  -51.0150 C.2       16 UNK         0.5000 
     93 O          -0.1401  -21.7539  -51.7510 O.2       16 UNK        -0.5000 
     94 N          -1.5714  -22.9351  -50.4537 N.am      17 UNK        -0.5000 
     95 CA         -2.7797  -22.1266  -50.6388 C.3       17 UNK         0.1400 
     96 CB         -3.7605  -22.4324  -49.4909 C.3       17 UNK        -0.1800 
     97 C          -3.4145  -22.3249  -52.0346 C.2       17 UNK         0.5000 
     98 O          -4.5584  -22.7687  -52.1432 O.2       17 UNK        -0.5000 
     99 N          -2.6373  -22.0165  -53.0772 N.am      18 UNK        -0.5000 
    100 CA        -2.9991  -22.1337  -54.4905 C.3       18 UNK         0.1400 
    101 CB        -1.9521  -23.0247  -55.1807 C.3       18 UNK        -0.1800 
    102 C         -3.0927  -20.7589  -55.1824 C.2       18 UNK         0.5000 
    103 O         -3.3593  -20.7056  -56.3843 O.2       18 UNK        -0.5000 
    104 N         -2.8598  -19.6736  -54.4314 N.am      19 UNK        -0.5000 
    105 CA        -2.9669  -18.2900  -54.8930 C.3       19 UNK         0.1400 
    106 CB        -2.3527  -17.3749  -53.8238 C.3       19 UNK        -0.1800 
    107 C         -4.4294  -17.8856  -55.1497 C.2       19 UNK         0.5000 
    108 O         -5.3421  -18.4695  -54.5628 O.2       19 UNK        -0.5000 
    109 N         -4.6345  -16.8445  -55.9669 N.am      20 UNK        -0.5000 
    110 CA        -5.9539  -16.3041  -56.3266 C.3       20 UNK         0.1400 
    111 CB        -5.7663  -15.1888  -57.3667 C.3       20 UNK        -0.1800 
    112 C         -6.7894  -15.7918  -55.1319 C.2       20 UNK         0.5000 
    113 O         -8.0131  -15.7040  -55.2382 O.2       20 UNK        -0.5000 
    114 N         -6.1167  -15.4814  -54.0166 N.am      21 UNK        -0.5000 
    115 CA        -6.7168  -15.0747  -52.7482 C.3       21 UNK         0.1400 
    116 CB        -5.6352  -14.3779  -51.9065 C.3       21 UNK        -0.1800 
    117 C         -7.3493  -16.2344  -51.9485 C.2       21 UNK         0.5000 
    118 O         -8.0871  -15.9573  -51.0013 O.2       21 UNK        -0.5000 
    119 N         -7.0468  -17.4925  -52.2988 N.am      22 UNK        -0.5000 
    120 CA        -7.4560  -18.6810  -51.5284 C.3       22 UNK         0.1400 
    121 C         -7.7602  -19.9552  -52.3654 C.2       22 UNK         0.5000 
    122 N         -7.3495  -20.0612  -53.6206 N.am      22 UNK        -0.7600 
    123 O         -8.4252  -20.8618  -51.8710 O.2       22 UNK        -0.5000 
    124 C124       -6.5020  -18.9725  -50.3381 C.3       23 UNK        -0.0398 
    125 S125       -4.7300  -19.0019  -50.7948 S.3       23 UNK        -0.2404 
    126 C126       -4.0766  -17.7575  -49.6428 C.3       23 UNK        -0.0205 
    127 H127       -3.8030  -16.5189  -46.6928 H         1 UNK         0.0600 
    128 H128       -2.5928  -16.4841  -45.4053 H         1 UNK         0.0600 
    129 H129       -2.1175  -16.9283  -47.0385 H         1 UNK         0.0600 
    130 H130       -1.3745  -15.2460  -48.3989 H         1 UNK         0.3000 
    131 H131       -2.1740  -12.4852  -47.9723 H         1 UNK         0.0600 
    132 H132       -1.8516  -13.3422  -50.2743 H         1 UNK         0.0800 
    133 H133       -0.9055  -11.9373  -49.9201 H         1 UNK         0.0800 
    134 H134       -0.8561  -14.7134  -52.0396 H         1 UNK         0.0800 
    135 H135        0.7083  -15.4777  -51.9909 H         1 UNK         0.0800 
    136 H136       -2.7211  -15.7419  -50.8897 H         1 UNK         0.1150 
    137 H137       -2.1189  -19.3865  -48.7424 H         1 UNK         0.1150 
    138 H138        1.2576  -17.1133  -50.1085 H         1 UNK         0.1150 
    139 H139        0.5779  -20.3209  -49.3448 H         1 UNK         0.0800 
    140 H140        1.6750  -19.0553  -48.8777 H         1 UNK         0.0800 
    141 H141       -1.0901  -21.2913  -48.0793 H         1 UNK         0.0800 
    142 H142       -1.8081  -20.6665  -46.6158 H         1 UNK         0.0800 
    143 H143        0.5967  -22.5556  -46.6019 H         1 UNK         0.0600 
    144 H144       -0.7610  -21.2732  -44.4707 H         1 UNK         0.3000 
    145 H145        0.0152  -23.7061  -41.9338 H         1 UNK         0.0600 
    146 H146        0.7948  -21.5887  -40.8788 H         1 UNK         0.0600 
    147 H147        1.9362  -22.1535  -42.0879 H         1 UNK         0.0600 
    148 H148        0.8704  -20.8090  -42.4574 H         1 UNK         0.0600 
    149 H149       -1.5660  -21.2924  -42.0107 H         1 UNK         0.3000 
    150 H150       -4.6901  -22.8771  -42.6450 H         1 UNK         0.0600 
    151 H151       -3.5740  -21.7187  -40.0333 H         1 UNK         0.0600 
    152 H152       -4.3134  -23.3055  -40.2119 H         1 UNK         0.0600 
    153 H153       -5.2792  -21.8602  -40.4622 H         1 UNK         0.0600 
    154 H154       -3.9802  -20.1997  -41.9446 H         1 UNK         0.3000 
    155 H155       -3.2325  -19.0133  -45.2105 H         1 UNK         0.0600 
    156 H156       -5.6552  -18.5285  -43.3931 H         1 UNK         0.0600 
    157 H157       -5.7198  -18.9693  -45.0956 H         1 UNK         0.0600 
    158 H158       -5.0475  -17.4182  -44.6201 H         1 UNK         0.0600 
    159 H159       -3.3948  -17.7030  -42.6815 H         1 UNK         0.3000 
    160 H160       -1.3079  -16.8293  -41.8829 H         1 UNK         0.0600 
    161 H161       -0.8133  -19.5644  -40.5334 H         1 UNK         0.0600 
    162 H162       -2.2904  -18.6224  -40.3648 H         1 UNK         0.0600 
    163 H163       -0.7837  -18.0029  -39.7212 H         1 UNK         0.0600 
    164 H164        0.7271  -18.3980  -43.0000 H         1 UNK         0.3000 
    165 H165        3.4512  -16.4176  -41.8493 H         1 UNK         0.0600 
    166 H166        4.5890  -18.6174  -42.0578 H         1 UNK         0.0600 
    167 H167        3.6444  -18.5550  -40.5780 H         1 UNK         0.0600 
    168 H168        3.0421  -19.4579  -41.9622 H         1 UNK         0.0600 
    169 H169        2.7731  -18.2202  -44.0662 H         1 UNK         0.3000 
    170 H170        2.4819  -17.4823  -46.1348 H         1 UNK         0.0600 
    171 H171        0.2049  -15.5214  -45.5432 H         1 UNK         0.0600 
    172 H172        0.2807  -16.5810  -46.9529 H         1 UNK         0.0600 
    173 H173        0.1679  -17.2620  -45.3358 H         1 UNK         0.0600 
    174 H174        2.0624  -14.7538  -47.0245 H         1 UNK         0.3000 
    175 H175        5.4595  -14.3863  -48.1112 H         1 UNK         0.0600 
    176 H176        4.7013  -16.0557  -49.7914 H         1 UNK         0.0600 
    177 H177        3.1384  -15.2591  -49.9085 H         1 UNK         0.0600 
    178 H178        4.5981  -14.4296  -50.4462 H         1 UNK         0.0600 
    179 H179        2.7479  -13.2016  -47.9025 H         1 UNK         0.3000 
    180 H180        4.1332   -9.9683  -48.1368 H         1 UNK         0.0600 
    181 H181        2.5115  -11.1592  -50.4516 H         1 UNK         0.0600 
    182 H182        4.0453  -10.3120  -50.6080 H         1 UNK         0.0600 
    183 H183        2.6258   -9.4462  -50.0441 H         1 UNK         0.0600 
    184 H184        1.4181  -10.9303  -48.2866 H         1 UNK         0.3000 
    185 H185        0.8714  -11.6023  -44.9635 H         1 UNK         0.0600 
    186 H186        0.9924   -9.1299  -44.5986 H         1 UNK         0.0600 
    187 H187        0.1545   -8.8538  -46.1208 H         1 UNK         0.0600 
    188 H188       -0.6690   -9.6643  -44.7870 H         1 UNK         0.0600 
    189 H189       -1.0263  -10.9051  -46.9192 H         1 UNK         0.3000 
    190 H190       -2.7807  -22.9832  -45.4185 H         1 UNK         0.3000 
    191 H191       -3.5752  -24.8657  -47.3710 H         1 UNK         0.0600 
    192 H192       -5.1686  -23.6706  -45.8982 H         1 UNK         0.0600 
    193 H193       -5.3903  -25.4081  -45.7587 H         1 UNK         0.0600 
    194 H194       -4.5512  -24.5288  -44.4881 H         1 UNK         0.0600 
    195 H195       -2.0798  -25.3888  -44.1400 H         1 UNK         0.3000 
    196 H196       -2.0200  -28.2245  -44.2331 H         1 UNK         0.0600 
    197 H197       -0.3572  -27.9731  -42.3810 H         1 UNK         0.0600 
    198 H198       -1.7516  -26.9312  -42.1406 H         1 UNK         0.0600 
    199 H199       -0.2321  -26.2501  -42.7168 H         1 UNK         0.0600 
    200 H200        0.3568  -25.7902  -45.3408 H         1 UNK         0.3000 
    201 H201        2.3565  -27.6919  -46.1790 H         1 UNK         0.0600 
    202 H202        3.4045  -25.6578  -47.1800 H         1 UNK         0.0600 
    203 H203        2.8840  -25.3459  -45.5319 H         1 UNK         0.0600 
    204 H204        1.9342  -24.7377  -46.8867 H         1 UNK         0.0600 
    205 H205       -0.6096  -26.7648  -47.5835 H         1 UNK         0.3000 
    206 H206       -1.6546  -26.9684  -49.5078 H         1 UNK         0.0600 
    207 H207       -0.8396  -29.3428  -49.5275 H         1 UNK         0.0600 
    208 H208       -1.0617  -28.6953  -51.1445 H         1 UNK         0.0600 
    209 H209        0.5582  -28.8495  -50.4830 H         1 UNK         0.0600 
    210 H210        0.0801  -24.8138  -49.0326 H         1 UNK         0.3000 
    211 H211        1.2128  -23.9981  -51.6625 H         1 UNK         0.0600 
    212 H212        1.4181  -22.7462  -48.8681 H         1 UNK         0.0600 
    213 H213        2.2578  -22.1913  -50.3110 H         1 UNK         0.0600 
    214 H214        2.6434  -23.7616  -49.6240 H         1 UNK         0.0600 
    215 H215       -1.6683  -23.7566  -49.8747 H         1 UNK         0.3000 
    216 H216       -2.5005  -21.0742  -50.5645 H         1 UNK         0.0600 
    217 H217       -4.6793  -21.8540  -49.5948 H         1 UNK         0.0600 
    218 H218       -3.3343  -22.1767  -48.5220 H         1 UNK         0.0600 
    219 H219       -4.0384  -23.4865  -49.4694 H         1 UNK         0.0600 
    220 H220       -1.6879  -21.7131  -52.8751 H         1 UNK         0.3000 
    221 H221       -3.9766  -22.6082  -54.5966 H         1 UNK         0.0600 
    222 H222       -0.9558  -22.5833  -55.1336 H         1 UNK         0.0600 
    223 H223       -1.9043  -24.0086  -54.7135 H         1 UNK         0.0600 
    224 H224       -2.1959  -23.1781  -56.2327 H         1 UNK         0.0600 
    225 H225       -2.7059  -19.8061  -53.4434 H         1 UNK         0.3000 
    226 H226       -2.4020  -18.1872  -55.8217 H         1 UNK         0.0600 
    227 H227       -2.3443  -16.3337  -54.1480 H         1 UNK         0.0600 
    228 H228       -2.9200  -17.4254  -52.8945 H         1 UNK         0.0600 
    229 H229       -1.3221  -17.6539  -53.6026 H         1 UNK         0.0600 
    230 H230       -3.8379  -16.3972  -56.3977 H         1 UNK         0.3000 
    231 H231       -6.5233  -17.1119  -56.7910 H         1 UNK         0.0600 
    232 H232       -5.1762  -14.3628  -56.9677 H         1 UNK         0.0600 
    233 H233       -6.7279  -14.7822  -57.6831 H         1 UNK         0.0600 
    234 H234       -5.2644  -15.5613  -58.2599 H         1 UNK         0.0600 
    235 H235       -5.1134  -15.5844  -54.0279 H         1 UNK         0.3000 
    236 H236       -7.5082  -14.3512  -52.9550 H         1 UNK         0.0600 
    237 H237       -5.2291  -13.5090  -52.4246 H         1 UNK         0.0600 
    238 H238       -6.0401  -14.0276  -50.9561 H         1 UNK         0.0600 
    239 H239       -4.8094  -15.0527  -51.6824 H         1 UNK         0.0600 
    240 H240       -6.4341  -17.6633  -53.0878 H         1 UNK         0.3000 
    241 H241       -8.4296  -18.4522  -51.0901 H         1 UNK         0.0600 
    242 H242       -7.5809  -20.8937  -54.1373 H         1 UNK         0.3800 
    243 H243       -6.6921  -19.3941  -54.0224 H         1 UNK         0.3800 
    244 H244       -6.7518  -19.9183  -49.8542 H         1 UNK         0.0800 
    245 H245       -6.6595  -18.2118  -49.5726 H         1 UNK         0.0800 
    246 H246       -4.3047  -18.0617  -48.6203 H         1 UNK         0.0800 
    247 H247       -4.5890  -16.8082  -49.8065 H         1 UNK         0.0800 
@<TRIPOS>BOND
     1    1    2 1    
     2    1  127 1    
     3    1  128 1    
     4    1  129 1    
     5    2    3 2    
     6    2    4 am   BACKBONE|DICT|INTERRES
     7    4    5 1    
     8    4  130 1    
     9    5    6 1    
    10    5   65 1    
    11    5  131 1    
    12    6    7 1    
    13    6  132 1    
    14    6  133 1    
    15    7    8 1    
    16    8    9 1    
    17    8  134 1    
    18    8  135 1    
    19    9   10 ar   
    20    9   14 ar   
    21   10   11 ar   
    22   10  136 1    
    23   11   12 ar   
    24   11  126 1    
    25   12   13 ar   
    26   12  137 1    
    27   13   14 ar   
    28   13   15 1    
    29   14  138 1    
    30   15   16 1    
    31   15  139 1    
    32   15  140 1    
    33   16   17 1    
    34   17   18 1    
    35   17  141 1    
    36   17  142 1    
    37   18   19 1    
    38   18   67 1    
    39   18  143 1    
    40   19   20 am   BACKBONE|DICT|INTERRES
    41   19  144 1    
    42   20   21 2    
    43   20   22 1    
    44   22   23 1    
    45   22   24 1    
    46   22  145 1    
    47   23  146 1    
    48   23  147 1    
    49   23  148 1    
    50   24   25 am   BACKBONE|DICT|INTERRES
    51   24  149 1    
    52   25   26 2    
    53   25   27 1    
    54   27   28 1    
    55   27   29 1    
    56   27  150 1    
    57   28  151 1    
    58   28  152 1    
    59   28  153 1    
    60   29   30 am   BACKBONE|DICT|INTERRES
    61   29  154 1    
    62   30   31 2    
    63   30   32 1    
    64   32   33 1    
    65   32   34 1    
    66   32  155 1    
    67   33  156 1    
    68   33  157 1    
    69   33  158 1    
    70   34   35 am   BACKBONE|DICT|INTERRES
    71   34  159 1    
    72   35   36 2    
    73   35   37 1    
    74   37   38 1    
    75   37   39 1    
    76   37  160 1    
    77   38  161 1    
    78   38  162 1    
    79   38  163 1    
    80   39   40 am   BACKBONE|DICT|INTERRES
    81   39  164 1    
    82   40   41 2    
    83   40   42 1    
    84   42   43 1    
    85   42   44 1    
    86   42  165 1    
    87   43  166 1    
    88   43  167 1    
    89   43  168 1    
    90   44   45 am   BACKBONE|DICT|INTERRES
    91   44  169 1    
    92   45   46 2    
    93   45   47 1    
    94   47   48 1    
    95   47   49 1    
    96   47  170 1    
    97   48  171 1    
    98   48  172 1    
    99   48  173 1    
   100   49   50 am   BACKBONE|DICT|INTERRES
   101   49  174 1    
   102   50   51 2    
   103   50   52 1    
   104   52   53 1    
   105   52   54 1    
   106   52  175 1    
   107   53  176 1    
   108   53  177 1    
   109   53  178 1    
   110   54   55 am   BACKBONE|DICT|INTERRES
   111   54  179 1    
   112   55   56 2    
   113   55   57 1    
   114   57   58 1    
   115   57   59 1    
   116   57  180 1    
   117   58  181 1    
   118   58  182 1    
   119   58  183 1    
   120   59   60 am   BACKBONE|DICT|INTERRES
   121   59  184 1    
   122   60   61 2    
   123   60   62 1    
   124   62   63 1    
   125   62   64 1    
   126   62  185 1    
   127   63  186 1    
   128   63  187 1    
   129   63  188 1    
   130   64   65 am   BACKBONE|DICT|INTERRES
   131   64  189 1    
   132   65   66 2    
   133   67   68 2    
   134   67   69 am   BACKBONE|DICT|INTERRES
   135   69   70 1    
   136   69  190 1    
   137   70   71 1    
   138   70   72 1    
   139   70  191 1    
   140   71  192 1    
   141   71  193 1    
   142   71  194 1    
   143   72   73 2    
   144   72   74 am   BACKBONE|DICT|INTERRES
   145   74   75 1    
   146   74  195 1    
   147   75   76 1    
   148   75   77 1    
   149   75  196 1    
   150   76  197 1    
   151   76  198 1    
   152   76  199 1    
   153   77   78 2    
   154   77   79 am   BACKBONE|DICT|INTERRES
   155   79   80 1    
   156   79  200 1    
   157   80   81 1    
   158   80   82 1    
   159   80  201 1    
   160   81  202 1    
   161   81  203 1    
   162   81  204 1    
   163   82   83 2    
   164   82   84 am   BACKBONE|DICT|INTERRES
   165   84   85 1    
   166   84  205 1    
   167   85   86 1    
   168   85   87 1    
   169   85  206 1    
   170   86  207 1    
   171   86  208 1    
   172   86  209 1    
   173   87   88 2    
   174   87   89 am   BACKBONE|DICT|INTERRES
   175   89   90 1    
   176   89  210 1    
   177   90   91 1    
   178   90   92 1    
   179   90  211 1    
   180   91  212 1    
   181   91  213 1    
   182   91  214 1    
   183   92   93 2    
   184   92   94 am   BACKBONE|DICT|INTERRES
   185   94   95 1    
   186   94  215 1    
   187   95   96 1    
   188   95   97 1    
   189   95  216 1    
   190   96  217 1    
   191   96  218 1    
   192   96  219 1    
   193   97   98 2    
   194   97   99 am   BACKBONE|DICT|INTERRES
   195   99  100 1    
   196   99  220 1    
   197  100  101 1    
   198  100  102 1    
   199  100  221 1    
   200  101  222 1    
   201  101  223 1    
   202  101  224 1    
   203  102  103 2    
   204  102  104 am   BACKBONE|DICT|INTERRES
   205  104  105 1    
   206  104  225 1    
   207  105  106 1    
   208  105  107 1    
   209  105  226 1    
   210  106  227 1    
   211  106  228 1    
   212  106  229 1    
   213  107  108 2    
   214  107  109 am   BACKBONE|DICT|INTERRES
   215  109  110 1    
   216  109  230 1    
   217  110  111 1    
   218  110  112 1    
   219  110  231 1    
   220  111  232 1    
   221  111  233 1    
   222  111  234 1    
   223  112  113 2    
   224  112  114 am   BACKBONE|DICT|INTERRES
   225  114  115 1    
   226  114  235 1    
   227  115  116 1    
   228  115  117 1    
   229  115  236 1    
   230  116  237 1    
   231  116  238 1    
   232  116  239 1    
   233  117  118 2    
   234  117  119 am   BACKBONE|DICT|INTERRES
   235  119  120 1    
   236  119  240 1    
   237  120  121 1    
   238  120  124 1    
   239  120  241 1    
   240  121  122 am   BACKBONE|DICT|INTERRES
   241  121  123 2    
   242  122  242 1    
   243  122  243 1    
   244  124  125 1    
   245  124  244 1    
   246  124  245 1    
   247  125  126 1    
   248  126  246 1    
   249  126  247 1    
@<TRIPOS>SUBSTRUCTURE
     1 UNK         1 GROUP             0       ****    0 ROOT    
