@<TRIPOS>MOLECULE
3R540
247   249    1
SMALL
USER_CHARGES


@<TRIPOS>ATOM
      1 CA          1.3843   -9.8094  -52.0719 C.3       0 UNK        -0.1800 
      2 C           1.8161  -10.8116  -51.0102 C.2       0 UNK         0.5000 
      3 O           2.9768  -11.2232  -50.9904 O.2       0 UNK        -0.5000 
      4 N           0.8902  -11.2050  -50.1305 N.am      1 UNK        -0.5000 
      5 CA          1.1075  -12.1358  -49.0259 C.3       1 UNK         0.1400 
      6 C6          1.0809  -13.6123  -49.4969 C.3       23 UNK        -0.0398 
      7 S7          1.8871  -14.7568  -48.3231 S.3       23 UNK        -0.2404 
      8 C8          2.8188  -15.8406  -49.4532 C.3       23 UNK        -0.0205 
      9 C9          1.8933  -16.7040  -50.2997 C.ar      23 UNK        -0.0193 
     10 C10         1.5391  -16.3083  -51.5946 C.ar      23 UNK        -0.1150 
     11 C11         0.6694  -17.0860  -52.3655 C.ar      23 UNK        -0.0193 
     12 C12         0.1736  -18.2803  -51.8370 C.ar      23 UNK        -0.1150 
     13 C13         0.5494  -18.7066  -50.5618 C.ar      23 UNK        -0.0193 
     14 C14         1.3949  -17.9055  -49.7885 C.ar      23 UNK        -0.1150 
     15 C15         0.0276  -20.0290  -50.0283 C.3       23 UNK        -0.0205 
     16 S16         1.3683  -21.2207  -49.7256 S.3       23 UNK        -0.2404 
     17 C17         1.3417  -21.3091  -47.9033 C.3       23 UNK        -0.0398 
     18 CA          0.7058  -22.6118  -47.3614 C.3       11 UNK         0.1400 
     19 N           1.0117  -22.7529  -45.9444 N.am      11 UNK        -0.5000 
     20 C           1.1661  -23.9013  -45.2789 C.2       10 UNK         0.5000 
     21 O           1.0060  -25.0134  -45.7854 O.2       10 UNK        -0.5000 
     22 CA          1.6155  -23.7586  -43.8074 C.3       10 UNK         0.1400 
     23 CB          2.1481  -25.0726  -43.2006 C.3       10 UNK        -0.1800 
     24 N           2.5806  -22.6650  -43.6272 N.am      10 UNK        -0.5000 
     25 C           3.7847  -22.5278  -44.2067 C.2       9 UNK         0.5000 
     26 O           4.3171  -23.3987  -44.8960 O.2       9 UNK        -0.5000 
     27 CA          4.5118  -21.1779  -44.0240 C.3       9 UNK         0.1400 
     28 CB          4.4993  -20.3836  -45.3404 C.3       9 UNK        -0.1800 
     29 N           3.9358  -20.3383  -42.9732 N.am      9 UNK        -0.5000 
     30 C           4.1098  -20.5275  -41.6589 C.2       8 UNK         0.5000 
     31 O           4.8400  -21.3973  -41.1826 O.2       8 UNK        -0.5000 
     32 CA          3.2982  -19.6144  -40.7200 C.3       8 UNK         0.1400 
     33 CB          4.0497  -18.3009  -40.4566 C.3       8 UNK        -0.1800 
     34 N           1.9561  -19.3187  -41.2302 N.am      8 UNK        -0.5000 
     35 C           0.9972  -20.2360  -41.4240 C.2       7 UNK         0.5000 
     36 O           1.1320  -21.4312  -41.1631 O.2       7 UNK        -0.5000 
     37 CA         -0.3157  -19.7535  -42.0614 C.3       7 UNK         0.1400 
     38 CB         -1.2196  -19.0911  -41.0112 C.3       7 UNK        -0.1800 
     39 N          -0.0993  -18.8415  -43.1860 N.am      7 UNK        -0.5000 
     40 C           0.4909  -19.1831  -44.3407 C.2       6 UNK         0.5000 
     41 O           0.8902  -20.3188  -44.5910 O.2       6 UNK        -0.5000 
     42 CA          0.7202  -18.0662  -45.3755 C.3       6 UNK         0.1400 
     43 CB         -0.5456  -17.8048  -46.2054 C.3       6 UNK        -0.1800 
     44 N           1.1822  -16.8228  -44.7619 N.am      6 UNK        -0.5000 
     45 C           2.3336  -16.6987  -44.0857 C.2       5 UNK         0.5000 
     46 O           3.1588  -17.6042  -43.9617 O.2       5 UNK        -0.5000 
     47 CA          2.5682  -15.3578  -43.3727 C.3       5 UNK         0.1400 
     48 CB          3.0641  -14.2857  -44.3553 C.3       5 UNK        -0.1800 
     49 N           1.3596  -14.8940  -42.6893 N.am      5 UNK        -0.5000 
     50 C           0.8393  -15.4794  -41.6004 C.2       4 UNK         0.5000 
     51 O           1.3471  -16.4494  -41.0390 O.2       4 UNK        -0.5000 
     52 CA         -0.4884  -14.9082  -41.0689 C.3       4 UNK         0.1400 
     53 CB         -0.2287  -13.7089  -40.1453 C.3       4 UNK        -0.1800 
     54 N          -1.4009  -14.5055  -42.1393 N.am      4 UNK        -0.5000 
     55 C          -1.9834  -15.3514  -43.0015 C.2       3 UNK         0.5000 
     56 O          -1.8449  -16.5720  -42.9612 O.2       3 UNK        -0.5000 
     57 CA         -2.8097  -14.7192  -44.1370 C.3       3 UNK         0.1400 
     58 CB         -4.2567  -14.4757  -43.6845 C.3       3 UNK        -0.1800 
     59 N          -2.2304  -13.4658  -44.6304 N.am      3 UNK        -0.5000 
     60 C          -1.0204  -13.3730  -45.1963 C.2       2 UNK         0.5000 
     61 O          -0.2719  -14.3389  -45.3657 O.2       2 UNK        -0.5000 
     62 CA         -0.5365  -11.9625  -45.5602 C.3       2 UNK         0.1400 
     63 CB          0.2013  -11.3345  -44.3666 C.3       2 UNK        -0.1800 
     64 N           0.3819  -12.0407  -46.6923 N.am      2 UNK        -0.5000 
     65 C           0.0290  -11.8494  -47.9677 C.2       1 UNK         0.5000 
     66 O          -1.0920  -11.4685  -48.3269 O.2       1 UNK        -0.5000 
     67 C          -0.8192  -22.6744  -47.5915 C.2       11 UNK         0.5000 
     68 O          -1.6020  -22.3005  -46.7117 O.2       11 UNK        -0.5000 
     69 N          -1.2045  -23.1249  -48.7945 N.am      12 UNK        -0.5000 
     70 CA         -2.5723  -23.3940  -49.2472 C.3       12 UNK         0.1400 
     71 CB         -2.5368  -23.7953  -50.7297 C.3       12 UNK        -0.1800 
     72 C          -3.5725  -22.2465  -49.0245 C.2       12 UNK         0.5000 
     73 O          -4.7031  -22.5129  -48.6267 O.2       12 UNK        -0.5000 
     74 N          -3.1300  -20.9946  -49.2103 N.am      13 UNK        -0.5000 
     75 CA         -3.9413  -19.7865  -49.0146 C.3       13 UNK         0.1400 
     76 CB         -3.1469  -18.5511  -49.4676 C.3       13 UNK        -0.1800 
     77 C          -4.4599  -19.5965  -47.5726 C.2       13 UNK         0.5000 
     78 O          -5.4555  -18.8988  -47.3825 O.2       13 UNK        -0.5000 
     79 N          -3.7992  -20.2276  -46.5931 N.am      14 UNK        -0.5000 
     80 CA         -4.2634  -20.3154  -45.2117 C.3       14 UNK         0.1400 
     81 CB         -3.1033  -19.9832  -44.2656 C.3       14 UNK        -0.1800 
     82 C          -4.8166  -21.7174  -44.9112 C.2       14 UNK         0.5000 
     83 O          -5.8843  -21.8289  -44.3092 O.2       14 UNK        -0.5000 
     84 N          -4.0828  -22.7605  -45.3257 N.am      15 UNK        -0.5000 
     85 CA         -4.3637  -24.1588  -44.9925 C.3       15 UNK         0.1400 
     86 CB         -3.1309  -25.0090  -45.3376 C.3       15 UNK        -0.1800 
     87 C          -5.6261  -24.7398  -45.6598 C.2       15 UNK         0.5000 
     88 O          -6.2745  -25.6014  -45.0644 O.2       15 UNK        -0.5000 
     89 N          -5.9457  -24.2772  -46.8738 N.am      16 UNK        -0.5000 
     90 CA         -7.0569  -24.7544  -47.7007 C.3       16 UNK         0.1400 
     91 CB         -6.4796  -25.6089  -48.8438 C.3       16 UNK        -0.1800 
     92 C          -7.9126  -23.5964  -48.2517 C.2       16 UNK         0.5000 
     93 O          -8.7873  -23.8400  -49.0844 O.2       16 UNK        -0.5000 
     94 N          -7.6373  -22.3613  -47.8063 N.am      17 UNK        -0.5000 
     95 CA         -8.2192  -21.0716  -48.2049 C.3       17 UNK         0.1400 
     96 CB         -9.7341  -21.0242  -47.9297 C.3       17 UNK        -0.1800 
     97 C          -7.8998  -20.6369  -49.6518 C.2       17 UNK         0.5000 
     98 O          -7.5748  -19.4700  -49.8724 O.2       17 UNK        -0.5000 
     99 N          -7.9921  -21.5614  -50.6132 N.am      18 UNK        -0.5000 
    100 CA        -7.6189  -21.3570  -52.0098 C.3       18 UNK         0.1400 
    101 CB        -8.2810  -22.4444  -52.8701 C.3       18 UNK        -0.1800 
    102 C         -6.0899  -21.3968  -52.1667 C.2       18 UNK         0.5000 
    103 O         -5.4587  -22.3428  -51.6979 O.2       18 UNK        -0.5000 
    104 N         -5.5239  -20.3944  -52.8506 N.am      19 UNK        -0.5000 
    105 CA        -4.0804  -20.2397  -53.0726 C.3       19 UNK         0.1400 
    106 CB        -3.7995  -18.7825  -53.4731 C.3       19 UNK        -0.1800 
    107 C         -3.4770  -21.2203  -54.1028 C.2       19 UNK         0.5000 
    108 O         -2.2566  -21.2296  -54.2756 O.2       19 UNK        -0.5000 
    109 N         -4.3286  -22.0168  -54.7670 N.am      20 UNK        -0.5000 
    110 CA        -3.9980  -23.0339  -55.7685 C.3       20 UNK         0.1400 
    111 CB        -3.2398  -24.2107  -55.1116 C.3       20 UNK        -0.1800 
    112 C         -3.2839  -22.4095  -56.9849 C.2       20 UNK         0.5000 
    113 O         -3.8092  -21.4528  -57.5585 O.2       20 UNK        -0.5000 
    114 N         -2.0999  -22.9245  -57.3452 N.am      21 UNK        -0.5000 
    115 CA        -1.2654  -22.4449  -58.4528 C.3       21 UNK         0.1400 
    116 CB        -0.0657  -23.3909  -58.6165 C.3       21 UNK        -0.1800 
    117 C         -0.7853  -20.9856  -58.2998 C.2       21 UNK         0.5000 
    118 O         -0.4808  -20.3425  -59.3051 O.2       21 UNK        -0.5000 
    119 N         -0.7455  -20.4874  -57.0577 N.am      22 UNK        -0.5000 
    120 CA        -0.4832  -19.0813  -56.7211 C.3       22 UNK         0.1400 
    121 C         -1.7362  -18.1590  -56.8650 C.2       22 UNK         0.5000 
    122 N         -2.9302  -18.6748  -57.1385 N.am      22 UNK        -0.7600 
    123 O         -1.6265  -16.9419  -56.7500 O.2       22 UNK        -0.5000 
    124 C124        0.1696  -18.9863  -55.3182 C.3       23 UNK        -0.0398 
    125 S125        1.1864  -17.4884  -55.0674 S.3       23 UNK        -0.2404 
    126 C126        0.2571  -16.6261  -53.7581 C.3       23 UNK        -0.0205 
    127 H127        0.3274   -9.5526  -51.9815 H         1 UNK         0.0600 
    128 H128        1.5500  -10.2231  -53.0674 H         1 UNK         0.0600 
    129 H129        1.9670   -8.8914  -51.9808 H         1 UNK         0.0600 
    130 H130       -0.0482  -10.8224  -50.1588 H         1 UNK         0.3000 
    131 H131        2.0827  -11.9115  -48.5865 H         1 UNK         0.0600 
    132 H132        0.0627  -13.9553  -49.6947 H         1 UNK         0.0800 
    133 H133        1.6069  -13.6857  -50.4487 H         1 UNK         0.0800 
    134 H134        3.4761  -16.4808  -48.8627 H         1 UNK         0.0800 
    135 H135        3.4721  -15.2383  -50.0870 H         1 UNK         0.0800 
    136 H136        1.9324  -15.3877  -52.0017 H         1 UNK         0.1150 
    137 H137       -0.5034  -18.8883  -52.4162 H         1 UNK         0.1150 
    138 H138        1.6736  -18.2218  -48.7931 H         1 UNK         0.1150 
    139 H139       -0.5372  -19.8424  -49.1168 H         1 UNK         0.0800 
    140 H140       -0.6659  -20.4793  -50.7401 H         1 UNK         0.0800 
    141 H141        0.8653  -20.4283  -47.4719 H         1 UNK         0.0800 
    142 H142        2.3834  -21.2584  -47.5830 H         1 UNK         0.0800 
    143 H143        1.1617  -23.4541  -47.8868 H         1 UNK         0.0600 
    144 H144        1.0707  -21.8829  -45.4168 H         1 UNK         0.3000 
    145 H145        0.7251  -23.4727  -43.2457 H         1 UNK         0.0600 
    146 H146        2.4472  -24.9324  -42.1619 H         1 UNK         0.0600 
    147 H147        1.3809  -25.8476  -43.2154 H         1 UNK         0.0600 
    148 H148        3.0088  -25.4550  -43.7496 H         1 UNK         0.0600 
    149 H149        2.2385  -21.8833  -43.0832 H         1 UNK         0.3000 
    150 H150        5.5502  -21.3972  -43.7673 H         1 UNK         0.0600 
    151 H151        4.9349  -20.9625  -46.1558 H         1 UNK         0.0600 
    152 H152        5.0771  -19.4636  -45.2503 H         1 UNK         0.0600 
    153 H153        3.4853  -20.1115  -45.6342 H         1 UNK         0.0600 
    154 H154        3.3683  -19.5548  -43.2798 H         1 UNK         0.3000 
    155 H155        3.1845  -20.1373  -39.7683 H         1 UNK         0.0600 
    156 H156        5.0490  -18.4934  -40.0641 H         1 UNK         0.0600 
    157 H157        3.5253  -17.6876  -39.7236 H         1 UNK         0.0600 
    158 H158        4.1613  -17.7114  -41.3670 H         1 UNK         0.0600 
    159 H159        1.7498  -18.3432  -41.4248 H         1 UNK         0.3000 
    160 H160       -0.8344  -20.6351  -42.4426 H         1 UNK         0.0600 
    161 H161       -0.7705  -18.1840  -40.6075 H         1 UNK         0.0600 
    162 H162       -1.4060  -19.7658  -40.1748 H         1 UNK         0.0600 
    163 H163       -2.1879  -18.8247  -41.4343 H         1 UNK         0.0600 
    164 H164       -0.4703  -17.9012  -43.0828 H         1 UNK         0.3000 
    165 H165        1.5031  -18.4065  -46.0561 H         1 UNK         0.0600 
    166 H166       -0.3422  -17.1112  -47.0221 H         1 UNK         0.0600 
    167 H167       -0.9251  -18.7277  -46.6456 H         1 UNK         0.0600 
    168 H168       -1.3437  -17.3779  -45.5985 H         1 UNK         0.0600 
    169 H169        0.5795  -16.0098  -44.8558 H         1 UNK         0.3000 
    170 H170        3.3460  -15.5107  -42.6213 H         1 UNK         0.0600 
    171 H171        3.2670  -13.3447  -43.8440 H         1 UNK         0.0600 
    172 H172        3.9913  -14.6009  -44.8356 H         1 UNK         0.0600 
    173 H173        2.3407  -14.0909  -45.1463 H         1 UNK         0.0600 
    174 H174        0.8481  -14.1442  -43.1284 H         1 UNK         0.3000 
    175 H175       -0.9770  -15.6898  -40.4836 H         1 UNK         0.0600 
    176 H176        0.4368  -13.9849  -39.3261 H         1 UNK         0.0600 
    177 H177        0.2356  -12.8795  -40.6805 H         1 UNK         0.0600 
    178 H178       -1.1554  -13.3456  -39.7009 H         1 UNK         0.0600 
    179 H179       -1.5732  -13.5170  -42.2453 H         1 UNK         0.3000 
    180 H180       -2.8271  -15.4293  -44.9665 H         1 UNK         0.0600 
    181 H181       -4.7147  -15.4003  -43.3302 H         1 UNK         0.0600 
    182 H182       -4.3095  -13.7504  -42.8716 H         1 UNK         0.0600 
    183 H183       -4.8699  -14.1054  -44.5063 H         1 UNK         0.0600 
    184 H184       -2.7876  -12.6317  -44.5125 H         1 UNK         0.3000 
    185 H185       -1.3990  -11.3392  -45.8061 H         1 UNK         0.0600 
    186 H186       -0.4542  -11.2499  -43.4989 H         1 UNK         0.0600 
    187 H187        1.0684  -11.9245  -44.0678 H         1 UNK         0.0600 
    188 H188        0.5500  -10.3299  -44.6068 H         1 UNK         0.0600 
    189 H189        1.2929  -12.4342  -46.4932 H         1 UNK         0.3000 
    190 H190       -0.4796  -23.3746  -49.4523 H         1 UNK         0.3000 
    191 H191       -2.9339  -24.2515  -48.6775 H         1 UNK         0.0600 
    192 H192       -1.8824  -24.6513  -50.8946 H         1 UNK         0.0600 
    193 H193       -2.1888  -22.9778  -51.3628 H         1 UNK         0.0600 
    194 H194       -3.5297  -24.0807  -51.0794 H         1 UNK         0.0600 
    195 H195       -2.1770  -20.8671  -49.5078 H         1 UNK         0.3000 
    196 H196       -4.8152  -19.8802  -49.6620 H         1 UNK         0.0600 
    197 H197       -3.7805  -17.6633  -49.4598 H         1 UNK         0.0600 
    198 H198       -2.7684  -18.6651  -50.4831 H         1 UNK         0.0600 
    199 H199       -2.3022  -18.3472  -48.8096 H         1 UNK         0.0600 
    200 H200       -3.0013  -20.8034  -46.8359 H         1 UNK         0.3000 
    201 H201       -5.0629  -19.5963  -45.0218 H         1 UNK         0.0600 
    202 H202       -3.3982  -20.1094  -43.2234 H         1 UNK         0.0600 
    203 H203       -2.2410  -20.6257  -44.4467 H         1 UNK         0.0600 
    204 H204       -2.7851  -18.9483  -44.3874 H         1 UNK         0.0600 
    205 H205       -3.2051  -22.5847  -45.8078 H         1 UNK         0.3000 
    206 H206       -4.5152  -24.2155  -43.9124 H         1 UNK         0.0600 
    207 H207       -2.2452  -24.6547  -44.8094 H         1 UNK         0.0600 
    208 H208       -3.2824  -26.0516  -45.0551 H         1 UNK         0.0600 
    209 H209       -2.9124  -24.9871  -46.4050 H         1 UNK         0.0600 
    210 H210       -5.3525  -23.5781  -47.3176 H         1 UNK         0.3000 
    211 H211       -7.7311  -25.3772  -47.1099 H         1 UNK         0.0600 
    212 H212       -7.2730  -26.0351  -49.4589 H         1 UNK         0.0600 
    213 H213       -5.8901  -26.4398  -48.4561 H         1 UNK         0.0600 
    214 H214       -5.8370  -25.0180  -49.4983 H         1 UNK         0.0600 
    215 H215       -6.8746  -22.2902  -47.1488 H         1 UNK         0.3000 
    216 H216       -7.7529  -20.3335  -47.5511 H         1 UNK         0.0600 
    217 H217      -10.1299  -20.0253  -48.1172 H         1 UNK         0.0600 
    218 H218       -9.9539  -21.2712  -46.8911 H         1 UNK         0.0600 
    219 H219      -10.2885  -21.7157  -48.5645 H         1 UNK         0.0600 
    220 H220       -8.2493  -22.5034  -50.3340 H         1 UNK         0.3000 
    221 H221       -7.9928  -20.3844  -52.3371 H         1 UNK         0.0600 
    222 H222       -7.9558  -23.4436  -52.5764 H         1 UNK         0.0600 
    223 H223       -9.3671  -22.4078  -52.7835 H         1 UNK         0.0600 
    224 H224       -8.0340  -22.3140  -53.9244 H         1 UNK         0.0600 
    225 H225       -6.1117  -19.6606  -53.2202 H         1 UNK         0.3000 
    226 H226       -3.5709  -20.4324  -52.1265 H         1 UNK         0.0600 
    227 H227       -2.7309  -18.6028  -53.5885 H         1 UNK         0.0600 
    228 H228       -4.2778  -18.5270  -54.4193 H         1 UNK         0.0600 
    229 H229       -4.1604  -18.0876  -52.7145 H         1 UNK         0.0600 
    230 H230       -5.3120  -21.8987  -54.5750 H         1 UNK         0.3000 
    231 H231       -4.9474  -23.4208  -56.1412 H         1 UNK         0.0600 
    232 H232       -3.8083  -24.6167  -54.2745 H         1 UNK         0.0600 
    233 H233       -2.2636  -23.9124  -54.7275 H         1 UNK         0.0600 
    234 H234       -3.0879  -25.0276  -55.8181 H         1 UNK         0.0600 
    235 H235       -1.7311  -23.6959  -56.8080 H         1 UNK         0.3000 
    236 H236       -1.8661  -22.4932  -59.3634 H         1 UNK         0.0600 
    237 H237       -0.3916  -24.4120  -58.8162 H         1 UNK         0.0600 
    238 H238        0.5640  -23.0835  -59.4525 H         1 UNK         0.0600 
    239 H239        0.5594  -23.4051  -57.7227 H         1 UNK         0.0600 
    240 H240       -1.0505  -21.0738  -56.2911 H         1 UNK         0.3000 
    241 H241        0.2446  -18.7074  -57.4439 H         1 UNK         0.0600 
    242 H242       -3.7148  -18.0522  -57.2444 H         1 UNK         0.3800 
    243 H243       -3.0665  -19.6716  -57.2733 H         1 UNK         0.3800 
    244 H244       -0.5954  -19.0759  -54.5508 H         1 UNK         0.0800 
    245 H245        0.8393  -19.8333  -55.1609 H         1 UNK         0.0800 
    246 H246       -0.8156  -16.7662  -53.9006 H         1 UNK         0.0800 
    247 H247        0.4324  -15.5542  -53.8625 H         1 UNK         0.0800 
@<TRIPOS>BOND
     1    1    2 1    
     2    1  127 1    
     3    1  128 1    
     4    1  129 1    
     5    2    3 2    
     6    2    4 am   BACKBONE|DICT|INTERRES
     7    4    5 1    
     8    4  130 1    
     9    5    6 1    
    10    5   65 1    
    11    5  131 1    
    12    6    7 1    
    13    6  132 1    
    14    6  133 1    
    15    7    8 1    
    16    8    9 1    
    17    8  134 1    
    18    8  135 1    
    19    9   10 ar   
    20    9   14 ar   
    21   10   11 ar   
    22   10  136 1    
    23   11   12 ar   
    24   11  126 1    
    25   12   13 ar   
    26   12  137 1    
    27   13   14 ar   
    28   13   15 1    
    29   14  138 1    
    30   15   16 1    
    31   15  139 1    
    32   15  140 1    
    33   16   17 1    
    34   17   18 1    
    35   17  141 1    
    36   17  142 1    
    37   18   19 1    
    38   18   67 1    
    39   18  143 1    
    40   19   20 am   BACKBONE|DICT|INTERRES
    41   19  144 1    
    42   20   21 2    
    43   20   22 1    
    44   22   23 1    
    45   22   24 1    
    46   22  145 1    
    47   23  146 1    
    48   23  147 1    
    49   23  148 1    
    50   24   25 am   BACKBONE|DICT|INTERRES
    51   24  149 1    
    52   25   26 2    
    53   25   27 1    
    54   27   28 1    
    55   27   29 1    
    56   27  150 1    
    57   28  151 1    
    58   28  152 1    
    59   28  153 1    
    60   29   30 am   BACKBONE|DICT|INTERRES
    61   29  154 1    
    62   30   31 2    
    63   30   32 1    
    64   32   33 1    
    65   32   34 1    
    66   32  155 1    
    67   33  156 1    
    68   33  157 1    
    69   33  158 1    
    70   34   35 am   BACKBONE|DICT|INTERRES
    71   34  159 1    
    72   35   36 2    
    73   35   37 1    
    74   37   38 1    
    75   37   39 1    
    76   37  160 1    
    77   38  161 1    
    78   38  162 1    
    79   38  163 1    
    80   39   40 am   BACKBONE|DICT|INTERRES
    81   39  164 1    
    82   40   41 2    
    83   40   42 1    
    84   42   43 1    
    85   42   44 1    
    86   42  165 1    
    87   43  166 1    
    88   43  167 1    
    89   43  168 1    
    90   44   45 am   BACKBONE|DICT|INTERRES
    91   44  169 1    
    92   45   46 2    
    93   45   47 1    
    94   47   48 1    
    95   47   49 1    
    96   47  170 1    
    97   48  171 1    
    98   48  172 1    
    99   48  173 1    
   100   49   50 am   BACKBONE|DICT|INTERRES
   101   49  174 1    
   102   50   51 2    
   103   50   52 1    
   104   52   53 1    
   105   52   54 1    
   106   52  175 1    
   107   53  176 1    
   108   53  177 1    
   109   53  178 1    
   110   54   55 am   BACKBONE|DICT|INTERRES
   111   54  179 1    
   112   55   56 2    
   113   55   57 1    
   114   57   58 1    
   115   57   59 1    
   116   57  180 1    
   117   58  181 1    
   118   58  182 1    
   119   58  183 1    
   120   59   60 am   BACKBONE|DICT|INTERRES
   121   59  184 1    
   122   60   61 2    
   123   60   62 1    
   124   62   63 1    
   125   62   64 1    
   126   62  185 1    
   127   63  186 1    
   128   63  187 1    
   129   63  188 1    
   130   64   65 am   BACKBONE|DICT|INTERRES
   131   64  189 1    
   132   65   66 2    
   133   67   68 2    
   134   67   69 am   BACKBONE|DICT|INTERRES
   135   69   70 1    
   136   69  190 1    
   137   70   71 1    
   138   70   72 1    
   139   70  191 1    
   140   71  192 1    
   141   71  193 1    
   142   71  194 1    
   143   72   73 2    
   144   72   74 am   BACKBONE|DICT|INTERRES
   145   74   75 1    
   146   74  195 1    
   147   75   76 1    
   148   75   77 1    
   149   75  196 1    
   150   76  197 1    
   151   76  198 1    
   152   76  199 1    
   153   77   78 2    
   154   77   79 am   BACKBONE|DICT|INTERRES
   155   79   80 1    
   156   79  200 1    
   157   80   81 1    
   158   80   82 1    
   159   80  201 1    
   160   81  202 1    
   161   81  203 1    
   162   81  204 1    
   163   82   83 2    
   164   82   84 am   BACKBONE|DICT|INTERRES
   165   84   85 1    
   166   84  205 1    
   167   85   86 1    
   168   85   87 1    
   169   85  206 1    
   170   86  207 1    
   171   86  208 1    
   172   86  209 1    
   173   87   88 2    
   174   87   89 am   BACKBONE|DICT|INTERRES
   175   89   90 1    
   176   89  210 1    
   177   90   91 1    
   178   90   92 1    
   179   90  211 1    
   180   91  212 1    
   181   91  213 1    
   182   91  214 1    
   183   92   93 2    
   184   92   94 am   BACKBONE|DICT|INTERRES
   185   94   95 1    
   186   94  215 1    
   187   95   96 1    
   188   95   97 1    
   189   95  216 1    
   190   96  217 1    
   191   96  218 1    
   192   96  219 1    
   193   97   98 2    
   194   97   99 am   BACKBONE|DICT|INTERRES
   195   99  100 1    
   196   99  220 1    
   197  100  101 1    
   198  100  102 1    
   199  100  221 1    
   200  101  222 1    
   201  101  223 1    
   202  101  224 1    
   203  102  103 2    
   204  102  104 am   BACKBONE|DICT|INTERRES
   205  104  105 1    
   206  104  225 1    
   207  105  106 1    
   208  105  107 1    
   209  105  226 1    
   210  106  227 1    
   211  106  228 1    
   212  106  229 1    
   213  107  108 2    
   214  107  109 am   BACKBONE|DICT|INTERRES
   215  109  110 1    
   216  109  230 1    
   217  110  111 1    
   218  110  112 1    
   219  110  231 1    
   220  111  232 1    
   221  111  233 1    
   222  111  234 1    
   223  112  113 2    
   224  112  114 am   BACKBONE|DICT|INTERRES
   225  114  115 1    
   226  114  235 1    
   227  115  116 1    
   228  115  117 1    
   229  115  236 1    
   230  116  237 1    
   231  116  238 1    
   232  116  239 1    
   233  117  118 2    
   234  117  119 am   BACKBONE|DICT|INTERRES
   235  119  120 1    
   236  119  240 1    
   237  120  121 1    
   238  120  124 1    
   239  120  241 1    
   240  121  122 am   BACKBONE|DICT|INTERRES
   241  121  123 2    
   242  122  242 1    
   243  122  243 1    
   244  124  125 1    
   245  124  244 1    
   246  124  245 1    
   247  125  126 1    
   248  126  246 1    
   249  126  247 1    
@<TRIPOS>SUBSTRUCTURE
     1 UNK         1 GROUP             0       ****    0 ROOT    
