@<TRIPOS>MOLECULE
3R540
247   249    1
SMALL
USER_CHARGES


@<TRIPOS>ATOM
      1 CA          0.5203  -11.0719  -48.5596 C.3       0 UNK        -0.1800 
      2 C           1.8196  -11.6288  -47.9976 C.2       0 UNK         0.5000 
      3 O           2.7533  -10.8590  -47.7701 O.2       0 UNK        -0.5000 
      4 N           1.8849  -12.9513  -47.7797 N.am      1 UNK        -0.5000 
      5 CA          3.0627  -13.6871  -47.2869 C.3       1 UNK         0.1400 
      6 C6          2.8053  -15.2066  -47.1535 C.3       23 UNK        -0.0398 
      7 S7          2.3193  -15.9925  -48.7232 S.3       23 UNK        -0.2404 
      8 C8          3.8461  -16.8475  -49.2156 C.3       23 UNK        -0.0205 
      9 C9          3.5734  -17.8213  -50.3512 C.ar      23 UNK        -0.0193 
     10 C10         3.2290  -17.3392  -51.6176 C.ar      23 UNK        -0.1150 
     11 C11         2.9492  -18.2229  -52.6630 C.ar      23 UNK        -0.0193 
     12 C12         3.0413  -19.5985  -52.4416 C.ar      23 UNK        -0.1150 
     13 C13         3.3845  -20.0941  -51.1808 C.ar      23 UNK        -0.0193 
     14 C14         3.6490  -19.2018  -50.1374 C.ar      23 UNK        -0.1150 
     15 C15         3.4579  -21.5956  -50.9584 C.3       23 UNK        -0.0205 
     16 S16         1.8098  -22.2880  -50.6211 S.3       23 UNK        -0.2404 
     17 C17         1.6261  -22.0078  -48.8277 C.3       23 UNK        -0.0398 
     18 CA          1.1230  -23.2868  -48.1131 C.3       11 UNK         0.1400 
     19 N           1.5757  -23.3659  -46.7229 N.am      11 UNK        -0.5000 
     20 C           1.5562  -24.4844  -45.9844 C.2       10 UNK         0.5000 
     21 O           1.1708  -25.5754  -46.4042 O.2       10 UNK        -0.5000 
     22 CA          2.0125  -24.3523  -44.5200 C.3       10 UNK         0.1400 
     23 CB          3.5423  -24.4445  -44.4192 C.3       10 UNK        -0.1800 
     24 N           1.5590  -23.1072  -43.8985 N.am      10 UNK        -0.5000 
     25 C           0.2760  -22.8212  -43.6385 C.2       9 UNK         0.5000 
     26 O          -0.6577  -23.5854  -43.8776 O.2       9 UNK        -0.5000 
     27 CA         -0.0181  -21.4247  -43.0627 C.3       9 UNK         0.1400 
     28 CB          0.1900  -21.4125  -41.5409 C.3       9 UNK        -0.1800 
     29 N           0.7680  -20.3462  -43.6716 N.am      9 UNK        -0.5000 
     30 C           0.7795  -20.0521  -44.9780 C.2       8 UNK         0.5000 
     31 O           0.2315  -20.7376  -45.8443 O.2       8 UNK        -0.5000 
     32 CA          1.5440  -18.7884  -45.4024 C.3       8 UNK         0.1400 
     33 CB          2.9383  -19.1531  -45.9325 C.3       8 UNK        -0.1800 
     34 N           0.8007  -18.0915  -46.4490 N.am      8 UNK        -0.5000 
     35 C          -0.3495  -17.4413  -46.2421 C.2       7 UNK         0.5000 
     36 O          -0.8304  -17.2294  -45.1250 O.2       7 UNK        -0.5000 
     37 CA         -1.1096  -16.9899  -47.4951 C.3       7 UNK         0.1400 
     38 CB         -2.1365  -18.0582  -47.8995 C.3       7 UNK        -0.1800 
     39 N          -1.8048  -15.7467  -47.1874 N.am      7 UNK        -0.5000 
     40 C          -1.4998  -14.5477  -47.6936 C.2       6 UNK         0.5000 
     41 O          -0.6740  -14.3579  -48.5854 O.2       6 UNK        -0.5000 
     42 CA         -2.2076  -13.3426  -47.0515 C.3       6 UNK         0.1400 
     43 CB         -3.5991  -13.1343  -47.6673 C.3       6 UNK        -0.1800 
     44 N          -2.3297  -13.4578  -45.5984 N.am      6 UNK        -0.5000 
     45 C          -1.2989  -13.5098  -44.7443 C.2       5 UNK         0.5000 
     46 O          -0.1133  -13.4710  -45.0845 O.2       5 UNK        -0.5000 
     47 CA         -1.6750  -13.5241  -43.2543 C.3       5 UNK         0.1400 
     48 CB         -0.6744  -14.3136  -42.3987 C.3       5 UNK        -0.1800 
     49 N          -1.7253  -12.1420  -42.7922 N.am      5 UNK        -0.5000 
     50 C          -2.7850  -11.3363  -42.9451 C.2       4 UNK         0.5000 
     51 O          -3.8954  -11.7301  -43.3054 O.2       4 UNK        -0.5000 
     52 CA         -2.5585   -9.8324  -42.6985 C.3       4 UNK         0.1400 
     53 CB         -2.8785   -9.4688  -41.2408 C.3       4 UNK        -0.1800 
     54 N          -1.1972   -9.3942  -43.0148 N.am      4 UNK        -0.5000 
     55 C          -0.6323   -9.4258  -44.2307 C.2       3 UNK         0.5000 
     56 O          -1.2178   -9.7905  -45.2509 O.2       3 UNK        -0.5000 
     57 CA          0.8415   -8.9864  -44.3282 C.3       3 UNK         0.1400 
     58 CB          1.2677   -7.9940  -43.2231 C.3       3 UNK        -0.1800 
     59 N           1.7599  -10.1278  -44.3741 N.am      3 UNK        -0.5000 
     60 C           1.9097  -11.1007  -43.4620 C.2       2 UNK         0.5000 
     61 O           1.2191  -11.2158  -42.4471 O.2       2 UNK        -0.5000 
     62 CA          3.0175  -12.1168  -43.7745 C.3       2 UNK         0.1400 
     63 CB          3.2612  -13.1681  -42.6755 C.3       2 UNK        -0.1800 
     64 N           2.7065  -12.7687  -45.0396 N.am      2 UNK        -0.5000 
     65 C           3.6103  -13.1439  -45.9503 C.2       1 UNK         0.5000 
     66 O           4.8281  -13.0573  -45.7843 O.2       1 UNK        -0.5000 
     67 C          -0.4084  -23.4280  -48.2019 C.2       11 UNK         0.5000 
     68 O          -0.9035  -24.2006  -49.0215 O.2       11 UNK        -0.5000 
     69 N          -1.1243  -22.7243  -47.3133 N.am      12 UNK        -0.5000 
     70 CA         -2.5763  -22.7955  -47.1674 C.3       12 UNK         0.1400 
     71 CB         -3.0410  -21.7566  -46.1365 C.3       12 UNK        -0.1800 
     72 C          -3.0645  -24.2046  -46.7873 C.2       12 UNK         0.5000 
     73 O          -4.0585  -24.6666  -47.3438 O.2       12 UNK        -0.5000 
     74 N          -2.3385  -24.8805  -45.8850 N.am      13 UNK        -0.5000 
     75 CA         -2.5868  -26.2696  -45.4991 C.3       13 UNK         0.1400 
     76 CB         -1.7195  -26.6378  -44.2861 C.3       13 UNK        -0.1800 
     77 C          -2.3553  -27.2588  -46.6557 C.2       13 UNK         0.5000 
     78 O          -3.1786  -28.1520  -46.8549 O.2       13 UNK        -0.5000 
     79 N          -1.2638  -27.0691  -47.4120 N.am      14 UNK        -0.5000 
     80 CA         -0.9138  -27.8795  -48.5816 C.3       14 UNK         0.1400 
     81 CB          0.5129  -27.5384  -49.0382 C.3       14 UNK        -0.1800 
     82 C          -1.9130  -27.7210  -49.7432 C.2       14 UNK         0.5000 
     83 O          -2.2839  -28.7159  -50.3672 O.2       14 UNK        -0.5000 
     84 N          -2.3495  -26.4798  -49.9938 N.am      15 UNK        -0.5000 
     85 CA         -3.3616  -26.1346  -50.9947 C.3       15 UNK         0.1400 
     86 CB         -3.2513  -24.6348  -51.3034 C.3       15 UNK        -0.1800 
     87 C          -4.7999  -26.4899  -50.5640 C.2       15 UNK         0.5000 
     88 O          -5.6891  -26.5269  -51.4151 O.2       15 UNK        -0.5000 
     89 N          -4.9999  -26.7259  -49.2591 N.am      16 UNK        -0.5000 
     90 CA         -6.2654  -26.9890  -48.5649 C.3       16 UNK         0.1400 
     91 CB         -6.9260  -28.2859  -49.0767 C.3       16 UNK        -0.1800 
     92 C          -7.2291  -25.7807  -48.5567 C.2       16 UNK         0.5000 
     93 O          -8.4338  -25.9586  -48.3675 O.2       16 UNK        -0.5000 
     94 N          -6.6787  -24.5743  -48.7299 N.am      17 UNK        -0.5000 
     95 CA         -7.3516  -23.2818  -48.7160 C.3       17 UNK         0.1400 
     96 CB         -8.3105  -23.1388  -49.9147 C.3       17 UNK        -0.1800 
     97 C          -6.2773  -22.1890  -48.7756 C.2       17 UNK         0.5000 
     98 O          -5.2906  -22.3464  -49.4967 O.2       17 UNK        -0.5000 
     99 N          -6.4981  -21.0863  -48.0490 N.am      18 UNK        -0.5000 
    100 CA        -5.6642  -19.8830  -48.1286 C.3       18 UNK         0.1400 
    101 CB        -5.9063  -19.0114  -46.8873 C.3       18 UNK        -0.1800 
    102 C         -5.9295  -19.0808  -49.4169 C.2       18 UNK         0.5000 
    103 O         -5.0144  -18.4473  -49.9435 O.2       18 UNK        -0.5000 
    104 N         -7.1750  -19.1358  -49.9095 N.am      19 UNK        -0.5000 
    105 CA        -7.6010  -18.5461  -51.1748 C.3       19 UNK         0.1400 
    106 CB        -9.1330  -18.6208  -51.2772 C.3       19 UNK        -0.1800 
    107 C         -6.9259  -19.2640  -52.3562 C.2       19 UNK         0.5000 
    108 O         -7.1743  -20.4533  -52.5636 O.2       19 UNK        -0.5000 
    109 N         -6.0747  -18.5261  -53.0820 N.am      20 UNK        -0.5000 
    110 CA        -5.2665  -18.9788  -54.2191 C.3       20 UNK         0.1400 
    111 CB        -6.1638  -19.3431  -55.4212 C.3       20 UNK        -0.1800 
    112 C         -4.2644  -20.0953  -53.8507 C.2       20 UNK         0.5000 
    113 O         -4.0318  -21.0018  -54.6539 O.2       20 UNK        -0.5000 
    114 N         -3.6592  -19.9931  -52.6549 N.am      21 UNK        -0.5000 
    115 CA        -2.6713  -20.9416  -52.1191 C.3       21 UNK         0.1400 
    116 CB        -2.2470  -20.5039  -50.7085 C.3       21 UNK        -0.1800 
    117 C         -1.4299  -21.1444  -53.0137 C.2       21 UNK         0.5000 
    118 O         -0.8388  -22.2234  -52.9927 O.2       21 UNK        -0.5000 
    119 N         -1.0891  -20.1237  -53.8122 N.am      22 UNK        -0.5000 
    120 CA        -0.0527  -20.1737  -54.8555 C.3       22 UNK         0.1400 
    121 C         -0.3630  -21.1388  -56.0409 C.2       22 UNK         0.5000 
    122 N         -1.5916  -21.6103  -56.2256 N.am      22 UNK        -0.7600 
    123 O          0.5347  -21.4650  -56.8126 O.2       22 UNK        -0.5000 
    124 C124        0.2903  -18.7637  -55.4054 C.3       23 UNK        -0.0398 
    125 S125        0.7172  -17.5357  -54.1224 S.3       23 UNK        -0.2404 
    126 C126        2.5297  -17.6892  -54.0222 C.3       23 UNK        -0.0205 
    127 H127        0.7300  -10.2858  -49.2850 H         1 UNK         0.0600 
    128 H128       -0.0808  -10.6428  -47.7580 H         1 UNK         0.0600 
    129 H129       -0.0638  -11.8401  -49.0645 H         1 UNK         0.0600 
    130 H130        1.0816  -13.5270  -48.0148 H         1 UNK         0.3000 
    131 H131        3.8498  -13.5456  -48.0303 H         1 UNK         0.0600 
    132 H132        2.0086  -15.3879  -46.4296 H         1 UNK         0.0800 
    133 H133        3.6879  -15.7153  -46.7618 H         1 UNK         0.0800 
    134 H134        4.2690  -17.3741  -48.3593 H         1 UNK         0.0800 
    135 H135        4.5890  -16.1132  -49.5301 H         1 UNK         0.0800 
    136 H136        3.1546  -16.2730  -51.7807 H         1 UNK         0.1150 
    137 H137        2.8306  -20.2880  -53.2460 H         1 UNK         0.1150 
    138 H138        3.9101  -19.5824  -49.1603 H         1 UNK         0.1150 
    139 H139        3.8587  -22.0740  -51.8533 H         1 UNK         0.0800 
    140 H140        4.1513  -21.8403  -50.1525 H         1 UNK         0.0800 
    141 H141        0.9694  -21.1526  -48.6553 H         1 UNK         0.0800 
    142 H142        2.5970  -21.7205  -48.4242 H         1 UNK         0.0800 
    143 H143        1.5556  -24.1516  -48.6221 H         1 UNK         0.0600 
    144 H144        1.8252  -22.4962  -46.2760 H         1 UNK         0.3000 
    145 H145        1.5831  -25.1871  -43.9618 H         1 UNK         0.0600 
    146 H146        3.8703  -24.4305  -43.3796 H         1 UNK         0.0600 
    147 H147        3.9066  -25.3729  -44.8612 H         1 UNK         0.0600 
    148 H148        4.0323  -23.6194  -44.9376 H         1 UNK         0.0600 
    149 H149        2.2631  -22.4193  -43.6755 H         1 UNK         0.3000 
    150 H150       -1.0699  -21.2088  -43.2608 H         1 UNK         0.0600 
    151 H151       -0.3972  -22.1962  -41.0600 H         1 UNK         0.0600 
    152 H152       -0.1232  -20.4626  -41.1073 H         1 UNK         0.0600 
    153 H153        1.2352  -21.5753  -41.2751 H         1 UNK         0.0600 
    154 H154        1.2575  -19.7378  -43.0315 H         1 UNK         0.3000 
    155 H155        1.6541  -18.1235  -44.5430 H         1 UNK         0.0600 
    156 H156        2.8812  -19.7872  -46.8176 H         1 UNK         0.0600 
    157 H157        3.5160  -19.6901  -45.1792 H         1 UNK         0.0600 
    158 H158        3.5032  -18.2595  -46.1957 H         1 UNK         0.0600 
    159 H159        1.1158  -18.2390  -47.3963 H         1 UNK         0.3000 
    160 H160       -0.4085  -16.8542  -48.3195 H         1 UNK         0.0600 
    161 H161       -2.8630  -18.2401  -47.1072 H         1 UNK         0.0600 
    162 H162       -1.6471  -19.0081  -48.1190 H         1 UNK         0.0600 
    163 H163       -2.6811  -17.7571  -48.7938 H         1 UNK         0.0600 
    164 H164       -2.4254  -15.7843  -46.3914 H         1 UNK         0.3000 
    165 H165       -1.6104  -12.4538  -47.2566 H         1 UNK         0.0600 
    166 H166       -4.0717  -12.2329  -47.2764 H         1 UNK         0.0600 
    167 H167       -3.5328  -13.0218  -48.7503 H         1 UNK         0.0600 
    168 H168       -4.2612  -13.9770  -47.4643 H         1 UNK         0.0600 
    169 H169       -3.2664  -13.4243  -45.2206 H         1 UNK         0.3000 
    170 H170       -2.6522  -13.9989  -43.1418 H         1 UNK         0.0600 
    171 H171        0.2920  -13.8174  -42.3591 H         1 UNK         0.0600 
    172 H172       -1.0333  -14.4194  -41.3750 H         1 UNK         0.0600 
    173 H173       -0.5198  -15.3166  -42.7989 H         1 UNK         0.0600 
    174 H174       -0.8338  -11.7245  -42.5458 H         1 UNK         0.3000 
    175 H175       -3.2448   -9.2853  -43.3480 H         1 UNK         0.0600 
    176 H176       -2.2042   -9.9688  -40.5443 H         1 UNK         0.0600 
    177 H177       -2.7980   -8.3944  -41.0749 H         1 UNK         0.0600 
    178 H178       -3.8965   -9.7615  -40.9800 H         1 UNK         0.0600 
    179 H179       -0.6221   -9.1134  -42.2338 H         1 UNK         0.3000 
    180 H180        0.9424   -8.4710  -45.2846 H         1 UNK         0.0600 
    181 H181        1.2816   -8.4509  -42.2332 H         1 UNK         0.0600 
    182 H182        0.5939   -7.1371  -43.1843 H         1 UNK         0.0600 
    183 H183        2.2677   -7.6060  -43.4172 H         1 UNK         0.0600 
    184 H184        2.3386  -10.1769  -45.2023 H         1 UNK         0.3000 
    185 H185        3.9331  -11.5305  -43.8784 H         1 UNK         0.0600 
    186 H186        4.1912  -13.7068  -42.8571 H         1 UNK         0.0600 
    187 H187        3.3444  -12.7040  -41.6921 H         1 UNK         0.0600 
    188 H188        2.4632  -13.9061  -42.6329 H         1 UNK         0.0600 
    189 H189        1.7151  -12.8975  -45.2370 H         1 UNK         0.3000 
    190 H190       -0.6347  -22.0892  -46.6854 H         1 UNK         0.3000 
    191 H191       -3.0137  -22.5398  -48.1338 H         1 UNK         0.0600 
    192 H192       -4.1271  -21.7648  -46.0377 H         1 UNK         0.0600 
    193 H193       -2.7460  -20.7495  -46.4303 H         1 UNK         0.0600 
    194 H194       -2.6190  -21.9524  -45.1505 H         1 UNK         0.0600 
    195 H195       -1.5717  -24.4086  -45.4153 H         1 UNK         0.3000 
    196 H196       -3.6341  -26.3498  -45.2004 H         1 UNK         0.0600 
    197 H197       -1.8889  -27.6718  -43.9830 H         1 UNK         0.0600 
    198 H198       -1.9540  -26.0063  -43.4291 H         1 UNK         0.0600 
    199 H199       -0.6564  -26.5278  -44.5016 H         1 UNK         0.0600 
    200 H200       -0.6131  -26.3328  -47.1604 H         1 UNK         0.3000 
    201 H201       -0.9272  -28.9277  -48.2759 H         1 UNK         0.0600 
    202 H202        1.2367  -27.7339  -48.2468 H         1 UNK         0.0600 
    203 H203        0.6058  -26.4904  -49.3242 H         1 UNK         0.0600 
    204 H204        0.8024  -28.1413  -49.8998 H         1 UNK         0.0600 
    205 H205       -1.9383  -25.7031  -49.4799 H         1 UNK         0.3000 
    206 H206       -3.1481  -26.6878  -51.9115 H         1 UNK         0.0600 
    207 H207       -2.2667  -24.3859  -51.7000 H         1 UNK         0.0600 
    208 H208       -3.9897  -24.3274  -52.0451 H         1 UNK         0.0600 
    209 H209       -3.4106  -24.0309  -50.4096 H         1 UNK         0.0600 
    210 H210       -4.1995  -26.6212  -48.6493 H         1 UNK         0.3000 
    211 H211       -5.9935  -27.1540  -47.5214 H         1 UNK         0.0600 
    212 H212       -7.3079  -28.1747  -50.0917 H         1 UNK         0.0600 
    213 H213       -7.7661  -28.5725  -48.4432 H         1 UNK         0.0600 
    214 H214       -6.2196  -29.1160  -49.0712 H         1 UNK         0.0600 
    215 H215       -5.6680  -24.5157  -48.8063 H         1 UNK         0.3000 
    216 H216       -7.9102  -23.1898  -47.7826 H         1 UNK         0.0600 
    217 H217       -8.7595  -22.1452  -49.9413 H         1 UNK         0.0600 
    218 H218       -9.1280  -23.8575  -49.8677 H         1 UNK         0.0600 
    219 H219       -7.7889  -23.2858  -50.8616 H         1 UNK         0.0600 
    220 H220       -7.3184  -21.0333  -47.4622 H         1 UNK         0.3000 
    221 H221       -4.6135  -20.1791  -48.1347 H         1 UNK         0.0600 
    222 H222       -5.3102  -18.0989  -46.9271 H         1 UNK         0.0600 
    223 H223       -6.9520  -18.7141  -46.8001 H         1 UNK         0.0600 
    224 H224       -5.6294  -19.5400  -45.9750 H         1 UNK         0.0600 
    225 H225       -7.8546  -19.7047  -49.4292 H         1 UNK         0.3000 
    226 H226       -7.3117  -17.4930  -51.1772 H         1 UNK         0.0600 
    227 H227       -9.4916  -19.6504  -51.2421 H         1 UNK         0.0600 
    228 H228       -9.6099  -18.0717  -50.4651 H         1 UNK         0.0600 
    229 H229       -9.4817  -18.1838  -52.2137 H         1 UNK         0.0600 
    230 H230       -5.9243  -17.5665  -52.8024 H         1 UNK         0.3000 
    231 H231       -4.6593  -18.1231  -54.5175 H         1 UNK         0.0600 
    232 H232       -6.7595  -20.2356  -55.2279 H         1 UNK         0.0600 
    233 H233       -5.5645  -19.5383  -56.3113 H         1 UNK         0.0600 
    234 H234       -6.8471  -18.5296  -55.6646 H         1 UNK         0.0600 
    235 H235       -3.9327  -19.2378  -52.0402 H         1 UNK         0.3000 
    236 H236       -3.1713  -21.9073  -52.0365 H         1 UNK         0.0600 
    237 H237       -1.8020  -19.5084  -50.7131 H         1 UNK         0.0600 
    238 H238       -3.0976  -20.4930  -50.0283 H         1 UNK         0.0600 
    239 H239       -1.5116  -21.1925  -50.2895 H         1 UNK         0.0600 
    240 H240       -1.6197  -19.2682  -53.7525 H         1 UNK         0.3000 
    241 H241        0.8459  -20.5694  -54.3815 H         1 UNK         0.0600 
    242 H242       -1.7679  -22.2340  -56.9969 H         1 UNK         0.3800 
    243 H243       -2.3536  -21.3652  -55.6005 H         1 UNK         0.3800 
    244 H244        1.1048  -18.8188  -56.1296 H         1 UNK         0.0800 
    245 H245       -0.5638  -18.3673  -55.9574 H         1 UNK         0.0800 
    246 H246        2.9157  -18.3360  -54.8109 H         1 UNK         0.0800 
    247 H247        2.9760  -16.7081  -54.1917 H         1 UNK         0.0800 
@<TRIPOS>BOND
     1    1    2 1    
     2    1  127 1    
     3    1  128 1    
     4    1  129 1    
     5    2    3 2    
     6    2    4 am   BACKBONE|DICT|INTERRES
     7    4    5 1    
     8    4  130 1    
     9    5    6 1    
    10    5   65 1    
    11    5  131 1    
    12    6    7 1    
    13    6  132 1    
    14    6  133 1    
    15    7    8 1    
    16    8    9 1    
    17    8  134 1    
    18    8  135 1    
    19    9   10 ar   
    20    9   14 ar   
    21   10   11 ar   
    22   10  136 1    
    23   11   12 ar   
    24   11  126 1    
    25   12   13 ar   
    26   12  137 1    
    27   13   14 ar   
    28   13   15 1    
    29   14  138 1    
    30   15   16 1    
    31   15  139 1    
    32   15  140 1    
    33   16   17 1    
    34   17   18 1    
    35   17  141 1    
    36   17  142 1    
    37   18   19 1    
    38   18   67 1    
    39   18  143 1    
    40   19   20 am   BACKBONE|DICT|INTERRES
    41   19  144 1    
    42   20   21 2    
    43   20   22 1    
    44   22   23 1    
    45   22   24 1    
    46   22  145 1    
    47   23  146 1    
    48   23  147 1    
    49   23  148 1    
    50   24   25 am   BACKBONE|DICT|INTERRES
    51   24  149 1    
    52   25   26 2    
    53   25   27 1    
    54   27   28 1    
    55   27   29 1    
    56   27  150 1    
    57   28  151 1    
    58   28  152 1    
    59   28  153 1    
    60   29   30 am   BACKBONE|DICT|INTERRES
    61   29  154 1    
    62   30   31 2    
    63   30   32 1    
    64   32   33 1    
    65   32   34 1    
    66   32  155 1    
    67   33  156 1    
    68   33  157 1    
    69   33  158 1    
    70   34   35 am   BACKBONE|DICT|INTERRES
    71   34  159 1    
    72   35   36 2    
    73   35   37 1    
    74   37   38 1    
    75   37   39 1    
    76   37  160 1    
    77   38  161 1    
    78   38  162 1    
    79   38  163 1    
    80   39   40 am   BACKBONE|DICT|INTERRES
    81   39  164 1    
    82   40   41 2    
    83   40   42 1    
    84   42   43 1    
    85   42   44 1    
    86   42  165 1    
    87   43  166 1    
    88   43  167 1    
    89   43  168 1    
    90   44   45 am   BACKBONE|DICT|INTERRES
    91   44  169 1    
    92   45   46 2    
    93   45   47 1    
    94   47   48 1    
    95   47   49 1    
    96   47  170 1    
    97   48  171 1    
    98   48  172 1    
    99   48  173 1    
   100   49   50 am   BACKBONE|DICT|INTERRES
   101   49  174 1    
   102   50   51 2    
   103   50   52 1    
   104   52   53 1    
   105   52   54 1    
   106   52  175 1    
   107   53  176 1    
   108   53  177 1    
   109   53  178 1    
   110   54   55 am   BACKBONE|DICT|INTERRES
   111   54  179 1    
   112   55   56 2    
   113   55   57 1    
   114   57   58 1    
   115   57   59 1    
   116   57  180 1    
   117   58  181 1    
   118   58  182 1    
   119   58  183 1    
   120   59   60 am   BACKBONE|DICT|INTERRES
   121   59  184 1    
   122   60   61 2    
   123   60   62 1    
   124   62   63 1    
   125   62   64 1    
   126   62  185 1    
   127   63  186 1    
   128   63  187 1    
   129   63  188 1    
   130   64   65 am   BACKBONE|DICT|INTERRES
   131   64  189 1    
   132   65   66 2    
   133   67   68 2    
   134   67   69 am   BACKBONE|DICT|INTERRES
   135   69   70 1    
   136   69  190 1    
   137   70   71 1    
   138   70   72 1    
   139   70  191 1    
   140   71  192 1    
   141   71  193 1    
   142   71  194 1    
   143   72   73 2    
   144   72   74 am   BACKBONE|DICT|INTERRES
   145   74   75 1    
   146   74  195 1    
   147   75   76 1    
   148   75   77 1    
   149   75  196 1    
   150   76  197 1    
   151   76  198 1    
   152   76  199 1    
   153   77   78 2    
   154   77   79 am   BACKBONE|DICT|INTERRES
   155   79   80 1    
   156   79  200 1    
   157   80   81 1    
   158   80   82 1    
   159   80  201 1    
   160   81  202 1    
   161   81  203 1    
   162   81  204 1    
   163   82   83 2    
   164   82   84 am   BACKBONE|DICT|INTERRES
   165   84   85 1    
   166   84  205 1    
   167   85   86 1    
   168   85   87 1    
   169   85  206 1    
   170   86  207 1    
   171   86  208 1    
   172   86  209 1    
   173   87   88 2    
   174   87   89 am   BACKBONE|DICT|INTERRES
   175   89   90 1    
   176   89  210 1    
   177   90   91 1    
   178   90   92 1    
   179   90  211 1    
   180   91  212 1    
   181   91  213 1    
   182   91  214 1    
   183   92   93 2    
   184   92   94 am   BACKBONE|DICT|INTERRES
   185   94   95 1    
   186   94  215 1    
   187   95   96 1    
   188   95   97 1    
   189   95  216 1    
   190   96  217 1    
   191   96  218 1    
   192   96  219 1    
   193   97   98 2    
   194   97   99 am   BACKBONE|DICT|INTERRES
   195   99  100 1    
   196   99  220 1    
   197  100  101 1    
   198  100  102 1    
   199  100  221 1    
   200  101  222 1    
   201  101  223 1    
   202  101  224 1    
   203  102  103 2    
   204  102  104 am   BACKBONE|DICT|INTERRES
   205  104  105 1    
   206  104  225 1    
   207  105  106 1    
   208  105  107 1    
   209  105  226 1    
   210  106  227 1    
   211  106  228 1    
   212  106  229 1    
   213  107  108 2    
   214  107  109 am   BACKBONE|DICT|INTERRES
   215  109  110 1    
   216  109  230 1    
   217  110  111 1    
   218  110  112 1    
   219  110  231 1    
   220  111  232 1    
   221  111  233 1    
   222  111  234 1    
   223  112  113 2    
   224  112  114 am   BACKBONE|DICT|INTERRES
   225  114  115 1    
   226  114  235 1    
   227  115  116 1    
   228  115  117 1    
   229  115  236 1    
   230  116  237 1    
   231  116  238 1    
   232  116  239 1    
   233  117  118 2    
   234  117  119 am   BACKBONE|DICT|INTERRES
   235  119  120 1    
   236  119  240 1    
   237  120  121 1    
   238  120  124 1    
   239  120  241 1    
   240  121  122 am   BACKBONE|DICT|INTERRES
   241  121  123 2    
   242  122  242 1    
   243  122  243 1    
   244  124  125 1    
   245  124  244 1    
   246  124  245 1    
   247  125  126 1    
   248  126  246 1    
   249  126  247 1    
@<TRIPOS>SUBSTRUCTURE
     1 UNK         1 GROUP             0       ****    0 ROOT    
