@<TRIPOS>MOLECULE
3R540
247   249    1
SMALL
USER_CHARGES


@<TRIPOS>ATOM
      1 CA          4.0141   -9.3979  -44.3516 C.3       0 UNK        -0.1800 
      2 C           3.1528  -10.5842  -44.7616 C.2       0 UNK         0.5000 
      3 O           1.9769  -10.6361  -44.4036 O.2       0 UNK        -0.5000 
      4 N           3.7385  -11.5344  -45.5024 N.am      1 UNK        -0.5000 
      5 CA          3.0687  -12.7276  -46.0301 C.3       1 UNK         0.1400 
      6 C6          4.1088  -13.7583  -46.5414 C.3       23 UNK        -0.0398 
      7 S7          3.3896  -15.3724  -46.9833 S.3       23 UNK        -0.2404 
      8 C8          4.5673  -15.9622  -48.2372 C.3       23 UNK        -0.0205 
      9 C9          4.0644  -17.2287  -48.9130 C.ar      23 UNK        -0.0193 
     10 C10         3.0882  -17.1392  -49.9089 C.ar      23 UNK        -0.1150 
     11 C11         2.6032  -18.2902  -50.5342 C.ar      23 UNK        -0.0193 
     12 C12         3.1310  -19.5345  -50.1877 C.ar      23 UNK        -0.1150 
     13 C13         4.1115  -19.6405  -49.1983 C.ar      23 UNK        -0.0193 
     14 C14         4.5699  -18.4841  -48.5564 C.ar      23 UNK        -0.1150 
     15 C15         4.6785  -21.0069  -48.8412 C.3       23 UNK        -0.0205 
     16 S16         3.7539  -21.8123  -47.4964 S.3       23 UNK        -0.2404 
     17 C17         2.1160  -22.0782  -48.2622 C.3       23 UNK        -0.0398 
     18 CA          1.2583  -23.0895  -47.4677 C.3       11 UNK         0.1400 
     19 N           0.9581  -22.6209  -46.1130 N.am      11 UNK        -0.5000 
     20 C           0.4054  -23.3701  -45.1505 C.2       10 UNK         0.5000 
     21 O           0.1148  -24.5592  -45.2895 O.2       10 UNK        -0.5000 
     22 CA          0.0811  -22.6538  -43.8282 C.3       10 UNK         0.1400 
     23 CB          1.3436  -22.4739  -42.9711 C.3       10 UNK        -0.1800 
     24 N          -0.5529  -21.3536  -44.0519 N.am      10 UNK        -0.5000 
     25 C          -1.7944  -21.1947  -44.5308 C.2       9 UNK         0.5000 
     26 O          -2.5432  -22.1301  -44.8074 O.2       9 UNK        -0.5000 
     27 CA         -2.2703  -19.7528  -44.7782 C.3       9 UNK         0.1400 
     28 CB         -2.8240  -19.1249  -43.4914 C.3       9 UNK        -0.1800 
     29 N          -1.2180  -18.8979  -45.3208 N.am      9 UNK        -0.5000 
     30 C          -0.6906  -19.0386  -46.5452 C.2       8 UNK         0.5000 
     31 O          -1.0349  -19.9052  -47.3435 O.2       8 UNK        -0.5000 
     32 CA          0.4497  -18.0804  -46.9171 C.3       8 UNK         0.1400 
     33 CB         -0.1440  -16.7447  -47.3810 C.3       8 UNK        -0.1800 
     34 N           1.3827  -17.8508  -45.8123 N.am      8 UNK        -0.5000 
     35 C           2.0640  -18.8150  -45.1737 C.2       7 UNK         0.5000 
     36 O           1.9518  -20.0122  -45.4306 O.2       7 UNK        -0.5000 
     37 CA          2.9846  -18.3961  -44.0136 C.3       7 UNK         0.1400 
     38 CB          4.4356  -18.2589  -44.4989 C.3       7 UNK        -0.1800 
     39 N           2.5746  -17.1618  -43.3432 N.am      7 UNK        -0.5000 
     40 C           1.4139  -16.9807  -42.6975 C.2       6 UNK         0.5000 
     41 O           0.5456  -17.8502  -42.5960 O.2       6 UNK        -0.5000 
     42 CA          1.1592  -15.5900  -42.0778 C.3       6 UNK         0.1400 
     43 CB          2.3920  -14.6560  -42.0873 C.3       6 UNK        -0.1800 
     44 N           0.0123  -14.9191  -42.6979 N.am      6 UNK        -0.5000 
     45 C          -0.1408  -14.6363  -43.9994 C.2       5 UNK         0.5000 
     46 O           0.6753  -14.9509  -44.8667 O.2       5 UNK        -0.5000 
     47 CA         -1.4183  -13.8694  -44.3761 C.3       5 UNK         0.1400 
     48 CB         -1.4082  -12.4498  -43.7818 C.3       5 UNK        -0.1800 
     49 N          -1.5517  -13.7591  -45.8280 N.am      5 UNK        -0.5000 
     50 C          -2.6997  -13.9119  -46.5014 C.2       4 UNK         0.5000 
     51 O          -3.7615  -14.2230  -45.9598 O.2       4 UNK        -0.5000 
     52 CA         -2.7015  -13.6650  -48.0202 C.3       4 UNK         0.1400 
     53 CB         -3.2301  -12.2555  -48.3402 C.3       4 UNK        -0.1800 
     54 N          -1.3952  -13.8498  -48.6510 N.am      4 UNK        -0.5000 
     55 C          -1.2232  -14.2589  -49.9176 C.2       3 UNK         0.5000 
     56 O          -2.1508  -14.5286  -50.6819 O.2       3 UNK        -0.5000 
     57 CA          0.2368  -14.3469  -50.4171 C.3       3 UNK         0.1400 
     58 CB          0.3582  -14.4697  -51.9504 C.3       3 UNK        -0.1800 
     59 N           1.0696  -13.2510  -49.9097 N.am      3 UNK        -0.5000 
     60 C           0.8575  -11.9348  -50.0694 C.2       2 UNK         0.5000 
     61 O           0.0246  -11.4689  -50.8483 O.2       2 UNK        -0.5000 
     62 CA          1.6949  -10.9671  -49.1988 C.3       2 UNK         0.1400 
     63 CB          0.8183   -9.8395  -48.6148 C.3       2 UNK        -0.1800 
     64 N           2.4771  -11.5870  -48.1166 N.am      2 UNK        -0.5000 
     65 C           2.0252  -12.3455  -47.1039 C.2       1 UNK         0.5000 
     66 O           0.8560  -12.7239  -46.9997 O.2       1 UNK        -0.5000 
     67 C          -0.0291  -23.4593  -48.2332 C.2       11 UNK         0.5000 
     68 O          -0.0645  -24.5010  -48.8888 O.2       11 UNK        -0.5000 
     69 N          -1.0817  -22.6404  -48.0931 N.am      12 UNK        -0.5000 
     70 CA         -2.4082  -22.9056  -48.6430 C.3       12 UNK         0.1400 
     71 CB         -3.3102  -21.6848  -48.4615 C.3       12 UNK        -0.1800 
     72 C          -3.0731  -24.1435  -48.0259 C.2       12 UNK         0.5000 
     73 O          -3.6476  -24.9349  -48.7678 O.2       12 UNK        -0.5000 
     74 N          -2.9589  -24.3222  -46.7017 N.am      13 UNK        -0.5000 
     75 CA         -3.4704  -25.4949  -45.9880 C.3       13 UNK         0.1400 
     76 CB         -3.3136  -25.3017  -44.4725 C.3       13 UNK        -0.1800 
     77 C          -2.8078  -26.8069  -46.4467 C.2       13 UNK         0.5000 
     78 O          -3.5029  -27.8111  -46.6028 O.2       13 UNK        -0.5000 
     79 N          -1.4935  -26.7616  -46.7083 N.am      14 UNK        -0.5000 
     80 CA         -0.7278  -27.8664  -47.2892 C.3       14 UNK         0.1400 
     81 CB          0.7732  -27.5553  -47.1886 C.3       14 UNK        -0.1800 
     82 C          -1.1317  -28.1745  -48.7462 C.2       14 UNK         0.5000 
     83 O          -1.1755  -29.3439  -49.1294 O.2       14 UNK        -0.5000 
     84 N          -1.4420  -27.1270  -49.5222 N.am      15 UNK        -0.5000 
     85 CA         -1.9157  -27.2144  -50.9068 C.3       15 UNK         0.1400 
     86 CB         -1.6564  -25.8666  -51.6001 C.3       15 UNK        -0.1800 
     87 C          -3.4054  -27.6016  -51.0360 C.2       15 UNK         0.5000 
     88 O          -3.8414  -27.9284  -52.1406 O.2       15 UNK        -0.5000 
     89 N          -4.1543  -27.5357  -49.9252 N.am      16 UNK        -0.5000 
     90 CA         -5.6100  -27.6782  -49.8073 C.3       16 UNK         0.1400 
     91 CB         -6.0695  -29.0984  -50.1983 C.3       16 UNK        -0.1800 
     92 C          -6.3717  -26.5553  -50.5482 C.2       16 UNK         0.5000 
     93 O          -7.3715  -26.8155  -51.2209 O.2       16 UNK        -0.5000 
     94 N          -5.8711  -25.3237  -50.4071 N.am      17 UNK        -0.5000 
     95 CA         -6.4024  -24.0922  -50.9843 C.3       17 UNK         0.1400 
     96 CB         -5.3080  -23.4809  -51.8778 C.3       17 UNK        -0.1800 
     97 C          -6.7972  -23.1041  -49.8707 C.2       17 UNK         0.5000 
     98 O          -6.5165  -23.3426  -48.6933 O.2       17 UNK        -0.5000 
     99 N          -7.4233  -21.9895  -50.2682 N.am      18 UNK        -0.5000 
    100 CA        -7.6697  -20.8297  -49.4091 C.3       18 UNK         0.1400 
    101 CB        -8.8028  -19.9911  -50.0202 C.3       18 UNK        -0.1800 
    102 C         -6.3945  -19.9775  -49.2785 C.2       18 UNK         0.5000 
    103 O         -5.6001  -19.9281  -50.2210 O.2       18 UNK        -0.5000 
    104 N         -6.2346  -19.2851  -48.1421 N.am      19 UNK        -0.5000 
    105 CA        -5.0618  -18.4587  -47.8213 C.3       19 UNK         0.1400 
    106 CB        -5.2084  -17.8922  -46.4007 C.3       19 UNK        -0.1800 
    107 C         -4.7918  -17.3235  -48.8273 C.2       19 UNK         0.5000 
    108 O         -3.6317  -17.0181  -49.0921 O.2       19 UNK        -0.5000 
    109 N         -5.8671  -16.7453  -49.3800 N.am      20 UNK        -0.5000 
    110 CA        -5.8147  -15.7009  -50.4043 C.3       20 UNK         0.1400 
    111 CB        -7.1168  -14.8875  -50.3452 C.3       20 UNK        -0.1800 
    112 C         -5.5877  -16.2532  -51.8261 C.2       20 UNK         0.5000 
    113 O         -5.1589  -15.4978  -52.6992 O.2       20 UNK        -0.5000 
    114 N         -5.8872  -17.5419  -52.0484 N.am      21 UNK        -0.5000 
    115 CA        -5.6036  -18.2431  -53.3029 C.3       21 UNK         0.1400 
    116 CB        -6.5633  -19.4326  -53.4684 C.3       21 UNK        -0.1800 
    117 C         -4.1363  -18.7016  -53.3439 C.2       21 UNK         0.5000 
    118 O         -3.4808  -18.5627  -54.3767 O.2       21 UNK        -0.5000 
    119 N         -3.6449  -19.1931  -52.1989 N.am      22 UNK        -0.5000 
    120 CA        -2.2396  -19.5282  -51.9265 C.3       22 UNK         0.1400 
    121 C         -1.7009  -20.7993  -52.6521 C.2       22 UNK         0.5000 
    122 N         -2.5538  -21.6414  -53.2226 N.am      22 UNK        -0.7600 
    123 O         -0.4989  -21.0460  -52.6809 O.2       22 UNK        -0.5000 
    124 C124       -1.3068  -18.2874  -52.0556 C.3       23 UNK        -0.0398 
    125 S125       -0.1155  -18.1931  -50.6846 S.3       23 UNK        -0.2404 
    126 C126        1.4788  -18.2005  -51.5499 C.3       23 UNK        -0.0205 
    127 H127        3.5871   -8.4732  -44.7399 H         1 UNK         0.0600 
    128 H128        5.0335   -9.4860  -44.7282 H         1 UNK         0.0600 
    129 H129        4.0584   -9.3243  -43.2650 H         1 UNK         0.0600 
    130 H130        4.7120  -11.4276  -45.7495 H         1 UNK         0.3000 
    131 H131        2.5284  -13.1824  -45.1991 H         1 UNK         0.0600 
    132 H132        4.6589  -13.3581  -47.3944 H         1 UNK         0.0800 
    133 H133        4.8527  -13.9433  -45.7652 H         1 UNK         0.0800 
    134 H134        5.5368  -16.1362  -47.7679 H         1 UNK         0.0800 
    135 H135        4.7203  -15.1891  -48.9916 H         1 UNK         0.0800 
    136 H136        2.6929  -16.1725  -50.1813 H         1 UNK         0.1150 
    137 H137        2.7613  -20.4246  -50.6769 H         1 UNK         0.1150 
    138 H138        5.3227  -18.5620  -47.7846 H         1 UNK         0.1150 
    139 H139        4.6846  -21.6560  -49.7181 H         1 UNK         0.0800 
    140 H140        5.7206  -20.9029  -48.5356 H         1 UNK         0.0800 
    141 H141        2.2694  -22.4322  -49.2831 H         1 UNK         0.0800 
    142 H142        1.6020  -21.1176  -48.3343 H         1 UNK         0.0800 
    143 H143        1.8382  -24.0099  -47.3688 H         1 UNK         0.0600 
    144 H144        1.2142  -21.6581  -45.9027 H         1 UNK         0.3000 
    145 H145       -0.6177  -23.2818  -43.2714 H         1 UNK         0.0600 
    146 H146        1.1071  -22.0101  -42.0134 H         1 UNK         0.0600 
    147 H147        1.8094  -23.4372  -42.7600 H         1 UNK         0.0600 
    148 H148        2.0889  -21.8532  -43.4690 H         1 UNK         0.0600 
    149 H149        0.0183  -20.5338  -43.9036 H         1 UNK         0.3000 
    150 H150       -3.0786  -19.7963  -45.5102 H         1 UNK         0.0600 
    151 H151       -3.6304  -19.7315  -43.0774 H         1 UNK         0.0600 
    152 H152       -3.2296  -18.1308  -43.6809 H         1 UNK         0.0600 
    153 H153       -2.0540  -19.0325  -42.7243 H         1 UNK         0.0600 
    154 H154       -0.8274  -18.2000  -44.7026 H         1 UNK         0.3000 
    155 H155        1.0138  -18.5202  -47.7422 H         1 UNK         0.0600 
    156 H156       -0.7356  -16.2819  -46.5938 H         1 UNK         0.0600 
    157 H157        0.6310  -16.0423  -47.6821 H         1 UNK         0.0600 
    158 H158       -0.8127  -16.8846  -48.2298 H         1 UNK         0.0600 
    159 H159        1.5074  -16.8867  -45.5233 H         1 UNK         0.3000 
    160 H160        2.9510  -19.1974  -43.2726 H         1 UNK         0.0600 
    161 H161        4.5473  -17.4444  -45.2142 H         1 UNK         0.0600 
    162 H162        4.7692  -19.1731  -44.9923 H         1 UNK         0.0600 
    163 H163        5.1150  -18.0721  -43.6673 H         1 UNK         0.0600 
    164 H164        3.2098  -16.3806  -43.4114 H         1 UNK         0.3000 
    165 H165        0.8896  -15.7681  -41.0358 H         1 UNK         0.0600 
    166 H166        2.1685  -13.7152  -41.5841 H         1 UNK         0.0600 
    167 H167        3.2331  -15.1072  -41.5594 H         1 UNK         0.0600 
    168 H168        2.7220  -14.4136  -43.0978 H         1 UNK         0.0600 
    169 H169       -0.7265  -14.6566  -42.0613 H         1 UNK         0.3000 
    170 H170       -2.2586  -14.4271  -43.9577 H         1 UNK         0.0600 
    171 H171       -1.3380  -12.4698  -42.6940 H         1 UNK         0.0600 
    172 H172       -0.5638  -11.8691  -44.1560 H         1 UNK         0.0600 
    173 H173       -2.3213  -11.9109  -44.0354 H         1 UNK         0.0600 
    174 H174       -0.6849  -13.5226  -46.3047 H         1 UNK         0.3000 
    175 H175       -3.3987  -14.3936  -48.4368 H         1 UNK         0.0600 
    176 H176       -2.5497  -11.4838  -47.9780 H         1 UNK         0.0600 
    177 H177       -3.3552  -12.1143  -49.4139 H         1 UNK         0.0600 
    178 H178       -4.2022  -12.0849  -47.8758 H         1 UNK         0.0600 
    179 H179       -0.5797  -13.5994  -48.1023 H         1 UNK         0.3000 
    180 H180        0.6355  -15.2628  -49.9838 H         1 UNK         0.0600 
    181 H181       -0.0675  -13.6067  -52.4625 H         1 UNK         0.0600 
    182 H182       -0.1666  -15.3539  -52.3132 H         1 UNK         0.0600 
    183 H183        1.3999  -14.5633  -52.2564 H         1 UNK         0.0600 
    184 H184        1.7703  -13.5160  -49.2328 H         1 UNK         0.3000 
    185 H185        2.4196  -10.5092  -49.8734 H         1 UNK         0.0600 
    186 H186        0.3372   -9.2615  -49.4047 H         1 UNK         0.0600 
    187 H187        0.0303  -10.2348  -47.9725 H         1 UNK         0.0600 
    188 H188        1.4131   -9.1431  -48.0237 H         1 UNK         0.0600 
    189 H189        3.4568  -11.3412  -48.1116 H         1 UNK         0.3000 
    190 H190       -0.9729  -21.7621  -47.5916 H         1 UNK         0.3000 
    191 H191       -2.2943  -23.0821  -49.7144 H         1 UNK         0.0600 
    192 H192       -3.4575  -21.4421  -47.4091 H         1 UNK         0.0600 
    193 H193       -4.2887  -21.8727  -48.8962 H         1 UNK         0.0600 
    194 H194       -2.8999  -20.8086  -48.9586 H         1 UNK         0.0600 
    195 H195       -2.5268  -23.5978  -46.1367 H         1 UNK         0.3000 
    196 H196       -4.5372  -25.5724  -46.2082 H         1 UNK         0.0600 
    197 H197       -3.6902  -26.1679  -43.9271 H         1 UNK         0.0600 
    198 H198       -3.8743  -24.4333  -44.1269 H         1 UNK         0.0600 
    199 H199       -2.2709  -25.1624  -44.1879 H         1 UNK         0.0600 
    200 H200       -0.9880  -25.9046  -46.5110 H         1 UNK         0.3000 
    201 H201       -0.9271  -28.7607  -46.6950 H         1 UNK         0.0600 
    202 H202        1.0733  -27.3936  -46.1530 H         1 UNK         0.0600 
    203 H203        1.0409  -26.6639  -47.7558 H         1 UNK         0.0600 
    204 H204        1.3697  -28.3822  -47.5759 H         1 UNK         0.0600 
    205 H205       -1.3242  -26.1932  -49.1448 H         1 UNK         0.3000 
    206 H206       -1.3332  -27.9792  -51.4245 H         1 UNK         0.0600 
    207 H207       -0.6033  -25.5898  -51.5474 H         1 UNK         0.0600 
    208 H208       -1.9288  -25.9095  -52.6553 H         1 UNK         0.0600 
    209 H209       -2.2369  -25.0633  -51.1464 H         1 UNK         0.0600 
    210 H210       -3.6912  -27.1943  -49.0929 H         1 UNK         0.3000 
    211 H211       -5.8356  -27.5444  -48.7484 H         1 UNK         0.0600 
    212 H212       -5.9417  -29.2908  -51.2637 H         1 UNK         0.0600 
    213 H213       -7.1254  -29.2424  -49.9668 H         1 UNK         0.0600 
    214 H214       -5.5112  -29.8573  -49.6502 H         1 UNK         0.0600 
    215 H215       -5.0750  -25.1957  -49.7822 H         1 UNK         0.3000 
    216 H216       -7.2882  -24.2986  -51.5882 H         1 UNK         0.0600 
    217 H217       -5.6621  -22.5832  -52.3848 H         1 UNK         0.0600 
    218 H218       -4.9922  -24.1839  -52.6490 H         1 UNK         0.0600 
    219 H219       -4.4255  -23.2053  -51.2985 H         1 UNK         0.0600 
    220 H220       -7.5949  -21.8537  -51.2531 H         1 UNK         0.3000 
    221 H221       -7.9765  -21.1706  -48.4180 H         1 UNK         0.0600 
    222 H222       -8.5403  -19.6144  -51.0096 H         1 UNK         0.0600 
    223 H223       -9.7170  -20.5770  -50.1173 H         1 UNK         0.0600 
    224 H224       -9.0362  -19.1300  -49.3928 H         1 UNK         0.0600 
    225 H225       -6.9384  -19.3600  -47.4217 H         1 UNK         0.3000 
    226 H226       -4.1855  -19.1073  -47.8319 H         1 UNK         0.0600 
    227 H227       -5.3203  -18.6887  -45.6650 H         1 UNK         0.0600 
    228 H228       -4.3274  -17.3125  -46.1199 H         1 UNK         0.0600 
    229 H229       -6.0736  -17.2335  -46.3171 H         1 UNK         0.0600 
    230 H230       -6.7830  -17.0575  -49.0932 H         1 UNK         0.3000 
    231 H231       -4.9847  -15.0271  -50.1815 H         1 UNK         0.0600 
    232 H232       -7.1048  -14.0773  -51.0755 H         1 UNK         0.0600 
    233 H233       -7.2544  -14.4349  -49.3629 H         1 UNK         0.0600 
    234 H234       -7.9892  -15.5072  -50.5564 H         1 UNK         0.0600 
    235 H235       -6.1697  -18.1158  -51.2661 H         1 UNK         0.3000 
    236 H236       -5.7696  -17.5626  -54.1409 H         1 UNK         0.0600 
    237 H237       -7.6024  -19.1036  -53.4570 H         1 UNK         0.0600 
    238 H238       -6.3931  -19.9373  -54.4201 H         1 UNK         0.0600 
    239 H239       -6.4379  -20.1740  -52.6805 H         1 UNK         0.0600 
    240 H240       -4.2852  -19.3317  -51.4212 H         1 UNK         0.3000 
    241 H241       -2.2591  -19.8176  -50.8772 H         1 UNK         0.0600 
    242 H242       -3.5407  -21.4462  -53.2197 H         1 UNK         0.3800 
    243 H243       -2.2006  -22.4618  -53.6879 H         1 UNK         0.3800 
    244 H244       -0.7987  -18.2629  -53.0210 H         1 UNK         0.0800 
    245 H245       -1.8873  -17.3645  -52.0054 H         1 UNK         0.0800 
    246 H246        1.5189  -19.0457  -52.2390 H         1 UNK         0.0800 
    247 H247        1.5802  -17.2961  -52.1510 H         1 UNK         0.0800 
@<TRIPOS>BOND
     1    1    2 1    
     2    1  127 1    
     3    1  128 1    
     4    1  129 1    
     5    2    3 2    
     6    2    4 am   BACKBONE|DICT|INTERRES
     7    4    5 1    
     8    4  130 1    
     9    5    6 1    
    10    5   65 1    
    11    5  131 1    
    12    6    7 1    
    13    6  132 1    
    14    6  133 1    
    15    7    8 1    
    16    8    9 1    
    17    8  134 1    
    18    8  135 1    
    19    9   10 ar   
    20    9   14 ar   
    21   10   11 ar   
    22   10  136 1    
    23   11   12 ar   
    24   11  126 1    
    25   12   13 ar   
    26   12  137 1    
    27   13   14 ar   
    28   13   15 1    
    29   14  138 1    
    30   15   16 1    
    31   15  139 1    
    32   15  140 1    
    33   16   17 1    
    34   17   18 1    
    35   17  141 1    
    36   17  142 1    
    37   18   19 1    
    38   18   67 1    
    39   18  143 1    
    40   19   20 am   BACKBONE|DICT|INTERRES
    41   19  144 1    
    42   20   21 2    
    43   20   22 1    
    44   22   23 1    
    45   22   24 1    
    46   22  145 1    
    47   23  146 1    
    48   23  147 1    
    49   23  148 1    
    50   24   25 am   BACKBONE|DICT|INTERRES
    51   24  149 1    
    52   25   26 2    
    53   25   27 1    
    54   27   28 1    
    55   27   29 1    
    56   27  150 1    
    57   28  151 1    
    58   28  152 1    
    59   28  153 1    
    60   29   30 am   BACKBONE|DICT|INTERRES
    61   29  154 1    
    62   30   31 2    
    63   30   32 1    
    64   32   33 1    
    65   32   34 1    
    66   32  155 1    
    67   33  156 1    
    68   33  157 1    
    69   33  158 1    
    70   34   35 am   BACKBONE|DICT|INTERRES
    71   34  159 1    
    72   35   36 2    
    73   35   37 1    
    74   37   38 1    
    75   37   39 1    
    76   37  160 1    
    77   38  161 1    
    78   38  162 1    
    79   38  163 1    
    80   39   40 am   BACKBONE|DICT|INTERRES
    81   39  164 1    
    82   40   41 2    
    83   40   42 1    
    84   42   43 1    
    85   42   44 1    
    86   42  165 1    
    87   43  166 1    
    88   43  167 1    
    89   43  168 1    
    90   44   45 am   BACKBONE|DICT|INTERRES
    91   44  169 1    
    92   45   46 2    
    93   45   47 1    
    94   47   48 1    
    95   47   49 1    
    96   47  170 1    
    97   48  171 1    
    98   48  172 1    
    99   48  173 1    
   100   49   50 am   BACKBONE|DICT|INTERRES
   101   49  174 1    
   102   50   51 2    
   103   50   52 1    
   104   52   53 1    
   105   52   54 1    
   106   52  175 1    
   107   53  176 1    
   108   53  177 1    
   109   53  178 1    
   110   54   55 am   BACKBONE|DICT|INTERRES
   111   54  179 1    
   112   55   56 2    
   113   55   57 1    
   114   57   58 1    
   115   57   59 1    
   116   57  180 1    
   117   58  181 1    
   118   58  182 1    
   119   58  183 1    
   120   59   60 am   BACKBONE|DICT|INTERRES
   121   59  184 1    
   122   60   61 2    
   123   60   62 1    
   124   62   63 1    
   125   62   64 1    
   126   62  185 1    
   127   63  186 1    
   128   63  187 1    
   129   63  188 1    
   130   64   65 am   BACKBONE|DICT|INTERRES
   131   64  189 1    
   132   65   66 2    
   133   67   68 2    
   134   67   69 am   BACKBONE|DICT|INTERRES
   135   69   70 1    
   136   69  190 1    
   137   70   71 1    
   138   70   72 1    
   139   70  191 1    
   140   71  192 1    
   141   71  193 1    
   142   71  194 1    
   143   72   73 2    
   144   72   74 am   BACKBONE|DICT|INTERRES
   145   74   75 1    
   146   74  195 1    
   147   75   76 1    
   148   75   77 1    
   149   75  196 1    
   150   76  197 1    
   151   76  198 1    
   152   76  199 1    
   153   77   78 2    
   154   77   79 am   BACKBONE|DICT|INTERRES
   155   79   80 1    
   156   79  200 1    
   157   80   81 1    
   158   80   82 1    
   159   80  201 1    
   160   81  202 1    
   161   81  203 1    
   162   81  204 1    
   163   82   83 2    
   164   82   84 am   BACKBONE|DICT|INTERRES
   165   84   85 1    
   166   84  205 1    
   167   85   86 1    
   168   85   87 1    
   169   85  206 1    
   170   86  207 1    
   171   86  208 1    
   172   86  209 1    
   173   87   88 2    
   174   87   89 am   BACKBONE|DICT|INTERRES
   175   89   90 1    
   176   89  210 1    
   177   90   91 1    
   178   90   92 1    
   179   90  211 1    
   180   91  212 1    
   181   91  213 1    
   182   91  214 1    
   183   92   93 2    
   184   92   94 am   BACKBONE|DICT|INTERRES
   185   94   95 1    
   186   94  215 1    
   187   95   96 1    
   188   95   97 1    
   189   95  216 1    
   190   96  217 1    
   191   96  218 1    
   192   96  219 1    
   193   97   98 2    
   194   97   99 am   BACKBONE|DICT|INTERRES
   195   99  100 1    
   196   99  220 1    
   197  100  101 1    
   198  100  102 1    
   199  100  221 1    
   200  101  222 1    
   201  101  223 1    
   202  101  224 1    
   203  102  103 2    
   204  102  104 am   BACKBONE|DICT|INTERRES
   205  104  105 1    
   206  104  225 1    
   207  105  106 1    
   208  105  107 1    
   209  105  226 1    
   210  106  227 1    
   211  106  228 1    
   212  106  229 1    
   213  107  108 2    
   214  107  109 am   BACKBONE|DICT|INTERRES
   215  109  110 1    
   216  109  230 1    
   217  110  111 1    
   218  110  112 1    
   219  110  231 1    
   220  111  232 1    
   221  111  233 1    
   222  111  234 1    
   223  112  113 2    
   224  112  114 am   BACKBONE|DICT|INTERRES
   225  114  115 1    
   226  114  235 1    
   227  115  116 1    
   228  115  117 1    
   229  115  236 1    
   230  116  237 1    
   231  116  238 1    
   232  116  239 1    
   233  117  118 2    
   234  117  119 am   BACKBONE|DICT|INTERRES
   235  119  120 1    
   236  119  240 1    
   237  120  121 1    
   238  120  124 1    
   239  120  241 1    
   240  121  122 am   BACKBONE|DICT|INTERRES
   241  121  123 2    
   242  122  242 1    
   243  122  243 1    
   244  124  125 1    
   245  124  244 1    
   246  124  245 1    
   247  125  126 1    
   248  126  246 1    
   249  126  247 1    
@<TRIPOS>SUBSTRUCTURE
     1 UNK         1 GROUP             0       ****    0 ROOT    
