@<TRIPOS>MOLECULE
3R540
247   249    1
SMALL
USER_CHARGES


@<TRIPOS>ATOM
      1 CA         -0.0417  -15.7804  -46.0236 C.3       0 UNK        -0.1800 
      2 C          -1.1038  -15.4367  -47.0651 C.2       0 UNK         0.5000 
      3 O          -0.8120  -15.4739  -48.2579 O.2       0 UNK        -0.5000 
      4 N          -2.3372  -15.0830  -46.6770 N.am      1 UNK        -0.5000 
      5 CA         -2.8497  -14.9868  -45.2999 C.3       1 UNK         0.1400 
      6 C6         -4.3730  -15.2702  -45.2316 C.3       23 UNK        -0.0398 
      7 S7         -4.7702  -16.9434  -45.8304 S.3       23 UNK        -0.2404 
      8 C8         -6.5613  -16.8446  -46.0940 C.3       23 UNK        -0.0205 
      9 C9         -7.0481  -18.0621  -46.8632 C.ar      23 UNK        -0.0193 
     10 C10        -7.3213  -17.9652  -48.2308 C.ar      23 UNK        -0.1150 
     11 C11        -7.7674  -19.0795  -48.9463 C.ar      23 UNK        -0.0193 
     12 C12        -7.9261  -20.3012  -48.2872 C.ar      23 UNK        -0.1150 
     13 C13        -7.6505  -20.4128  -46.9211 C.ar      23 UNK        -0.0193 
     14 C14        -7.2192  -19.2877  -46.2117 C.ar      23 UNK        -0.1150 
     15 C15        -7.8372  -21.7481  -46.2178 C.3       23 UNK        -0.0205 
     16 S16        -6.4397  -22.8742  -46.5242 S.3       23 UNK        -0.2404 
     17 C17        -5.1761  -22.2517  -45.3608 C.3       23 UNK        -0.0398 
     18 CA         -4.1224  -21.3089  -45.9932 C.3       11 UNK         0.1400 
     19 N          -3.2842  -20.6973  -44.9576 N.am      11 UNK        -0.5000 
     20 C          -2.4280  -19.6895  -45.1690 C.2       10 UNK         0.5000 
     21 O          -2.2109  -19.1888  -46.2716 O.2       10 UNK        -0.5000 
     22 CA         -1.6593  -19.1765  -43.9390 C.3       10 UNK         0.1400 
     23 CB         -2.6034  -18.4245  -42.9861 C.3       10 UNK        -0.1800 
     24 N          -0.9255  -20.1952  -43.1824 N.am      10 UNK        -0.5000 
     25 C          -0.1157  -21.1428  -43.6808 C.2       9 UNK         0.5000 
     26 O          -0.0105  -21.4042  -44.8788 O.2       9 UNK        -0.5000 
     27 CA          0.7568  -21.8795  -42.6517 C.3       9 UNK         0.1400 
     28 CB          1.7930  -22.8222  -43.2910 C.3       9 UNK        -0.1800 
     29 N           1.4430  -20.8792  -41.8402 N.am      9 UNK        -0.5000 
     30 C           1.6303  -20.9400  -40.5157 C.2       8 UNK         0.5000 
     31 O           1.3123  -21.9094  -39.8259 O.2       8 UNK        -0.5000 
     32 CA          2.2591  -19.7033  -39.8365 C.3       8 UNK         0.1400 
     33 CB          3.7534  -19.9393  -39.5718 C.3       8 UNK        -0.1800 
     34 N           2.1026  -18.4681  -40.6100 N.am      8 UNK        -0.5000 
     35 C           0.9290  -17.8781  -40.8858 C.2       7 UNK         0.5000 
     36 O          -0.1435  -18.2625  -40.4200 O.2       7 UNK        -0.5000 
     37 CA          0.9361  -16.6965  -41.8790 C.3       7 UNK         0.1400 
     38 CB          0.6563  -15.3743  -41.1504 C.3       7 UNK        -0.1800 
     39 N           2.1742  -16.5799  -42.6562 N.am      7 UNK        -0.5000 
     40 C           2.5896  -17.4753  -43.5673 C.2       6 UNK         0.5000 
     41 O           1.9550  -18.4921  -43.8468 O.2       6 UNK        -0.5000 
     42 CA          3.9497  -17.2305  -44.2534 C.3       6 UNK         0.1400 
     43 CB          3.7428  -16.6320  -45.6517 C.3       6 UNK        -0.1800 
     44 N           4.8502  -16.3535  -43.5056 N.am      6 UNK        -0.5000 
     45 C           5.3639  -16.5976  -42.2917 C.2       5 UNK         0.5000 
     46 O           5.1750  -17.6416  -41.6672 O.2       5 UNK        -0.5000 
     47 CA          6.1770  -15.4523  -41.6492 C.3       5 UNK         0.1400 
     48 CB          7.6789  -15.6524  -41.9012 C.3       5 UNK        -0.1800 
     49 N           5.7825  -14.1148  -42.1169 N.am      5 UNK        -0.5000 
     50 C           4.5556  -13.5953  -41.9744 C.2       4 UNK         0.5000 
     51 O           3.6356  -14.1863  -41.4010 O.2       4 UNK        -0.5000 
     52 CA          4.2905  -12.2297  -42.6273 C.3       4 UNK         0.1400 
     53 CB          4.3497  -12.3470  -44.1652 C.3       4 UNK        -0.1800 
     54 N           2.9624  -11.8054  -42.2016 N.am      4 UNK        -0.5000 
     55 C           2.3601  -10.6355  -42.4215 C.2       3 UNK         0.5000 
     56 O           2.8809   -9.6834  -43.0065 O.2       3 UNK        -0.5000 
     57 CA          0.9108  -10.5272  -41.9077 C.3       3 UNK         0.1400 
     58 CB          0.6956   -9.2355  -41.1015 C.3       3 UNK        -0.1800 
     59 N          -0.0690  -10.5820  -42.9941 N.am      3 UNK        -0.5000 
     60 C          -0.2474  -11.6113  -43.8333 C.2       2 UNK         0.5000 
     61 O           0.4179  -12.6493  -43.8052 O.2       2 UNK        -0.5000 
     62 CA         -1.3555  -11.4371  -44.8923 C.3       2 UNK         0.1400 
     63 CB         -0.8264  -10.6372  -46.0932 C.3       2 UNK        -0.1800 
     64 N          -1.8740  -12.7177  -45.3780 N.am      2 UNK        -0.5000 
     65 C          -2.5151  -13.6316  -44.6343 C.2       1 UNK         0.5000 
     66 O          -2.8407  -13.4421  -43.4615 O.2       1 UNK        -0.5000 
     67 C          -3.2772  -22.0060  -47.0814 C.2       11 UNK         0.5000 
     68 O          -3.5558  -21.8386  -48.2683 O.2       11 UNK        -0.5000 
     69 N          -2.2298  -22.7328  -46.6643 N.am      12 UNK        -0.5000 
     70 CA         -1.2942  -23.4084  -47.5642 C.3       12 UNK         0.1400 
     71 CB         -0.4016  -24.3687  -46.7652 C.3       12 UNK        -0.1800 
     72 C          -0.4445  -22.4177  -48.3774 C.2       12 UNK         0.5000 
     73 O          -0.2008  -22.6640  -49.5584 O.2       12 UNK        -0.5000 
     74 N          -0.0408  -21.3074  -47.7460 N.am      13 UNK        -0.5000 
     75 CA          0.6678  -20.1988  -48.3802 C.3       13 UNK         0.1400 
     76 CB          1.1882  -19.2307  -47.3081 C.3       13 UNK        -0.1800 
     77 C          -0.2007  -19.4662  -49.4182 C.2       13 UNK         0.5000 
     78 O           0.2665  -19.2353  -50.5333 O.2       13 UNK        -0.5000 
     79 N          -1.4558  -19.1607  -49.0580 N.am      14 UNK        -0.5000 
     80 CA         -2.4434  -18.5272  -49.9369 C.3       14 UNK         0.1400 
     81 CB         -3.6870  -18.1456  -49.1239 C.3       14 UNK        -0.1800 
     82 C          -2.8288  -19.4067  -51.1400 C.2       14 UNK         0.5000 
     83 O          -2.9582  -18.8977  -52.2543 O.2       14 UNK        -0.5000 
     84 N          -2.9599  -20.7185  -50.9028 N.am      15 UNK        -0.5000 
     85 CA         -3.2050  -21.7261  -51.9322 C.3       15 UNK         0.1400 
     86 CB         -3.7368  -23.0011  -51.2619 C.3       15 UNK        -0.1800 
     87 C          -1.9630  -22.0502  -52.7858 C.2       15 UNK         0.5000 
     88 O          -2.1078  -22.7169  -53.8127 O.2       15 UNK        -0.5000 
     89 N          -0.7753  -21.6176  -52.3386 N.am      16 UNK        -0.5000 
     90 CA          0.5520  -21.8971  -52.8949 C.3       16 UNK         0.1400 
     91 CB          0.7344  -21.1868  -54.2509 C.3       16 UNK        -0.1800 
     92 C           0.8306  -23.4114  -52.9659 C.2       16 UNK         0.5000 
     93 O           1.1878  -23.9285  -54.0237 O.2       16 UNK        -0.5000 
     94 N           0.5770  -24.1082  -51.8482 N.am      17 UNK        -0.5000 
     95 CA          0.6166  -25.5695  -51.6954 C.3       17 UNK         0.1400 
     96 CB          2.0647  -26.0911  -51.7983 C.3       17 UNK        -0.1800 
     97 C          -0.3584  -26.2962  -52.6516 C.2       17 UNK         0.5000 
     98 O          -0.0568  -27.3853  -53.1412 O.2       17 UNK        -0.5000 
     99 N          -1.5044  -25.6474  -52.9057 N.am      18 UNK        -0.5000 
    100 CA        -2.5854  -26.0213  -53.8234 C.3       18 UNK         0.1400 
    101 CB        -3.1816  -27.3995  -53.4697 C.3       18 UNK        -0.1800 
    102 C         -2.2305  -25.8895  -55.3199 C.2       18 UNK         0.5000 
    103 O         -3.0132  -26.3417  -56.1569 O.2       18 UNK        -0.5000 
    104 N         -1.0975  -25.2506  -55.6525 N.am      19 UNK        -0.5000 
    105 CA        -0.7098  -24.9607  -57.0352 C.3       19 UNK         0.1400 
    106 CB         0.7977  -24.6774  -57.1107 C.3       19 UNK        -0.1800 
    107 C         -1.5073  -23.7851  -57.6285 C.2       19 UNK         0.5000 
    108 O         -1.8108  -23.8063  -58.8221 O.2       19 UNK        -0.5000 
    109 N         -1.8363  -22.7915  -56.7911 N.am      20 UNK        -0.5000 
    110 CA        -2.6559  -21.6371  -57.1625 C.3       20 UNK         0.1400 
    111 CB        -2.0811  -20.3673  -56.5146 C.3       20 UNK        -0.1800 
    112 C         -4.1173  -21.8341  -56.7336 C.2       20 UNK         0.5000 
    113 O         -5.0199  -21.3751  -57.4346 O.2       20 UNK        -0.5000 
    114 N         -4.3214  -22.4864  -55.5773 N.am      21 UNK        -0.5000 
    115 CA        -5.6103  -22.8020  -54.9466 C.3       21 UNK         0.1400 
    116 CB        -6.3393  -23.8970  -55.7508 C.3       21 UNK        -0.1800 
    117 C         -6.4909  -21.5578  -54.6847 C.2       21 UNK         0.5000 
    118 O         -7.7182  -21.6475  -54.7415 O.2       21 UNK        -0.5000 
    119 N         -5.8341  -20.4172  -54.4284 N.am      22 UNK        -0.5000 
    120 CA        -6.4187  -19.0722  -54.2877 C.3       22 UNK         0.1400 
    121 C         -6.9869  -18.4746  -55.6142 C.2       22 UNK         0.5000 
    122 N         -6.7102  -19.0418  -56.7833 N.am      22 UNK        -0.7600 
    123 O         -7.6673  -17.4523  -55.5933 O.2       22 UNK        -0.5000 
    124 C124       -7.4219  -18.9462  -53.1059 C.3       23 UNK        -0.0398 
    125 S125       -6.6978  -19.3748  -51.4871 S.3       23 UNK        -0.2404 
    126 C126       -8.1094  -18.9544  -50.4218 C.3       23 UNK        -0.0205 
    127 H127        0.0389  -15.0099  -45.2576 H         1 UNK         0.0600 
    128 H128        0.9342  -15.8768  -46.4982 H         1 UNK         0.0600 
    129 H129       -0.2719  -16.7290  -45.5448 H         1 UNK         0.0600 
    130 H130       -3.0175  -14.8767  -47.3941 H         1 UNK         0.3000 
    131 H131       -2.3549  -15.7470  -44.6937 H         1 UNK         0.0600 
    132 H132       -4.7410  -15.1914  -44.2069 H         1 UNK         0.0800 
    133 H133       -4.9261  -14.5357  -45.8195 H         1 UNK         0.0800 
    134 H134       -6.8035  -15.9303  -46.6379 H         1 UNK         0.0800 
    135 H135       -7.0701  -16.7814  -45.1310 H         1 UNK         0.0800 
    136 H136       -7.1896  -17.0205  -48.7394 H         1 UNK         0.1150 
    137 H137       -8.2656  -21.1672  -48.8381 H         1 UNK         0.1150 
    138 H138       -7.0030  -19.3657  -45.1554 H         1 UNK         0.1150 
    139 H139       -7.9820  -21.6091  -45.1454 H         1 UNK         0.0800 
    140 H140       -8.7501  -22.2198  -46.5844 H         1 UNK         0.0800 
    141 H141       -4.6863  -23.1139  -44.9052 H         1 UNK         0.0800 
    142 H142       -5.6839  -21.7383  -44.5433 H         1 UNK         0.0800 
    143 H143       -4.6558  -20.4930  -46.4854 H         1 UNK         0.0600 
    144 H144       -3.3769  -21.0599  -44.0204 H         1 UNK         0.3000 
    145 H145       -0.9123  -18.4712  -44.3011 H         1 UNK         0.0600 
    146 H146       -2.0535  -17.9042  -42.2040 H         1 UNK         0.0600 
    147 H147       -3.1857  -17.6722  -43.5152 H         1 UNK         0.0600 
    148 H148       -3.3095  -19.0996  -42.5019 H         1 UNK         0.0600 
    149 H149       -0.9229  -20.0687  -42.1797 H         1 UNK         0.3000 
    150 H150        0.0815  -22.4723  -42.0314 H         1 UNK         0.0600 
    151 H151        1.3041  -23.6038  -43.8729 H         1 UNK         0.0600 
    152 H152        2.3983  -23.3157  -42.5307 H         1 UNK         0.0600 
    153 H153        2.4668  -22.2835  -43.9585 H         1 UNK         0.0600 
    154 H154        1.7122  -20.0359  -42.3364 H         1 UNK         0.3000 
    155 H155        1.7575  -19.5648  -38.8766 H         1 UNK         0.0600 
    156 H156        4.1999  -19.0960  -39.0446 H         1 UNK         0.0600 
    157 H157        3.9068  -20.8263  -38.9558 H         1 UNK         0.0600 
    158 H158        4.3068  -20.0845  -40.5006 H         1 UNK         0.0600 
    159 H159        2.9436  -18.0898  -41.0270 H         1 UNK         0.3000 
    160 H160        0.1238  -16.8640  -42.5882 H         1 UNK         0.0600 
    161 H161        1.3994  -15.1764  -40.3775 H         1 UNK         0.0600 
    162 H162       -0.3206  -15.3962  -40.6657 H         1 UNK         0.0600 
    163 H163        0.6551  -14.5325  -41.8427 H         1 UNK         0.0600 
    164 H164        2.7627  -15.7833  -42.4390 H         1 UNK         0.3000 
    165 H165        4.4389  -18.2007  -44.3608 H         1 UNK         0.0600 
    166 H166        4.6886  -16.5373  -46.1855 H         1 UNK         0.0600 
    167 H167        3.0952  -17.2667  -46.2548 H         1 UNK         0.0600 
    168 H168        3.2834  -15.6439  -45.6023 H         1 UNK         0.0600 
    169 H169        5.0659  -15.4662  -43.9343 H         1 UNK         0.3000 
    170 H170        6.0012  -15.4939  -40.5722 H         1 UNK         0.0600 
    171 H171        8.0084  -16.6285  -41.5426 H         1 UNK         0.0600 
    172 H172        7.9202  -15.5941  -42.9633 H         1 UNK         0.0600 
    173 H173        8.2705  -14.8999  -41.3795 H         1 UNK         0.0600 
    174 H174        6.4910  -13.5792  -42.5980 H         1 UNK         0.3000 
    175 H175        5.0323  -11.5135  -42.2696 H         1 UNK         0.0600 
    176 H176        3.5983  -13.0431  -44.5413 H         1 UNK         0.0600 
    177 H177        4.1801  -11.3850  -44.6481 H         1 UNK         0.0600 
    178 H178        5.3250  -12.7000  -44.5015 H         1 UNK         0.0600 
    179 H179        2.4625  -12.5419  -41.7162 H         1 UNK         0.3000 
    180 H180        0.7126  -11.3699  -41.2416 H         1 UNK         0.0600 
    181 H181        1.4114   -9.1644  -40.2815 H         1 UNK         0.0600 
    182 H182       -0.3023   -9.2048  -40.6637 H         1 UNK         0.0600 
    183 H183        0.8176   -8.3463  -41.7215 H         1 UNK         0.0600 
    184 H184       -0.6384   -9.7570  -43.1137 H         1 UNK         0.3000 
    185 H185       -2.1841  -10.8886  -44.4396 H         1 UNK         0.0600 
    186 H186       -0.0025  -11.1539  -46.5877 H         1 UNK         0.0600 
    187 H187       -1.6098  -10.4689  -46.8324 H         1 UNK         0.0600 
    188 H188       -0.4594   -9.6579  -45.7832 H         1 UNK         0.0600 
    189 H189       -1.6393  -12.9655  -46.3277 H         1 UNK         0.3000 
    190 H190       -2.0074  -22.7520  -45.6798 H         1 UNK         0.3000 
    191 H191       -1.8777  -24.0013  -48.2717 H         1 UNK         0.0600 
    192 H192        0.2172  -23.8372  -46.0425 H         1 UNK         0.0600 
    193 H193        0.2688  -24.9176  -47.4278 H         1 UNK         0.0600 
    194 H194       -0.9968  -25.1037  -46.2232 H         1 UNK         0.0600 
    195 H195       -0.2369  -21.2159  -46.7521 H         1 UNK         0.3000 
    196 H196        1.5315  -20.6126  -48.9051 H         1 UNK         0.0600 
    197 H197        1.7027  -18.3872  -47.7686 H         1 UNK         0.0600 
    198 H198        1.8940  -19.7233  -46.6387 H         1 UNK         0.0600 
    199 H199        0.3811  -18.8285  -46.6971 H         1 UNK         0.0600 
    200 H200       -1.7514  -19.3456  -48.1019 H         1 UNK         0.3000 
    201 H201       -2.0000  -17.6087  -50.3267 H         1 UNK         0.0600 
    202 H202       -3.4303  -17.4247  -48.3495 H         1 UNK         0.0600 
    203 H203       -4.1395  -19.0125  -48.6402 H         1 UNK         0.0600 
    204 H204       -4.4483  -17.6873  -49.7563 H         1 UNK         0.0600 
    205 H205       -2.9176  -21.0512  -49.9430 H         1 UNK         0.3000 
    206 H206       -3.9766  -21.3487  -52.6028 H         1 UNK         0.0600 
    207 H207       -4.6404  -22.7934  -50.6878 H         1 UNK         0.0600 
    208 H208       -3.9941  -23.7614  -51.9979 H         1 UNK         0.0600 
    209 H209       -3.0018  -23.4337  -50.5820 H         1 UNK         0.0600 
    210 H210       -0.7701  -21.0910  -51.4747 H         1 UNK         0.3000 
    211 H211        1.2762  -21.4767  -52.1957 H         1 UNK         0.0600 
    212 H212        0.1005  -21.6194  -55.0234 H         1 UNK         0.0600 
    213 H213        1.7657  -21.2685  -54.5957 H         1 UNK         0.0600 
    214 H214        0.4981  -20.1253  -54.1760 H         1 UNK         0.0600 
    215 H215        0.2767  -23.5857  -51.0250 H         1 UNK         0.3000 
    216 H216        0.2622  -25.7788  -50.6851 H         1 UNK         0.0600 
    217 H217        2.1172  -27.1512  -51.5481 H         1 UNK         0.0600 
    218 H218        2.7230  -25.5632  -51.1085 H         1 UNK         0.0600 
    219 H219        2.4683  -25.9728  -52.8044 H         1 UNK         0.0600 
    220 H220       -1.6059  -24.7341  -52.4878 H         1 UNK         0.3000 
    221 H221       -3.3734  -25.2865  -53.6589 H         1 UNK         0.0600 
    222 H222       -2.4947  -28.2129  -53.7037 H         1 UNK         0.0600 
    223 H223       -3.4307  -27.4622  -52.4105 H         1 UNK         0.0600 
    224 H224       -4.1004  -27.5824  -54.0280 H         1 UNK         0.0600 
    225 H225       -0.4864  -24.8989  -54.9241 H         1 UNK         0.3000 
    226 H226       -0.9112  -25.8455  -57.6431 H         1 UNK         0.0600 
    227 H227        1.3763  -25.4744  -56.6431 H         1 UNK         0.0600 
    228 H228        1.1250  -24.6014  -58.1482 H         1 UNK         0.0600 
    229 H229        1.0582  -23.7390  -56.6205 H         1 UNK         0.0600 
    230 H230       -1.5817  -22.8731  -55.8134 H         1 UNK         0.3000 
    231 H231       -2.6418  -21.4945  -58.2450 H         1 UNK         0.0600 
    232 H232       -1.0529  -20.1951  -56.8329 H         1 UNK         0.0600 
    233 H233       -2.0903  -20.4226  -55.4258 H         1 UNK         0.0600 
    234 H234       -2.6601  -19.4884  -56.8010 H         1 UNK         0.0600 
    235 H235       -3.4992  -22.7619  -55.0480 H         1 UNK         0.3000 
    236 H236       -5.3786  -23.2170  -53.9655 H         1 UNK         0.0600 
    237 H237       -6.6507  -23.5366  -56.7317 H         1 UNK         0.0600 
    238 H238       -5.6985  -24.7663  -55.9011 H         1 UNK         0.0600 
    239 H239       -7.2326  -24.2405  -55.2281 H         1 UNK         0.0600 
    240 H240       -4.8261  -20.4439  -54.4265 H         1 UNK         0.3000 
    241 H241       -5.5730  -18.4260  -54.0493 H         1 UNK         0.0600 
    242 H242       -7.0794  -18.6298  -57.6254 H         1 UNK         0.3800 
    243 H243       -6.1491  -19.8852  -56.8501 H         1 UNK         0.3800 
    244 H244       -8.3033  -19.5651  -53.2762 H         1 UNK         0.0800 
    245 H245       -7.7851  -17.9198  -53.0323 H         1 UNK         0.0800 
    246 H246       -8.9503  -19.6059  -50.6647 H         1 UNK         0.0800 
    247 H247       -8.4379  -17.9366  -50.6380 H         1 UNK         0.0800 
@<TRIPOS>BOND
     1    1    2 1    
     2    1  127 1    
     3    1  128 1    
     4    1  129 1    
     5    2    3 2    
     6    2    4 am   BACKBONE|DICT|INTERRES
     7    4    5 1    
     8    4  130 1    
     9    5    6 1    
    10    5   65 1    
    11    5  131 1    
    12    6    7 1    
    13    6  132 1    
    14    6  133 1    
    15    7    8 1    
    16    8    9 1    
    17    8  134 1    
    18    8  135 1    
    19    9   10 ar   
    20    9   14 ar   
    21   10   11 ar   
    22   10  136 1    
    23   11   12 ar   
    24   11  126 1    
    25   12   13 ar   
    26   12  137 1    
    27   13   14 ar   
    28   13   15 1    
    29   14  138 1    
    30   15   16 1    
    31   15  139 1    
    32   15  140 1    
    33   16   17 1    
    34   17   18 1    
    35   17  141 1    
    36   17  142 1    
    37   18   19 1    
    38   18   67 1    
    39   18  143 1    
    40   19   20 am   BACKBONE|DICT|INTERRES
    41   19  144 1    
    42   20   21 2    
    43   20   22 1    
    44   22   23 1    
    45   22   24 1    
    46   22  145 1    
    47   23  146 1    
    48   23  147 1    
    49   23  148 1    
    50   24   25 am   BACKBONE|DICT|INTERRES
    51   24  149 1    
    52   25   26 2    
    53   25   27 1    
    54   27   28 1    
    55   27   29 1    
    56   27  150 1    
    57   28  151 1    
    58   28  152 1    
    59   28  153 1    
    60   29   30 am   BACKBONE|DICT|INTERRES
    61   29  154 1    
    62   30   31 2    
    63   30   32 1    
    64   32   33 1    
    65   32   34 1    
    66   32  155 1    
    67   33  156 1    
    68   33  157 1    
    69   33  158 1    
    70   34   35 am   BACKBONE|DICT|INTERRES
    71   34  159 1    
    72   35   36 2    
    73   35   37 1    
    74   37   38 1    
    75   37   39 1    
    76   37  160 1    
    77   38  161 1    
    78   38  162 1    
    79   38  163 1    
    80   39   40 am   BACKBONE|DICT|INTERRES
    81   39  164 1    
    82   40   41 2    
    83   40   42 1    
    84   42   43 1    
    85   42   44 1    
    86   42  165 1    
    87   43  166 1    
    88   43  167 1    
    89   43  168 1    
    90   44   45 am   BACKBONE|DICT|INTERRES
    91   44  169 1    
    92   45   46 2    
    93   45   47 1    
    94   47   48 1    
    95   47   49 1    
    96   47  170 1    
    97   48  171 1    
    98   48  172 1    
    99   48  173 1    
   100   49   50 am   BACKBONE|DICT|INTERRES
   101   49  174 1    
   102   50   51 2    
   103   50   52 1    
   104   52   53 1    
   105   52   54 1    
   106   52  175 1    
   107   53  176 1    
   108   53  177 1    
   109   53  178 1    
   110   54   55 am   BACKBONE|DICT|INTERRES
   111   54  179 1    
   112   55   56 2    
   113   55   57 1    
   114   57   58 1    
   115   57   59 1    
   116   57  180 1    
   117   58  181 1    
   118   58  182 1    
   119   58  183 1    
   120   59   60 am   BACKBONE|DICT|INTERRES
   121   59  184 1    
   122   60   61 2    
   123   60   62 1    
   124   62   63 1    
   125   62   64 1    
   126   62  185 1    
   127   63  186 1    
   128   63  187 1    
   129   63  188 1    
   130   64   65 am   BACKBONE|DICT|INTERRES
   131   64  189 1    
   132   65   66 2    
   133   67   68 2    
   134   67   69 am   BACKBONE|DICT|INTERRES
   135   69   70 1    
   136   69  190 1    
   137   70   71 1    
   138   70   72 1    
   139   70  191 1    
   140   71  192 1    
   141   71  193 1    
   142   71  194 1    
   143   72   73 2    
   144   72   74 am   BACKBONE|DICT|INTERRES
   145   74   75 1    
   146   74  195 1    
   147   75   76 1    
   148   75   77 1    
   149   75  196 1    
   150   76  197 1    
   151   76  198 1    
   152   76  199 1    
   153   77   78 2    
   154   77   79 am   BACKBONE|DICT|INTERRES
   155   79   80 1    
   156   79  200 1    
   157   80   81 1    
   158   80   82 1    
   159   80  201 1    
   160   81  202 1    
   161   81  203 1    
   162   81  204 1    
   163   82   83 2    
   164   82   84 am   BACKBONE|DICT|INTERRES
   165   84   85 1    
   166   84  205 1    
   167   85   86 1    
   168   85   87 1    
   169   85  206 1    
   170   86  207 1    
   171   86  208 1    
   172   86  209 1    
   173   87   88 2    
   174   87   89 am   BACKBONE|DICT|INTERRES
   175   89   90 1    
   176   89  210 1    
   177   90   91 1    
   178   90   92 1    
   179   90  211 1    
   180   91  212 1    
   181   91  213 1    
   182   91  214 1    
   183   92   93 2    
   184   92   94 am   BACKBONE|DICT|INTERRES
   185   94   95 1    
   186   94  215 1    
   187   95   96 1    
   188   95   97 1    
   189   95  216 1    
   190   96  217 1    
   191   96  218 1    
   192   96  219 1    
   193   97   98 2    
   194   97   99 am   BACKBONE|DICT|INTERRES
   195   99  100 1    
   196   99  220 1    
   197  100  101 1    
   198  100  102 1    
   199  100  221 1    
   200  101  222 1    
   201  101  223 1    
   202  101  224 1    
   203  102  103 2    
   204  102  104 am   BACKBONE|DICT|INTERRES
   205  104  105 1    
   206  104  225 1    
   207  105  106 1    
   208  105  107 1    
   209  105  226 1    
   210  106  227 1    
   211  106  228 1    
   212  106  229 1    
   213  107  108 2    
   214  107  109 am   BACKBONE|DICT|INTERRES
   215  109  110 1    
   216  109  230 1    
   217  110  111 1    
   218  110  112 1    
   219  110  231 1    
   220  111  232 1    
   221  111  233 1    
   222  111  234 1    
   223  112  113 2    
   224  112  114 am   BACKBONE|DICT|INTERRES
   225  114  115 1    
   226  114  235 1    
   227  115  116 1    
   228  115  117 1    
   229  115  236 1    
   230  116  237 1    
   231  116  238 1    
   232  116  239 1    
   233  117  118 2    
   234  117  119 am   BACKBONE|DICT|INTERRES
   235  119  120 1    
   236  119  240 1    
   237  120  121 1    
   238  120  124 1    
   239  120  241 1    
   240  121  122 am   BACKBONE|DICT|INTERRES
   241  121  123 2    
   242  122  242 1    
   243  122  243 1    
   244  124  125 1    
   245  124  244 1    
   246  124  245 1    
   247  125  126 1    
   248  126  246 1    
   249  126  247 1    
@<TRIPOS>SUBSTRUCTURE
     1 UNK         1 GROUP             0       ****    0 ROOT    
