@<TRIPOS>MOLECULE
3R540
247   249    1
SMALL
USER_CHARGES


@<TRIPOS>ATOM
      1 CA         -3.6057  -16.5850  -48.6434 C.3       0 UNK        -0.1800 
      2 C          -2.1825  -16.0541  -48.7208 C.2       0 UNK         0.5000 
      3 O          -1.2989  -16.5629  -48.0307 O.2       0 UNK        -0.5000 
      4 N          -1.9602  -15.0255  -49.5513 N.am      1 UNK        -0.5000 
      5 CA         -0.6855  -14.3165  -49.7078 C.3       1 UNK         0.1400 
      6 C6          0.4219  -15.2373  -50.2935 C.3       23 UNK        -0.0398 
      7 S7          1.8464  -14.3189  -50.9715 S.3       23 UNK        -0.2404 
      8 C8          2.2970  -15.3592  -52.4039 C.3       23 UNK        -0.0205 
      9 C9          2.7966  -16.7717  -52.0863 C.ar      23 UNK        -0.0193 
     10 C10         2.9395  -17.6683  -53.1495 C.ar      23 UNK        -0.1150 
     11 C11         3.3923  -18.9719  -52.9351 C.ar      23 UNK        -0.0193 
     12 C12         3.7111  -19.3822  -51.6378 C.ar      23 UNK        -0.1150 
     13 C13         3.5759  -18.5028  -50.5598 C.ar      23 UNK        -0.0193 
     14 C14         3.1309  -17.1985  -50.7926 C.ar      23 UNK        -0.1150 
     15 C15         3.9517  -18.9433  -49.1499 C.3       23 UNK        -0.0205 
     16 S16         2.9759  -20.3642  -48.5593 S.3       23 UNK        -0.2404 
     17 C17         1.3366  -19.6158  -48.2658 C.3       23 UNK        -0.0398 
     18 CA          0.2507  -20.6892  -48.0076 C.3       11 UNK         0.1400 
     19 N           0.5825  -21.5871  -46.8974 N.am      11 UNK        -0.5000 
     20 C           0.0931  -22.8260  -46.7478 C.2       10 UNK         0.5000 
     21 O          -0.6997  -23.3489  -47.5307 O.2       10 UNK        -0.5000 
     22 CA          0.5543  -23.6043  -45.5005 C.3       10 UNK         0.1400 
     23 CB          1.8717  -24.3423  -45.7828 C.3       10 UNK        -0.1800 
     24 N           0.7290  -22.7339  -44.3369 N.am      10 UNK        -0.5000 
     25 C          -0.2813  -22.1604  -43.6689 C.2       9 UNK         0.5000 
     26 O          -1.4671  -22.3968  -43.8962 O.2       9 UNK        -0.5000 
     27 CA          0.0905  -21.1205  -42.5935 C.3       9 UNK         0.1400 
     28 CB          0.1040  -21.7567  -41.1965 C.3       9 UNK        -0.1800 
     29 N           1.3740  -20.4526  -42.8279 N.am      9 UNK        -0.5000 
     30 C           1.6548  -19.6574  -43.8688 C.2       8 UNK         0.5000 
     31 O           0.8596  -19.4390  -44.7843 O.2       8 UNK        -0.5000 
     32 CA          3.0429  -18.9903  -43.8568 C.3       8 UNK         0.1400 
     33 CB          3.2695  -18.0488  -45.0536 C.3       8 UNK        -0.1800 
     34 N           3.2228  -18.2361  -42.6177 N.am      8 UNK        -0.5000 
     35 C           3.7341  -18.7236  -41.4791 C.2       7 UNK         0.5000 
     36 O           4.1038  -19.8930  -41.3632 O.2       7 UNK        -0.5000 
     37 CA          3.7897  -17.7870  -40.2524 C.3       7 UNK         0.1400 
     38 CB          5.0899  -17.9563  -39.4394 C.3       7 UNK        -0.1800 
     39 N           3.5284  -16.3758  -40.5598 N.am      7 UNK        -0.5000 
     40 C           4.2869  -15.5257  -41.2704 C.2       6 UNK         0.5000 
     41 O           5.3885  -15.8205  -41.7350 O.2       6 UNK        -0.5000 
     42 CA          3.7064  -14.1205  -41.5355 C.3       6 UNK         0.1400 
     43 CB          3.8873  -13.7202  -43.0070 C.3       6 UNK        -0.1800 
     44 N           2.2789  -14.0581  -41.2199 N.am      6 UNK        -0.5000 
     45 C           1.7434  -13.4909  -40.1309 C.2       5 UNK         0.5000 
     46 O           2.3958  -12.8766  -39.2865 O.2       5 UNK        -0.5000 
     47 CA          0.2237  -13.6722  -39.9290 C.3       5 UNK         0.1400 
     48 CB         -0.5410  -12.4749  -40.5132 C.3       5 UNK        -0.1800 
     49 N          -0.2985  -14.9047  -40.5257 N.am      5 UNK        -0.5000 
     50 C           0.0568  -16.1482  -40.1714 C.2       4 UNK         0.5000 
     51 O           0.8077  -16.3975  -39.2292 O.2       4 UNK        -0.5000 
     52 CA         -0.4483  -17.3058  -41.0552 C.3       4 UNK         0.1400 
     53 CB         -1.6393  -18.0157  -40.3960 C.3       4 UNK        -0.1800 
     54 N          -0.8250  -16.9006  -42.4122 N.am      4 UNK        -0.5000 
     55 C           0.0022  -16.3775  -43.3287 C.2       3 UNK         0.5000 
     56 O           1.1951  -16.1539  -43.1047 O.2       3 UNK        -0.5000 
     57 CA         -0.6194  -16.0867  -44.7127 C.3       3 UNK         0.1400 
     58 CB         -2.0423  -15.4936  -44.6139 C.3       3 UNK        -0.1800 
     59 N           0.2005  -15.2494  -45.5898 N.am      3 UNK        -0.5000 
     60 C           0.6457  -14.0020  -45.3722 C.2       2 UNK         0.5000 
     61 O           0.4924  -13.3813  -44.3192 O.2       2 UNK        -0.5000 
     62 CA          1.3480  -13.3130  -46.5630 C.3       2 UNK         0.1400 
     63 CB          2.8715  -13.4881  -46.4844 C.3       2 UNK        -0.1800 
     64 N           0.8906  -13.8155  -47.8606 N.am      2 UNK        -0.5000 
     65 C          -0.3238  -13.5968  -48.3834 C.2       1 UNK         0.5000 
     66 O          -1.1641  -12.8652  -47.8542 O.2       1 UNK        -0.5000 
     67 C          -1.1303  -20.0415  -47.8044 C.2       11 UNK         0.5000 
     68 O          -1.8364  -19.8093  -48.7853 O.2       11 UNK        -0.5000 
     69 N          -1.5128  -19.8220  -46.5348 N.am      12 UNK        -0.5000 
     70 CA         -2.7870  -19.2450  -46.0918 C.3       12 UNK         0.1400 
     71 CB         -2.8347  -19.2423  -44.5570 C.3       12 UNK        -0.1800 
     72 C          -4.0378  -19.9484  -46.6542 C.2       12 UNK         0.5000 
     73 O          -5.0661  -19.2985  -46.8395 O.2       12 UNK        -0.5000 
     74 N          -3.9156  -21.2459  -46.9687 N.am      13 UNK        -0.5000 
     75 CA         -4.9365  -22.0609  -47.6282 C.3       13 UNK         0.1400 
     76 CB         -4.4573  -23.5183  -47.6717 C.3       13 UNK        -0.1800 
     77 C          -5.3309  -21.5645  -49.0361 C.2       13 UNK         0.5000 
     78 O          -6.4177  -21.9003  -49.5075 O.2       13 UNK        -0.5000 
     79 N          -4.4964  -20.7310  -49.6765 N.am      14 UNK        -0.5000 
     80 CA         -4.8240  -20.0580  -50.9354 C.3       14 UNK         0.1400 
     81 CB         -3.5721  -19.3869  -51.5089 C.3       14 UNK        -0.1800 
     82 C          -5.9885  -19.0531  -50.8131 C.2       14 UNK         0.5000 
     83 O          -6.6334  -18.7700  -51.8218 O.2       14 UNK        -0.5000 
     84 N          -6.3005  -18.5896  -49.5909 N.am      15 UNK        -0.5000 
     85 CA         -7.5030  -17.8030  -49.2926 C.3       15 UNK         0.1400 
     86 CB         -7.3911  -17.2025  -47.8838 C.3       15 UNK        -0.1800 
     87 C          -8.8036  -18.6240  -49.4248 C.2       15 UNK         0.5000 
     88 O          -9.8593  -18.0465  -49.6843 O.2       15 UNK        -0.5000 
     89 N          -8.6981  -19.9532  -49.2827 N.am      16 UNK        -0.5000 
     90 CA         -9.7618  -20.9258  -49.5395 C.3       16 UNK         0.1400 
     91 CB         -9.6904  -22.0297  -48.4697 C.3       16 UNK        -0.1800 
     92 C          -9.6662  -21.5148  -50.9648 C.2       16 UNK         0.5000 
     93 O         -10.3785  -22.4720  -51.2699 O.2       16 UNK        -0.5000 
     94 N          -8.7934  -20.9382  -51.8073 N.am      17 UNK        -0.5000 
     95 CA         -8.5141  -21.2936  -53.2005 C.3       17 UNK         0.1400 
     96 CB         -9.7553  -21.0622  -54.0880 C.3       17 UNK        -0.1800 
     97 C          -7.9014  -22.6988  -53.3699 C.2       17 UNK         0.5000 
     98 O          -8.1485  -23.3541  -54.3838 O.2       17 UNK        -0.5000 
     99 N          -7.0814  -23.1360  -52.4016 N.am      18 UNK        -0.5000 
    100 CA        -6.4200  -24.4474  -52.3714 C.3       18 UNK         0.1400 
    101 CB        -6.0257  -24.7733  -50.9211 C.3       18 UNK        -0.1800 
    102 C         -5.2250  -24.5898  -53.3476 C.2       18 UNK         0.5000 
    103 O         -4.1985  -25.1585  -52.9721 O.2       18 UNK        -0.5000 
    104 N         -5.3910  -24.0885  -54.5807 N.am      19 UNK        -0.5000 
    105 CA        -4.5359  -24.2198  -55.7667 C.3       19 UNK         0.1400 
    106 CB        -4.8807  -25.5389  -56.4909 C.3       19 UNK        -0.1800 
    107 C         -3.0253  -24.0570  -55.4922 C.2       19 UNK         0.5000 
    108 O         -2.5379  -22.9285  -55.4002 O.2       19 UNK        -0.5000 
    109 N         -2.3266  -25.1918  -55.3436 N.am      20 UNK        -0.5000 
    110 CA        -0.8904  -25.3283  -55.0901 C.3       20 UNK         0.1400 
    111 CB        -0.5313  -26.8226  -55.1255 C.3       20 UNK        -0.1800 
    112 C         -0.3820  -24.6786  -53.7859 C.2       20 UNK         0.5000 
    113 O          0.8319  -24.5558  -53.6214 O.2       20 UNK        -0.5000 
    114 N         -1.2933  -24.2592  -52.8951 N.am      21 UNK        -0.5000 
    115 CA        -0.9974  -23.4217  -51.7309 C.3       21 UNK         0.1400 
    116 CB        -2.2775  -23.2353  -50.9030 C.3       21 UNK        -0.1800 
    117 C         -0.3987  -22.0494  -52.1042 C.2       21 UNK         0.5000 
    118 O          0.4210  -21.5388  -51.3447 O.2       21 UNK        -0.5000 
    119 N         -0.8138  -21.4993  -53.2572 N.am      22 UNK        -0.5000 
    120 CA        -0.3729  -20.2585  -53.9346 C.3       22 UNK         0.1400 
    121 C         -0.3024  -18.9225  -53.1302 C.2       22 UNK         0.5000 
    122 N         -0.2384  -18.9278  -51.8095 N.am      22 UNK        -0.7600 
    123 O         -0.3567  -17.8513  -53.7285 O.2       22 UNK        -0.5000 
    124 C124        0.8603  -20.4594  -54.8654 C.3       23 UNK        -0.0398 
    125 S125        2.3286  -21.2554  -54.1185 S.3       23 UNK        -0.2404 
    126 C126        3.5717  -19.9261  -54.1063 C.3       23 UNK        -0.0205 
    127 H127       -4.2424  -16.1640  -49.4217 H         1 UNK         0.0600 
    128 H128       -4.0402  -16.3426  -47.6740 H         1 UNK         0.0600 
    129 H129       -3.6066  -17.6679  -48.7538 H         1 UNK         0.0600 
    130 H130       -2.7363  -14.6315  -50.0639 H         1 UNK         0.3000 
    131 H131       -0.8776  -13.5264  -50.4354 H         1 UNK         0.0600 
    132 H132        0.7693  -15.9648  -49.5590 H         1 UNK         0.0800 
    133 H133       -0.0068  -15.8261  -51.1057 H         1 UNK         0.0800 
    134 H134        1.4332  -15.4256  -53.0678 H         1 UNK         0.0800 
    135 H135        3.0756  -14.8413  -52.9651 H         1 UNK         0.0800 
    136 H136        2.6904  -17.3489  -54.1518 H         1 UNK         0.1150 
    137 H137        4.0630  -20.3898  -51.4664 H         1 UNK         0.1150 
    138 H138        3.0585  -16.5209  -49.9560 H         1 UNK         0.1150 
    139 H139        5.0065  -19.2206  -49.1441 H         1 UNK         0.0800 
    140 H140        3.8490  -18.1210  -48.4404 H         1 UNK         0.0800 
    141 H141        1.4054  -18.9222  -47.4270 H         1 UNK         0.0800 
    142 H142        1.0707  -19.0176  -49.1390 H         1 UNK         0.0800 
    143 H143        0.1755  -21.3030  -48.9034 H         1 UNK         0.0600 
    144 H144        1.1919  -21.2071  -46.1880 H         1 UNK         0.3000 
    145 H145       -0.2109  -24.3478  -45.2669 H         1 UNK         0.0600 
    146 H146        2.1773  -24.9454  -44.9277 H         1 UNK         0.0600 
    147 H147        1.7654  -25.0165  -46.6338 H         1 UNK         0.0600 
    148 H148        2.6819  -23.6492  -46.0131 H         1 UNK         0.0600 
    149 H149        1.6751  -22.5031  -44.0722 H         1 UNK         0.3000 
    150 H150       -0.6854  -20.3532  -42.6070 H         1 UNK         0.0600 
    151 H151       -0.8485  -22.2415  -40.9783 H         1 UNK         0.0600 
    152 H152        0.2691  -21.0059  -40.4233 H         1 UNK         0.0600 
    153 H153        0.8861  -22.5115  -41.1059 H         1 UNK         0.0600 
    154 H154        2.0928  -20.5845  -42.1272 H         1 UNK         0.3000 
    155 H155        3.7900  -19.7841  -43.9177 H         1 UNK         0.0600 
    156 H156        4.2350  -17.5476  -44.9832 H         1 UNK         0.0600 
    157 H157        2.5003  -17.2798  -45.1250 H         1 UNK         0.0600 
    158 H158        3.2653  -18.6075  -45.9884 H         1 UNK         0.0600 
    159 H159        2.8444  -17.2951  -42.6229 H         1 UNK         0.3000 
    160 H160        2.9673  -18.1024  -39.6093 H         1 UNK         0.0600 
    161 H161        5.9766  -17.7536  -40.0403 H         1 UNK         0.0600 
    162 H162        5.1831  -18.9744  -39.0597 H         1 UNK         0.0600 
    163 H163        5.1066  -17.2886  -38.5780 H         1 UNK         0.0600 
    164 H164        2.6444  -16.0283  -40.2074 H         1 UNK         0.3000 
    165 H165        4.2664  -13.4158  -40.9179 H         1 UNK         0.0600 
    166 H166        3.4079  -14.4389  -43.6730 H         1 UNK         0.0600 
    167 H167        3.4539  -12.7390  -43.2014 H         1 UNK         0.0600 
    168 H168        4.9421  -13.6692  -43.2791 H         1 UNK         0.0600 
    169 H169        1.6714  -14.5537  -41.8649 H         1 UNK         0.3000 
    170 H170        0.0348  -13.7125  -38.8543 H         1 UNK         0.0600 
    171 H171       -0.1946  -11.5382  -40.0746 H         1 UNK         0.0600 
    172 H172       -0.4064  -12.4015  -41.5935 H         1 UNK         0.0600 
    173 H173       -1.6095  -12.5516  -40.3114 H         1 UNK         0.0600 
    174 H174       -0.9091  -14.7940  -41.3215 H         1 UNK         0.3000 
    175 H175        0.3693  -18.0244  -41.1423 H         1 UNK         0.0600 
    176 H176       -2.4988  -17.3514  -40.2972 H         1 UNK         0.0600 
    177 H177       -1.9516  -18.8860  -40.9734 H         1 UNK         0.0600 
    178 H178       -1.3798  -18.3679  -39.3967 H         1 UNK         0.0600 
    179 H179       -1.7938  -17.0361  -42.6595 H         1 UNK         0.3000 
    180 H180       -0.6896  -17.0492  -45.2203 H         1 UNK         0.0600 
    181 H181       -2.0554  -14.5730  -44.0293 H         1 UNK         0.0600 
    182 H182       -2.7438  -16.1895  -44.1543 H         1 UNK         0.0600 
    183 H183       -2.4363  -15.2609  -45.6035 H         1 UNK         0.0600 
    184 H184        0.3592  -15.6416  -46.5074 H         1 UNK         0.3000 
    185 H185        1.1228  -12.2457  -46.5137 H         1 UNK         0.0600 
    186 H186        3.3651  -13.0723  -47.3630 H         1 UNK         0.0600 
    187 H187        3.2742  -12.9645  -45.6188 H         1 UNK         0.0600 
    188 H188        3.1562  -14.5382  -46.4032 H         1 UNK         0.0600 
    189 H189        1.5430  -14.3857  -48.3789 H         1 UNK         0.3000 
    190 H190       -0.8259  -19.9977  -45.8105 H         1 UNK         0.3000 
    191 H191       -2.8034  -18.2101  -46.4328 H         1 UNK         0.0600 
    192 H192       -1.9263  -18.8234  -44.1291 H         1 UNK         0.0600 
    193 H193       -3.6753  -18.6484  -44.1964 H         1 UNK         0.0600 
    194 H194       -2.9554  -20.2488  -44.1573 H         1 UNK         0.0600 
    195 H195       -3.0253  -21.6911  -46.7968 H         1 UNK         0.3000 
    196 H196       -5.8375  -22.0182  -47.0133 H         1 UNK         0.0600 
    197 H197       -5.2163  -24.1680  -48.1082 H         1 UNK         0.0600 
    198 H198       -4.2503  -23.8946  -46.6697 H         1 UNK         0.0600 
    199 H199       -3.5472  -23.6263  -48.2615 H         1 UNK         0.0600 
    200 H200       -3.6095  -20.4792  -49.2472 H         1 UNK         0.3000 
    201 H201       -5.1377  -20.8262  -51.6452 H         1 UNK         0.0600 
    202 H202       -2.7749  -20.1158  -51.6440 H         1 UNK         0.0600 
    203 H203       -3.1946  -18.5982  -50.8594 H         1 UNK         0.0600 
    204 H204       -3.7741  -18.9414  -52.4835 H         1 UNK         0.0600 
    205 H205       -5.7424  -18.8750  -48.7934 H         1 UNK         0.3000 
    206 H206       -7.5562  -16.9803  -50.0088 H         1 UNK         0.0600 
    207 H207       -6.4903  -16.5989  -47.7791 H         1 UNK         0.0600 
    208 H208       -8.2418  -16.5548  -47.6685 H         1 UNK         0.0600 
    209 H209       -7.3693  -17.9771  -47.1165 H         1 UNK         0.0600 
    210 H210       -7.7847  -20.3544  -49.1064 H         1 UNK         0.3000 
    211 H211      -10.7362  -20.4406  -49.4566 H         1 UNK         0.0600 
    212 H212       -8.7711  -22.6105  -48.5462 H         1 UNK         0.0600 
    213 H213      -10.5246  -22.7253  -48.5685 H         1 UNK         0.0600 
    214 H214       -9.7388  -21.6090  -47.4653 H         1 UNK         0.0600 
    215 H215       -8.2602  -20.1510  -51.4609 H         1 UNK         0.3000 
    216 H216       -7.7452  -20.5978  -53.5381 H         1 UNK         0.0600 
    217 H217      -10.1542  -20.0569  -53.9531 H         1 UNK         0.0600 
    218 H218      -10.5521  -21.7726  -53.8662 H         1 UNK         0.0600 
    219 H219       -9.5071  -21.1710  -55.1444 H         1 UNK         0.0600 
    220 H220       -6.9404  -22.5531  -51.5854 H         1 UNK         0.3000 
    221 H221       -7.1547  -25.1946  -52.6781 H         1 UNK         0.0600 
    222 H222       -5.2209  -24.1252  -50.5764 H         1 UNK         0.0600 
    223 H223       -6.8703  -24.6563  -50.2415 H         1 UNK         0.0600 
    224 H224       -5.6770  -25.8026  -50.8298 H         1 UNK         0.0600 
    225 H225       -6.2954  -23.6604  -54.7540 H         1 UNK         0.3000 
    226 H226       -4.8090  -23.4011  -56.4340 H         1 UNK         0.0600 
    227 H227       -5.9166  -25.5339  -56.8304 H         1 UNK         0.0600 
    228 H228       -4.2562  -25.6820  -57.3739 H         1 UNK         0.0600 
    229 H229       -4.7541  -26.4084  -55.8449 H         1 UNK         0.0600 
    230 H230       -2.8440  -26.0575  -55.3862 H         1 UNK         0.3000 
    231 H231       -0.3691  -24.8323  -55.9112 H         1 UNK         0.0600 
    232 H232        0.5400  -26.9735  -54.9858 H         1 UNK         0.0600 
    233 H233       -0.7970  -27.2711  -56.0830 H         1 UNK         0.0600 
    234 H234       -1.0460  -27.3762  -54.3392 H         1 UNK         0.0600 
    235 H235       -2.2714  -24.4633  -53.0742 H         1 UNK         0.3000 
    236 H236       -0.2641  -23.9473  -51.1159 H         1 UNK         0.0600 
    237 H237       -3.0663  -22.7545  -51.4825 H         1 UNK         0.0600 
    238 H238       -2.6580  -24.1931  -50.5482 H         1 UNK         0.0600 
    239 H239       -2.0873  -22.6141  -50.0264 H         1 UNK         0.0600 
    240 H240       -1.4879  -22.0342  -53.7932 H         1 UNK         0.3000 
    241 H241       -1.2067  -20.0703  -54.6124 H         1 UNK         0.0600 
    242 H242       -0.0810  -19.8198  -51.3471 H         1 UNK         0.3800 
    243 H243       -0.2099  -18.0649  -51.2985 H         1 UNK         0.3800 
    244 H244        1.1518  -19.5179  -55.3336 H         1 UNK         0.0800 
    245 H245        0.5591  -21.1011  -55.6943 H         1 UNK         0.0800 
    246 H246        4.5610  -20.3804  -54.0370 H         1 UNK         0.0800 
    247 H247        3.5528  -19.3923  -55.0576 H         1 UNK         0.0800 
@<TRIPOS>BOND
     1    1    2 1    
     2    1  127 1    
     3    1  128 1    
     4    1  129 1    
     5    2    3 2    
     6    2    4 am   BACKBONE|DICT|INTERRES
     7    4    5 1    
     8    4  130 1    
     9    5    6 1    
    10    5   65 1    
    11    5  131 1    
    12    6    7 1    
    13    6  132 1    
    14    6  133 1    
    15    7    8 1    
    16    8    9 1    
    17    8  134 1    
    18    8  135 1    
    19    9   10 ar   
    20    9   14 ar   
    21   10   11 ar   
    22   10  136 1    
    23   11   12 ar   
    24   11  126 1    
    25   12   13 ar   
    26   12  137 1    
    27   13   14 ar   
    28   13   15 1    
    29   14  138 1    
    30   15   16 1    
    31   15  139 1    
    32   15  140 1    
    33   16   17 1    
    34   17   18 1    
    35   17  141 1    
    36   17  142 1    
    37   18   19 1    
    38   18   67 1    
    39   18  143 1    
    40   19   20 am   BACKBONE|DICT|INTERRES
    41   19  144 1    
    42   20   21 2    
    43   20   22 1    
    44   22   23 1    
    45   22   24 1    
    46   22  145 1    
    47   23  146 1    
    48   23  147 1    
    49   23  148 1    
    50   24   25 am   BACKBONE|DICT|INTERRES
    51   24  149 1    
    52   25   26 2    
    53   25   27 1    
    54   27   28 1    
    55   27   29 1    
    56   27  150 1    
    57   28  151 1    
    58   28  152 1    
    59   28  153 1    
    60   29   30 am   BACKBONE|DICT|INTERRES
    61   29  154 1    
    62   30   31 2    
    63   30   32 1    
    64   32   33 1    
    65   32   34 1    
    66   32  155 1    
    67   33  156 1    
    68   33  157 1    
    69   33  158 1    
    70   34   35 am   BACKBONE|DICT|INTERRES
    71   34  159 1    
    72   35   36 2    
    73   35   37 1    
    74   37   38 1    
    75   37   39 1    
    76   37  160 1    
    77   38  161 1    
    78   38  162 1    
    79   38  163 1    
    80   39   40 am   BACKBONE|DICT|INTERRES
    81   39  164 1    
    82   40   41 2    
    83   40   42 1    
    84   42   43 1    
    85   42   44 1    
    86   42  165 1    
    87   43  166 1    
    88   43  167 1    
    89   43  168 1    
    90   44   45 am   BACKBONE|DICT|INTERRES
    91   44  169 1    
    92   45   46 2    
    93   45   47 1    
    94   47   48 1    
    95   47   49 1    
    96   47  170 1    
    97   48  171 1    
    98   48  172 1    
    99   48  173 1    
   100   49   50 am   BACKBONE|DICT|INTERRES
   101   49  174 1    
   102   50   51 2    
   103   50   52 1    
   104   52   53 1    
   105   52   54 1    
   106   52  175 1    
   107   53  176 1    
   108   53  177 1    
   109   53  178 1    
   110   54   55 am   BACKBONE|DICT|INTERRES
   111   54  179 1    
   112   55   56 2    
   113   55   57 1    
   114   57   58 1    
   115   57   59 1    
   116   57  180 1    
   117   58  181 1    
   118   58  182 1    
   119   58  183 1    
   120   59   60 am   BACKBONE|DICT|INTERRES
   121   59  184 1    
   122   60   61 2    
   123   60   62 1    
   124   62   63 1    
   125   62   64 1    
   126   62  185 1    
   127   63  186 1    
   128   63  187 1    
   129   63  188 1    
   130   64   65 am   BACKBONE|DICT|INTERRES
   131   64  189 1    
   132   65   66 2    
   133   67   68 2    
   134   67   69 am   BACKBONE|DICT|INTERRES
   135   69   70 1    
   136   69  190 1    
   137   70   71 1    
   138   70   72 1    
   139   70  191 1    
   140   71  192 1    
   141   71  193 1    
   142   71  194 1    
   143   72   73 2    
   144   72   74 am   BACKBONE|DICT|INTERRES
   145   74   75 1    
   146   74  195 1    
   147   75   76 1    
   148   75   77 1    
   149   75  196 1    
   150   76  197 1    
   151   76  198 1    
   152   76  199 1    
   153   77   78 2    
   154   77   79 am   BACKBONE|DICT|INTERRES
   155   79   80 1    
   156   79  200 1    
   157   80   81 1    
   158   80   82 1    
   159   80  201 1    
   160   81  202 1    
   161   81  203 1    
   162   81  204 1    
   163   82   83 2    
   164   82   84 am   BACKBONE|DICT|INTERRES
   165   84   85 1    
   166   84  205 1    
   167   85   86 1    
   168   85   87 1    
   169   85  206 1    
   170   86  207 1    
   171   86  208 1    
   172   86  209 1    
   173   87   88 2    
   174   87   89 am   BACKBONE|DICT|INTERRES
   175   89   90 1    
   176   89  210 1    
   177   90   91 1    
   178   90   92 1    
   179   90  211 1    
   180   91  212 1    
   181   91  213 1    
   182   91  214 1    
   183   92   93 2    
   184   92   94 am   BACKBONE|DICT|INTERRES
   185   94   95 1    
   186   94  215 1    
   187   95   96 1    
   188   95   97 1    
   189   95  216 1    
   190   96  217 1    
   191   96  218 1    
   192   96  219 1    
   193   97   98 2    
   194   97   99 am   BACKBONE|DICT|INTERRES
   195   99  100 1    
   196   99  220 1    
   197  100  101 1    
   198  100  102 1    
   199  100  221 1    
   200  101  222 1    
   201  101  223 1    
   202  101  224 1    
   203  102  103 2    
   204  102  104 am   BACKBONE|DICT|INTERRES
   205  104  105 1    
   206  104  225 1    
   207  105  106 1    
   208  105  107 1    
   209  105  226 1    
   210  106  227 1    
   211  106  228 1    
   212  106  229 1    
   213  107  108 2    
   214  107  109 am   BACKBONE|DICT|INTERRES
   215  109  110 1    
   216  109  230 1    
   217  110  111 1    
   218  110  112 1    
   219  110  231 1    
   220  111  232 1    
   221  111  233 1    
   222  111  234 1    
   223  112  113 2    
   224  112  114 am   BACKBONE|DICT|INTERRES
   225  114  115 1    
   226  114  235 1    
   227  115  116 1    
   228  115  117 1    
   229  115  236 1    
   230  116  237 1    
   231  116  238 1    
   232  116  239 1    
   233  117  118 2    
   234  117  119 am   BACKBONE|DICT|INTERRES
   235  119  120 1    
   236  119  240 1    
   237  120  121 1    
   238  120  124 1    
   239  120  241 1    
   240  121  122 am   BACKBONE|DICT|INTERRES
   241  121  123 2    
   242  122  242 1    
   243  122  243 1    
   244  124  125 1    
   245  124  244 1    
   246  124  245 1    
   247  125  126 1    
   248  126  246 1    
   249  126  247 1    
@<TRIPOS>SUBSTRUCTURE
     1 UNK         1 GROUP             0       ****    0 ROOT    
