@<TRIPOS>MOLECULE
3R540
247   249    1
SMALL
USER_CHARGES


@<TRIPOS>ATOM
      1 CA          1.3152  -16.6995  -48.8048 C.3       0 UNK        -0.1800 
      2 C           0.1781  -17.6968  -48.6479 C.2       0 UNK         0.5000 
      3 O          -0.3416  -17.8524  -47.5450 O.2       0 UNK        -0.5000 
      4 N          -0.2776  -18.3188  -49.7459 N.am      1 UNK        -0.5000 
      5 CA         -1.4102  -19.2610  -49.7613 C.3       1 UNK         0.1400 
      6 C6         -1.5422  -20.0385  -51.0997 C.3       23 UNK        -0.0398 
      7 S7         -0.5601  -21.5795  -51.1055 S.3       23 UNK        -0.2404 
      8 C8          0.6838  -21.2906  -52.3987 C.3       23 UNK        -0.0205 
      9 C9          1.5832  -20.1232  -52.0408 C.ar      23 UNK        -0.0193 
     10 C10         1.3980  -18.8926  -52.6677 C.ar      23 UNK        -0.1150 
     11 C11         2.1455  -17.7799  -52.2833 C.ar      23 UNK        -0.0193 
     12 C12         3.1244  -17.9183  -51.2937 C.ar      23 UNK        -0.1150 
     13 C13         3.3283  -19.1516  -50.6615 C.ar      23 UNK        -0.0193 
     14 C14         2.5597  -20.2539  -51.0498 C.ar      23 UNK        -0.1150 
     15 C15         4.3663  -19.2830  -49.5527 C.3       23 UNK        -0.0205 
     16 S16         3.6270  -19.7500  -47.9485 S.3       23 UNK        -0.2404 
     17 C17         4.0979  -21.5096  -47.8341 C.3       23 UNK        -0.0398 
     18 CA          3.1953  -22.4131  -46.9551 C.3       11 UNK         0.1400 
     19 N           3.1401  -22.0107  -45.5427 N.am      11 UNK        -0.5000 
     20 C           3.2137  -22.8815  -44.5219 C.2       10 UNK         0.5000 
     21 O           3.3929  -24.0909  -44.6707 O.2       10 UNK        -0.5000 
     22 CA          3.0459  -22.3373  -43.0883 C.3       10 UNK         0.1400 
     23 CB          4.3919  -21.8488  -42.5332 C.3       10 UNK        -0.1800 
     24 N           2.0570  -21.2687  -42.9695 N.am      10 UNK        -0.5000 
     25 C           0.7543  -21.3852  -43.2605 C.2       9 UNK         0.5000 
     26 O           0.2235  -22.4356  -43.6206 O.2       9 UNK        -0.5000 
     27 CA         -0.0878  -20.0967  -43.1956 C.3       9 UNK         0.1400 
     28 CB         -0.7286  -19.9332  -41.8107 C.3       9 UNK        -0.1800 
     29 N           0.6640  -18.8861  -43.5304 N.am      9 UNK        -0.5000 
     30 C           1.3243  -18.6725  -44.6777 C.2       8 UNK         0.5000 
     31 O           1.3836  -19.5016  -45.5836 O.2       8 UNK        -0.5000 
     32 CA          2.1090  -17.3525  -44.7822 C.3       8 UNK         0.1400 
     33 CB          1.1822  -16.1456  -45.0047 C.3       8 UNK        -0.1800 
     34 N           2.8852  -17.1239  -43.5661 N.am      8 UNK        -0.5000 
     35 C           4.0438  -17.7279  -43.2733 C.2       7 UNK         0.5000 
     36 O           4.6314  -18.4908  -44.0392 O.2       7 UNK        -0.5000 
     37 CA          4.6393  -17.4398  -41.8812 C.3       7 UNK         0.1400 
     38 CB          5.6276  -16.2660  -41.9519 C.3       7 UNK        -0.1800 
     39 N           3.6193  -17.1459  -40.8707 N.am      7 UNK        -0.5000 
     40 C           2.7636  -18.0497  -40.3730 C.2       6 UNK         0.5000 
     41 O           2.7578  -19.2366  -40.7000 O.2       6 UNK        -0.5000 
     42 CA          1.7060  -17.5238  -39.3808 C.3       6 UNK         0.1400 
     43 CB          2.2803  -17.4723  -37.9573 C.3       6 UNK        -0.1800 
     44 N           1.1625  -16.2058  -39.7355 N.am      6 UNK        -0.5000 
     45 C           0.5174  -15.9373  -40.8778 C.2       5 UNK         0.5000 
     46 O           0.3506  -16.7705  -41.7709 O.2       5 UNK        -0.5000 
     47 CA          0.0092  -14.5037  -41.0849 C.3       5 UNK         0.1400 
     48 CB          1.1798  -13.5252  -41.2902 C.3       5 UNK        -0.1800 
     49 N          -0.8451  -14.4981  -42.2678 N.am      5 UNK        -0.5000 
     50 C          -1.8214  -13.6317  -42.5488 C.2       4 UNK         0.5000 
     51 O          -2.1169  -12.6829  -41.8210 O.2       4 UNK        -0.5000 
     52 CA         -2.5950  -13.8428  -43.8692 C.3       4 UNK         0.1400 
     53 CB         -2.2029  -12.7685  -44.8961 C.3       4 UNK        -0.1800 
     54 N          -2.4126  -15.1594  -44.4914 N.am      4 UNK        -0.5000 
     55 C          -2.9203  -16.3122  -44.0331 C.2       3 UNK         0.5000 
     56 O          -3.5364  -16.4076  -42.9707 O.2       3 UNK        -0.5000 
     57 CA         -2.7068  -17.5517  -44.9312 C.3       3 UNK         0.1400 
     58 CB         -3.5753  -18.7571  -44.5143 C.3       3 UNK        -0.1800 
     59 N          -2.8711  -17.2643  -46.3626 N.am      3 UNK        -0.5000 
     60 C          -3.9770  -16.8106  -46.9791 C.2       2 UNK         0.5000 
     61 O          -5.0300  -16.5559  -46.3942 O.2       2 UNK        -0.5000 
     62 CA         -3.9085  -16.5845  -48.5061 C.3       2 UNK         0.1400 
     63 CB         -3.7556  -15.0872  -48.8165 C.3       2 UNK        -0.1800 
     64 N          -2.8202  -17.3079  -49.1650 N.am      2 UNK        -0.5000 
     65 C          -2.7600  -18.6376  -49.3239 C.2       1 UNK         0.5000 
     66 O          -3.7109  -19.3821  -49.1024 O.2       1 UNK        -0.5000 
     67 C           1.7902  -22.6476  -47.5481 C.2       11 UNK         0.5000 
     68 O           1.6773  -23.4115  -48.5077 O.2       11 UNK        -0.5000 
     69 N           0.7442  -22.0520  -46.9518 N.am      12 UNK        -0.5000 
     70 CA         -0.6580  -22.3398  -47.2712 C.3       12 UNK         0.1400 
     71 CB         -1.5790  -21.3250  -46.5748 C.3       12 UNK        -0.1800 
     72 C          -1.0615  -23.7754  -46.8868 C.2       12 UNK         0.5000 
     73 O          -1.7473  -24.4434  -47.6599 O.2       12 UNK        -0.5000 
     74 N          -0.6132  -24.2142  -45.7020 N.am      13 UNK        -0.5000 
     75 CA         -0.7805  -25.5261  -45.0707 C.3       13 UNK         0.1400 
     76 CB         -0.1981  -26.6561  -45.9409 C.3       13 UNK        -0.1800 
     77 C          -2.2195  -25.8407  -44.6187 C.2       13 UNK         0.5000 
     78 O          -2.4132  -26.2045  -43.4578 O.2       13 UNK        -0.5000 
     79 N          -3.1997  -25.6989  -45.5167 N.am      14 UNK        -0.5000 
     80 CA         -4.6142  -25.9728  -45.2780 C.3       14 UNK         0.1400 
     81 CB         -4.8629  -27.4938  -45.2624 C.3       14 UNK        -0.1800 
     82 C          -5.4677  -25.3012  -46.3627 C.2       14 UNK         0.5000 
     83 O          -4.9618  -25.0037  -47.4473 O.2       14 UNK        -0.5000 
     84 N          -6.7553  -25.0970  -46.0508 N.am      15 UNK        -0.5000 
     85 CA         -7.8509  -24.5825  -46.8896 C.3       15 UNK         0.1400 
     86 CB         -8.1019  -25.5040  -48.0992 C.3       15 UNK        -0.1800 
     87 C          -7.7214  -23.1142  -47.3447 C.2       15 UNK         0.5000 
     88 O          -8.7249  -22.4009  -47.3475 O.2       15 UNK        -0.5000 
     89 N          -6.5083  -22.6975  -47.7305 N.am      16 UNK        -0.5000 
     90 CA         -6.1287  -21.3780  -48.2509 C.3       16 UNK         0.1400 
     91 CB         -6.3061  -20.2881  -47.1721 C.3       16 UNK        -0.1800 
     92 C          -6.8124  -21.0208  -49.5921 C.2       16 UNK         0.5000 
     93 O          -6.9906  -19.8440  -49.9089 O.2       16 UNK        -0.5000 
     94 N          -7.1866  -22.0494  -50.3667 N.am      17 UNK        -0.5000 
     95 CA         -7.8904  -21.9224  -51.6454 C.3       17 UNK         0.1400 
     96 CB         -8.5811  -23.2581  -51.9606 C.3       17 UNK        -0.1800 
     97 C          -6.9706  -21.5044  -52.8091 C.2       17 UNK         0.5000 
     98 O          -7.4529  -20.9524  -53.7979 O.2       17 UNK        -0.5000 
     99 N          -5.6643  -21.7667  -52.6725 N.am      18 UNK        -0.5000 
    100 CA        -4.6317  -21.5012  -53.6782 C.3       18 UNK         0.1400 
    101 CB        -3.4937  -22.5179  -53.4856 C.3       18 UNK        -0.1800 
    102 C         -4.1043  -20.0502  -53.6655 C.2       18 UNK         0.5000 
    103 O         -3.1165  -19.7646  -54.3415 O.2       18 UNK        -0.5000 
    104 N         -4.7520  -19.1566  -52.9024 N.am      19 UNK        -0.5000 
    105 CA        -4.3925  -17.7480  -52.6924 C.3       19 UNK         0.1400 
    106 CB        -5.4788  -17.0980  -51.8256 C.3       19 UNK        -0.1800 
    107 C         -4.1864  -16.9212  -53.9771 C.2       19 UNK         0.5000 
    108 O         -3.3827  -15.9881  -53.9764 O.2       19 UNK        -0.5000 
    109 N         -4.8820  -17.3035  -55.0575 N.am      20 UNK        -0.5000 
    110 CA        -4.7646  -16.7259  -56.3980 C.3       20 UNK         0.1400 
    111 CB        -5.7982  -17.3926  -57.3179 C.3       20 UNK        -0.1800 
    112 C         -3.3522  -16.8321  -57.0100 C.2       20 UNK         0.5000 
    113 O         -3.0005  -16.0025  -57.8504 O.2       20 UNK        -0.5000 
    114 N         -2.5499  -17.8092  -56.5574 N.am      21 UNK        -0.5000 
    115 CA        -1.1524  -17.9981  -56.9567 C.3       21 UNK         0.1400 
    116 CB        -0.6319  -19.3192  -56.3704 C.3       21 UNK        -0.1800 
    117 C         -0.2269  -16.8288  -56.5608 C.2       21 UNK         0.5000 
    118 O          0.8205  -16.6578  -57.1859 O.2       21 UNK        -0.5000 
    119 N         -0.6299  -16.0363  -55.5581 N.am      22 UNK        -0.5000 
    120 CA         0.0504  -14.7972  -55.1503 C.3       22 UNK         0.1400 
    121 C         -0.3192  -13.5586  -56.0210 C.2       22 UNK         0.5000 
    122 N         -1.2283  -13.6554  -56.9856 N.am      22 UNK        -0.7600 
    123 O          0.2417  -12.4838  -55.8255 O.2       22 UNK        -0.5000 
    124 C124       -0.1325  -14.4911  -53.6380 C.3       23 UNK        -0.0398 
    125 S125        0.1446  -15.9043  -52.5128 S.3       23 UNK        -0.2404 
    126 C126        1.8440  -16.4332  -52.9196 C.3       23 UNK        -0.0205 
    127 H127        2.2549  -17.1395  -48.4745 H         1 UNK         0.0600 
    128 H128        1.1250  -15.8113  -48.2036 H         1 UNK         0.0600 
    129 H129        1.4211  -16.3716  -49.8364 H         1 UNK         0.0600 
    130 H130        0.1924  -18.1702  -50.6290 H         1 UNK         0.3000 
    131 H131       -1.1945  -19.9898  -48.9818 H         1 UNK         0.0600 
    132 H132       -2.5700  -20.3631  -51.2618 H         1 UNK         0.0800 
    133 H133       -1.2991  -19.4087  -51.9559 H         1 UNK         0.0800 
    134 H134        1.2876  -22.1910  -52.5194 H         1 UNK         0.0800 
    135 H135        0.1816  -21.1240  -53.3533 H         1 UNK         0.0800 
    136 H136        0.6352  -18.7824  -53.4248 H         1 UNK         0.1150 
    137 H137        3.7037  -17.0572  -50.9916 H         1 UNK         0.1150 
    138 H138        2.6909  -21.2060  -50.5562 H         1 UNK         0.1150 
    139 H139        5.1272  -20.0049  -49.8514 H         1 UNK         0.0800 
    140 H140        4.8914  -18.3367  -49.4151 H         1 UNK         0.0800 
    141 H141        5.1171  -21.5458  -47.4474 H         1 UNK         0.0800 
    142 H142        4.1571  -21.9294  -48.8393 H         1 UNK         0.0800 
    143 H143        3.6729  -23.3940  -47.0056 H         1 UNK         0.0600 
    144 H144        2.9466  -21.0325  -45.3621 H         1 UNK         0.3000 
    145 H145        2.7039  -23.1644  -42.4627 H         1 UNK         0.0600 
    146 H146        4.2985  -21.5246  -41.4965 H         1 UNK         0.0600 
    147 H147        5.1368  -22.6452  -42.5590 H         1 UNK         0.0600 
    148 H148        4.7858  -21.0134  -43.1119 H         1 UNK         0.0600 
    149 H149        2.3905  -20.3762  -42.6280 H         1 UNK         0.3000 
    150 H150       -0.8900  -20.1858  -43.9268 H         1 UNK         0.0600 
    151 H151       -1.3479  -20.7962  -41.5631 H         1 UNK         0.0600 
    152 H152       -1.3683  -19.0512  -41.7718 H         1 UNK         0.0600 
    153 H153        0.0258  -19.8351  -41.0303 H         1 UNK         0.0600 
    154 H154        0.6550  -18.1471  -42.8295 H         1 UNK         0.3000 
    155 H155        2.7882  -17.4252  -45.6346 H         1 UNK         0.0600 
    156 H156        1.7474  -15.2140  -45.0328 H         1 UNK         0.0600 
    157 H157        0.4313  -16.0568  -44.2242 H         1 UNK         0.0600 
    158 H158        0.6486  -16.2219  -45.9470 H         1 UNK         0.0600 
    159 H159        2.4504  -16.5557  -42.8546 H         1 UNK         0.3000 
    160 H160        5.1872  -18.3306  -41.5661 H         1 UNK         0.0600 
    161 H161        5.1328  -15.3394  -42.2456 H         1 UNK         0.0600 
    162 H162        6.4155  -16.4627  -42.6803 H         1 UNK         0.0600 
    163 H163        6.1112  -16.0989  -40.9893 H         1 UNK         0.0600 
    164 H164        3.5564  -16.1920  -40.5468 H         1 UNK         0.3000 
    165 H165        0.8756  -18.2325  -39.3835 H         1 UNK         0.0600 
    166 H166        1.5133  -17.1999  -37.2321 H         1 UNK         0.0600 
    167 H167        2.6752  -18.4449  -37.6601 H         1 UNK         0.0600 
    168 H168        3.0926  -16.7491  -37.8755 H         1 UNK         0.0600 
    169 H169        1.2723  -15.4735  -39.0487 H         1 UNK         0.3000 
    170 H170       -0.5740  -14.2148  -40.2083 H         1 UNK         0.0600 
    171 H171        1.8351  -13.5013  -40.4189 H         1 UNK         0.0600 
    172 H172        1.7872  -13.8017  -42.1532 H         1 UNK         0.0600 
    173 H173        0.8207  -12.5082  -41.4488 H         1 UNK         0.0600 
    174 H174       -0.7170  -15.3021  -42.8670 H         1 UNK         0.3000 
    175 H175       -3.6562  -13.7234  -43.6411 H         1 UNK         0.0600 
    176 H176       -1.1520  -12.8473  -45.1778 H         1 UNK         0.0600 
    177 H177       -2.8021  -12.8513  -45.8032 H         1 UNK         0.0600 
    178 H178       -2.3609  -11.7661  -44.4957 H         1 UNK         0.0600 
    179 H179       -1.9306  -15.1717  -45.3780 H         1 UNK         0.3000 
    180 H180       -1.6638  -17.8410  -44.8039 H         1 UNK         0.0600 
    181 H181       -3.4045  -19.6120  -45.1671 H         1 UNK         0.0600 
    182 H182       -4.6392  -18.5210  -44.5490 H         1 UNK         0.0600 
    183 H183       -3.3438  -19.0733  -43.4968 H         1 UNK         0.0600 
    184 H184       -2.0430  -17.4454  -46.9272 H         1 UNK         0.3000 
    185 H185       -4.8567  -16.9294  -48.9192 H         1 UNK         0.0600 
    186 H186       -4.5761  -14.5126  -48.3847 H         1 UNK         0.0600 
    187 H187       -2.8256  -14.6859  -48.4119 H         1 UNK         0.0600 
    188 H188       -3.7608  -14.9023  -49.8908 H         1 UNK         0.0600 
    189 H189       -1.9880  -16.7756  -49.3717 H         1 UNK         0.3000 
    190 H190        0.9241  -21.3568  -46.2353 H         1 UNK         0.3000 
    191 H191       -0.7813  -22.2346  -48.3480 H         1 UNK         0.0600 
    192 H192       -2.5725  -21.3372  -47.0247 H         1 UNK         0.0600 
    193 H193       -1.1969  -20.3071  -46.6520 H         1 UNK         0.0600 
    194 H194       -1.7043  -21.5549  -45.5175 H         1 UNK         0.0600 
    195 H195       -0.1340  -23.5372  -45.1125 H         1 UNK         0.3000 
    196 H196       -0.1756  -25.4789  -44.1636 H         1 UNK         0.0600 
    197 H197       -0.7542  -26.7880  -46.8693 H         1 UNK         0.0600 
    198 H198        0.8423  -26.4567  -46.1984 H         1 UNK         0.0600 
    199 H199       -0.2257  -27.6077  -45.4089 H         1 UNK         0.0600 
    200 H200       -2.9718  -25.3532  -46.4477 H         1 UNK         0.3000 
    201 H201       -4.8961  -25.5470  -44.3128 H         1 UNK         0.0600 
    202 H202       -4.5586  -27.9570  -46.2018 H         1 UNK         0.0600 
    203 H203       -5.9191  -27.7202  -45.1120 H         1 UNK         0.0600 
    204 H204       -4.3142  -27.9815  -44.4568 H         1 UNK         0.0600 
    205 H205       -7.0440  -25.3527  -45.1165 H         1 UNK         0.3000 
    206 H206       -8.7413  -24.6282  -46.2604 H         1 UNK         0.0600 
    207 H207       -8.2922  -26.5287  -47.7803 H         1 UNK         0.0600 
    208 H208       -8.9732  -25.1738  -48.6665 H         1 UNK         0.0600 
    209 H209       -7.2549  -25.5189  -48.7856 H         1 UNK         0.0600 
    210 H210       -5.7677  -23.3966  -47.7074 H         1 UNK         0.3000 
    211 H211       -5.0640  -21.4548  -48.4701 H         1 UNK         0.0600 
    212 H212       -5.9032  -19.3325  -47.5088 H         1 UNK         0.0600 
    213 H213       -5.7794  -20.5522  -46.2553 H         1 UNK         0.0600 
    214 H214       -7.3553  -20.1270  -46.9247 H         1 UNK         0.0600 
    215 H215       -7.0122  -22.9858  -50.0332 H         1 UNK         0.3000 
    216 H216       -8.6620  -21.1562  -51.5439 H         1 UNK         0.0600 
    217 H217       -7.8604  -24.0701  -52.0656 H         1 UNK         0.0600 
    218 H218       -9.1449  -23.1967  -52.8924 H         1 UNK         0.0600 
    219 H219       -9.2847  -23.5331  -51.1744 H         1 UNK         0.0600 
    220 H220       -5.3570  -22.2048  -51.8168 H         1 UNK         0.3000 
    221 H221       -5.0562  -21.6655  -54.6707 H         1 UNK         0.0600 
    222 H222       -2.6885  -22.3607  -54.2045 H         1 UNK         0.0600 
    223 H223       -3.8530  -23.5375  -53.6259 H         1 UNK         0.0600 
    224 H224       -3.0617  -22.4539  -52.4877 H         1 UNK         0.0600 
    225 H225       -5.5528  -19.4869  -52.3829 H         1 UNK         0.3000 
    226 H226       -3.4503  -17.7311  -52.1425 H         1 UNK         0.0600 
    227 H227       -5.6363  -17.6608  -50.9068 H         1 UNK         0.0600 
    228 H228       -5.2035  -16.0801  -51.5478 H         1 UNK         0.0600 
    229 H229       -6.4345  -17.0502  -52.3491 H         1 UNK         0.0600 
    230 H230       -5.5109  -18.0869  -54.9590 H         1 UNK         0.3000 
    231 H231       -5.0059  -15.6638  -56.3213 H         1 UNK         0.0600 
    232 H232       -5.6228  -18.4654  -57.4078 H         1 UNK         0.0600 
    233 H233       -5.7599  -16.9681  -58.3221 H         1 UNK         0.0600 
    234 H234       -6.8120  -17.2473  -56.9442 H         1 UNK         0.0600 
    235 H235       -2.8970  -18.4393  -55.8404 H         1 UNK         0.3000 
    236 H236       -1.1275  -18.0765  -58.0454 H         1 UNK         0.0600 
    237 H237       -1.2345  -20.1642  -56.7039 H         1 UNK         0.0600 
    238 H238        0.3963  -19.5093  -56.6804 H         1 UNK         0.0600 
    239 H239       -0.6495  -19.3073  -55.2810 H         1 UNK         0.0600 
    240 H240       -1.5085  -16.2302  -55.0927 H         1 UNK         0.3000 
    241 H241        1.1193  -14.9318  -55.3185 H         1 UNK         0.0600 
    242 H242       -1.4455  -12.8416  -57.5391 H         1 UNK         0.3800 
    243 H243       -1.7030  -14.5292  -57.1795 H         1 UNK         0.3800 
    244 H244       -1.1472  -14.1337  -53.4535 H         1 UNK         0.0800 
    245 H245        0.5327  -13.6816  -53.3328 H         1 UNK         0.0800 
    246 H246        2.5520  -15.6716  -52.5898 H         1 UNK         0.0800 
    247 H247        1.9651  -16.5371  -53.9974 H         1 UNK         0.0800 
@<TRIPOS>BOND
     1    1    2 1    
     2    1  127 1    
     3    1  128 1    
     4    1  129 1    
     5    2    3 2    
     6    2    4 am   BACKBONE|DICT|INTERRES
     7    4    5 1    
     8    4  130 1    
     9    5    6 1    
    10    5   65 1    
    11    5  131 1    
    12    6    7 1    
    13    6  132 1    
    14    6  133 1    
    15    7    8 1    
    16    8    9 1    
    17    8  134 1    
    18    8  135 1    
    19    9   10 ar   
    20    9   14 ar   
    21   10   11 ar   
    22   10  136 1    
    23   11   12 ar   
    24   11  126 1    
    25   12   13 ar   
    26   12  137 1    
    27   13   14 ar   
    28   13   15 1    
    29   14  138 1    
    30   15   16 1    
    31   15  139 1    
    32   15  140 1    
    33   16   17 1    
    34   17   18 1    
    35   17  141 1    
    36   17  142 1    
    37   18   19 1    
    38   18   67 1    
    39   18  143 1    
    40   19   20 am   BACKBONE|DICT|INTERRES
    41   19  144 1    
    42   20   21 2    
    43   20   22 1    
    44   22   23 1    
    45   22   24 1    
    46   22  145 1    
    47   23  146 1    
    48   23  147 1    
    49   23  148 1    
    50   24   25 am   BACKBONE|DICT|INTERRES
    51   24  149 1    
    52   25   26 2    
    53   25   27 1    
    54   27   28 1    
    55   27   29 1    
    56   27  150 1    
    57   28  151 1    
    58   28  152 1    
    59   28  153 1    
    60   29   30 am   BACKBONE|DICT|INTERRES
    61   29  154 1    
    62   30   31 2    
    63   30   32 1    
    64   32   33 1    
    65   32   34 1    
    66   32  155 1    
    67   33  156 1    
    68   33  157 1    
    69   33  158 1    
    70   34   35 am   BACKBONE|DICT|INTERRES
    71   34  159 1    
    72   35   36 2    
    73   35   37 1    
    74   37   38 1    
    75   37   39 1    
    76   37  160 1    
    77   38  161 1    
    78   38  162 1    
    79   38  163 1    
    80   39   40 am   BACKBONE|DICT|INTERRES
    81   39  164 1    
    82   40   41 2    
    83   40   42 1    
    84   42   43 1    
    85   42   44 1    
    86   42  165 1    
    87   43  166 1    
    88   43  167 1    
    89   43  168 1    
    90   44   45 am   BACKBONE|DICT|INTERRES
    91   44  169 1    
    92   45   46 2    
    93   45   47 1    
    94   47   48 1    
    95   47   49 1    
    96   47  170 1    
    97   48  171 1    
    98   48  172 1    
    99   48  173 1    
   100   49   50 am   BACKBONE|DICT|INTERRES
   101   49  174 1    
   102   50   51 2    
   103   50   52 1    
   104   52   53 1    
   105   52   54 1    
   106   52  175 1    
   107   53  176 1    
   108   53  177 1    
   109   53  178 1    
   110   54   55 am   BACKBONE|DICT|INTERRES
   111   54  179 1    
   112   55   56 2    
   113   55   57 1    
   114   57   58 1    
   115   57   59 1    
   116   57  180 1    
   117   58  181 1    
   118   58  182 1    
   119   58  183 1    
   120   59   60 am   BACKBONE|DICT|INTERRES
   121   59  184 1    
   122   60   61 2    
   123   60   62 1    
   124   62   63 1    
   125   62   64 1    
   126   62  185 1    
   127   63  186 1    
   128   63  187 1    
   129   63  188 1    
   130   64   65 am   BACKBONE|DICT|INTERRES
   131   64  189 1    
   132   65   66 2    
   133   67   68 2    
   134   67   69 am   BACKBONE|DICT|INTERRES
   135   69   70 1    
   136   69  190 1    
   137   70   71 1    
   138   70   72 1    
   139   70  191 1    
   140   71  192 1    
   141   71  193 1    
   142   71  194 1    
   143   72   73 2    
   144   72   74 am   BACKBONE|DICT|INTERRES
   145   74   75 1    
   146   74  195 1    
   147   75   76 1    
   148   75   77 1    
   149   75  196 1    
   150   76  197 1    
   151   76  198 1    
   152   76  199 1    
   153   77   78 2    
   154   77   79 am   BACKBONE|DICT|INTERRES
   155   79   80 1    
   156   79  200 1    
   157   80   81 1    
   158   80   82 1    
   159   80  201 1    
   160   81  202 1    
   161   81  203 1    
   162   81  204 1    
   163   82   83 2    
   164   82   84 am   BACKBONE|DICT|INTERRES
   165   84   85 1    
   166   84  205 1    
   167   85   86 1    
   168   85   87 1    
   169   85  206 1    
   170   86  207 1    
   171   86  208 1    
   172   86  209 1    
   173   87   88 2    
   174   87   89 am   BACKBONE|DICT|INTERRES
   175   89   90 1    
   176   89  210 1    
   177   90   91 1    
   178   90   92 1    
   179   90  211 1    
   180   91  212 1    
   181   91  213 1    
   182   91  214 1    
   183   92   93 2    
   184   92   94 am   BACKBONE|DICT|INTERRES
   185   94   95 1    
   186   94  215 1    
   187   95   96 1    
   188   95   97 1    
   189   95  216 1    
   190   96  217 1    
   191   96  218 1    
   192   96  219 1    
   193   97   98 2    
   194   97   99 am   BACKBONE|DICT|INTERRES
   195   99  100 1    
   196   99  220 1    
   197  100  101 1    
   198  100  102 1    
   199  100  221 1    
   200  101  222 1    
   201  101  223 1    
   202  101  224 1    
   203  102  103 2    
   204  102  104 am   BACKBONE|DICT|INTERRES
   205  104  105 1    
   206  104  225 1    
   207  105  106 1    
   208  105  107 1    
   209  105  226 1    
   210  106  227 1    
   211  106  228 1    
   212  106  229 1    
   213  107  108 2    
   214  107  109 am   BACKBONE|DICT|INTERRES
   215  109  110 1    
   216  109  230 1    
   217  110  111 1    
   218  110  112 1    
   219  110  231 1    
   220  111  232 1    
   221  111  233 1    
   222  111  234 1    
   223  112  113 2    
   224  112  114 am   BACKBONE|DICT|INTERRES
   225  114  115 1    
   226  114  235 1    
   227  115  116 1    
   228  115  117 1    
   229  115  236 1    
   230  116  237 1    
   231  116  238 1    
   232  116  239 1    
   233  117  118 2    
   234  117  119 am   BACKBONE|DICT|INTERRES
   235  119  120 1    
   236  119  240 1    
   237  120  121 1    
   238  120  124 1    
   239  120  241 1    
   240  121  122 am   BACKBONE|DICT|INTERRES
   241  121  123 2    
   242  122  242 1    
   243  122  243 1    
   244  124  125 1    
   245  124  244 1    
   246  124  245 1    
   247  125  126 1    
   248  126  246 1    
   249  126  247 1    
@<TRIPOS>SUBSTRUCTURE
     1 UNK         1 GROUP             0       ****    0 ROOT    
