@<TRIPOS>MOLECULE
3R540
247   249    1
SMALL
USER_CHARGES


@<TRIPOS>ATOM
      1 CA          5.8861  -14.8820  -50.7013 C.3       0 UNK        -0.1800 
      2 C           5.3743  -14.7516  -49.2738 C.2       0 UNK         0.5000 
      3 O           6.1728  -14.7062  -48.3381 O.2       0 UNK        -0.5000 
      4 N           4.0472  -14.6899  -49.1049 N.am      1 UNK        -0.5000 
      5 CA          3.3722  -14.5820  -47.8043 C.3       1 UNK         0.1400 
      6 C6          1.8740  -14.9593  -47.8975 C.3       23 UNK        -0.0398 
      7 S7          1.6374  -16.7153  -48.3111 S.3       23 UNK        -0.2404 
      8 C8          0.6485  -16.6425  -49.8397 C.3       23 UNK        -0.0205 
      9 C9         -0.1476  -17.9272  -49.9978 C.ar      23 UNK        -0.0193 
     10 C10        -1.5305  -17.9337  -49.7938 C.ar      23 UNK        -0.1150 
     11 C11        -2.2426  -19.1354  -49.8176 C.ar      23 UNK        -0.0193 
     12 C12        -1.5602  -20.3335  -50.0370 C.ar      23 UNK        -0.1150 
     13 C13        -0.1846  -20.3387  -50.2842 C.ar      23 UNK        -0.0193 
     14 C14         0.5107  -19.1254  -50.2859 C.ar      23 UNK        -0.1150 
     15 C15         0.5454  -21.6602  -50.5059 C.3       23 UNK        -0.0205 
     16 S16         2.0769  -21.8278  -49.5206 S.3       23 UNK        -0.2404 
     17 C17         1.4963  -21.4562  -47.8270 C.3       23 UNK        -0.0398 
     18 CA          1.2729  -22.7025  -46.9426 C.3       11 UNK         0.1400 
     19 N           1.0547  -22.3208  -45.5461 N.am      11 UNK        -0.5000 
     20 C           0.9504  -23.1720  -44.5176 C.2       10 UNK         0.5000 
     21 O           1.0475  -24.3932  -44.6280 O.2       10 UNK        -0.5000 
     22 CA          0.6296  -22.5600  -43.1437 C.3       10 UNK         0.1400 
     23 CB          1.8832  -21.9314  -42.5176 C.3       10 UNK        -0.1800 
     24 N          -0.4442  -21.5684  -43.2153 N.am      10 UNK        -0.5000 
     25 C          -1.7081  -21.8509  -43.5652 C.2       9 UNK         0.5000 
     26 O          -2.1109  -22.9867  -43.8142 O.2       9 UNK        -0.5000 
     27 CA         -2.6803  -20.6654  -43.6921 C.3       9 UNK         0.1400 
     28 CB         -3.1983  -20.2377  -42.3109 C.3       9 UNK        -0.1800 
     29 N          -2.0903  -19.5144  -44.3750 N.am      9 UNK        -0.5000 
     30 C          -1.6639  -19.5161  -45.6461 C.2       8 UNK         0.5000 
     31 O          -1.7408  -20.4911  -46.3938 O.2       8 UNK        -0.5000 
     32 CA         -0.9883  -18.2273  -46.1467 C.3       8 UNK         0.1400 
     33 CB         -2.0230  -17.1344  -46.4512 C.3       8 UNK        -0.1800 
     34 N          -0.0024  -17.7062  -45.2015 N.am      8 UNK        -0.5000 
     35 C           1.1014  -18.3610  -44.8155 C.2       7 UNK         0.5000 
     36 O           1.4277  -19.4722  -45.2316 O.2       7 UNK        -0.5000 
     37 CA          1.9524  -17.6799  -43.7327 C.3       7 UNK         0.1400 
     38 CB          2.8396  -16.5828  -44.3412 C.3       7 UNK        -0.1800 
     39 N           1.1211  -17.1189  -42.6670 N.am      7 UNK        -0.5000 
     40 C           0.4004  -17.8558  -41.8080 C.2       6 UNK         0.5000 
     41 O           0.3899  -19.0864  -41.8015 O.2       6 UNK        -0.5000 
     42 CA         -0.4931  -17.0873  -40.8183 C.3       6 UNK         0.1400 
     43 CB          0.3211  -16.6163  -39.6041 C.3       6 UNK        -0.1800 
     44 N          -1.1560  -15.9380  -41.4351 N.am      6 UNK        -0.5000 
     45 C          -2.0727  -16.0232  -42.4099 C.2       5 UNK         0.5000 
     46 O          -2.4804  -17.0869  -42.8734 O.2       5 UNK        -0.5000 
     47 CA         -2.5907  -14.6961  -42.9924 C.3       5 UNK         0.1400 
     48 CB         -3.8185  -14.2067  -42.2105 C.3       5 UNK        -0.1800 
     49 N          -1.5746  -13.6411  -43.0118 N.am      5 UNK        -0.5000 
     50 C          -0.4539  -13.6809  -43.7431 C.2       4 UNK         0.5000 
     51 O          -0.1450  -14.6253  -44.4752 O.2       4 UNK        -0.5000 
     52 CA          0.4891  -12.4740  -43.6116 C.3       4 UNK         0.1400 
     53 CB          1.8408  -12.8961  -43.0152 C.3       4 UNK        -0.1800 
     54 N           0.6914  -11.8435  -44.9147 N.am      4 UNK        -0.5000 
     55 C          -0.2039  -11.0277  -45.4933 C.2       3 UNK         0.5000 
     56 O          -1.2546  -10.6949  -44.9415 O.2       3 UNK        -0.5000 
     57 CA          0.0826  -10.5117  -46.9228 C.3       3 UNK         0.1400 
     58 CB         -0.3317   -9.0367  -47.1098 C.3       3 UNK        -0.1800 
     59 N           1.4519  -10.7391  -47.3975 N.am      3 UNK        -0.5000 
     60 C           2.5920  -10.1989  -46.9394 C.2       2 UNK         0.5000 
     61 O           2.6446   -9.3532  -46.0453 O.2       2 UNK        -0.5000 
     62 CA          3.8910  -10.7354  -47.5867 C.3       2 UNK         0.1400 
     63 CB          5.1384  -10.4974  -46.7103 C.3       2 UNK        -0.1800 
     64 N           3.7971  -12.1523  -47.9747 N.am      2 UNK        -0.5000 
     65 C           3.5110  -13.1857  -47.1648 C.2       1 UNK         0.5000 
     66 O           3.3041  -13.0640  -45.9584 O.2       1 UNK        -0.5000 
     67 C           0.1372  -23.6000  -47.4765 C.2       11 UNK         0.5000 
     68 O           0.4206  -24.6540  -48.0425 O.2       11 UNK        -0.5000 
     69 N          -1.1198  -23.1974  -47.2421 N.am      12 UNK        -0.5000 
     70 CA         -2.3183  -23.9420  -47.6364 C.3       12 UNK         0.1400 
     71 CB         -3.5469  -23.0399  -47.4465 C.3       12 UNK        -0.1800 
     72 C          -2.5090  -25.2809  -46.8918 C.2       12 UNK         0.5000 
     73 O          -3.2548  -26.1328  -47.3762 O.2       12 UNK        -0.5000 
     74 N          -1.8579  -25.4451  -45.7328 N.am      13 UNK        -0.5000 
     75 CA         -1.8244  -26.6950  -44.9778 C.3       13 UNK         0.1400 
     76 CB         -1.6947  -26.3854  -43.4779 C.3       13 UNK        -0.1800 
     77 C          -0.6779  -27.6056  -45.4510 C.2       13 UNK         0.5000 
     78 O          -0.8917  -28.8049  -45.6331 O.2       13 UNK        -0.5000 
     79 N           0.5197  -27.0291  -45.6222 N.am      14 UNK        -0.5000 
     80 CA          1.7458  -27.7436  -45.9805 C.3       14 UNK         0.1400 
     81 CB          2.9544  -26.8500  -45.6610 C.3       14 UNK        -0.1800 
     82 C           1.7980  -28.1995  -47.4500 C.2       14 UNK         0.5000 
     83 O           2.4030  -29.2336  -47.7380 O.2       14 UNK        -0.5000 
     84 N           1.1897  -27.4218  -48.3494 N.am      15 UNK        -0.5000 
     85 CA          1.1771  -27.6367  -49.7926 C.3       15 UNK         0.1400 
     86 CB          2.3083  -26.8004  -50.4225 C.3       15 UNK        -0.1800 
     87 C          -0.2019  -27.2642  -50.3629 C.2       15 UNK         0.5000 
     88 O          -1.1293  -26.9687  -49.6066 O.2       15 UNK        -0.5000 
     89 N          -0.3240  -27.2906  -51.6960 N.am      16 UNK        -0.5000 
     90 CA         -1.4970  -26.7989  -52.4185 C.3       16 UNK         0.1400 
     91 CB         -1.3937  -27.2167  -53.8933 C.3       16 UNK        -0.1800 
     92 C          -1.6154  -25.2682  -52.2936 C.2       16 UNK         0.5000 
     93 O          -0.6013  -24.5691  -52.3700 O.2       16 UNK        -0.5000 
     94 N          -2.8457  -24.7771  -52.1077 N.am      17 UNK        -0.5000 
     95 CA         -3.1407  -23.3515  -51.9869 C.3       17 UNK         0.1400 
     96 CB         -4.5319  -23.1732  -51.3588 C.3       17 UNK        -0.1800 
     97 C          -3.0487  -22.6198  -53.3384 C.2       17 UNK         0.5000 
     98 O          -3.2345  -23.2354  -54.3909 O.2       17 UNK        -0.5000 
     99 N          -2.7992  -21.3058  -53.2778 N.am      18 UNK        -0.5000 
    100 CA        -2.6994  -20.4224  -54.4430 C.3       18 UNK         0.1400 
    101 CB        -1.9546  -19.1438  -54.0248 C.3       18 UNK        -0.1800 
    102 C         -4.0624  -20.0793  -55.0840 C.2       18 UNK         0.5000 
    103 O         -4.0814  -19.5654  -56.2036 O.2       18 UNK        -0.5000 
    104 N         -5.1616  -20.3682  -54.3688 N.am      19 UNK        -0.5000 
    105 CA        -6.5573  -20.0482  -54.6902 C.3       19 UNK         0.1400 
    106 CB        -6.9961  -20.7252  -56.0076 C.3       19 UNK        -0.1800 
    107 C         -6.8284  -18.5277  -54.6624 C.2       19 UNK         0.5000 
    108 O         -6.0220  -17.7730  -54.1141 O.2       19 UNK        -0.5000 
    109 N         -7.9797  -18.1089  -55.2106 N.am      20 UNK        -0.5000 
    110 CA        -8.4708  -16.7280  -55.3057 C.3       20 UNK         0.1400 
    111 CB        -7.6449  -15.9337  -56.3419 C.3       20 UNK        -0.1800 
    112 C         -8.5506  -16.0423  -53.9257 C.2       20 UNK         0.5000 
    113 O         -9.5200  -16.2608  -53.1966 O.2       20 UNK        -0.5000 
    114 N         -7.5098  -15.2748  -53.5727 N.am      21 UNK        -0.5000 
    115 CA        -7.3170  -14.6102  -52.2816 C.3       21 UNK         0.1400 
    116 CB        -6.0216  -13.7862  -52.3384 C.3       21 UNK        -0.1800 
    117 C         -7.2945  -15.5657  -51.0700 C.2       21 UNK         0.5000 
    118 O         -7.5999  -15.1269  -49.9601 O.2       21 UNK        -0.5000 
    119 N         -6.9690  -16.8467  -51.2966 N.am      22 UNK        -0.5000 
    120 CA        -7.0921  -17.9221  -50.2966 C.3       22 UNK         0.1400 
    121 C         -8.5602  -18.2717  -49.9024 C.2       22 UNK         0.5000 
    122 N         -9.5778  -17.8503  -50.6462 N.am      22 UNK        -0.7600 
    123 O         -8.7794  -18.9414  -48.8971 O.2       22 UNK        -0.5000 
    124 C124       -6.3414  -19.2149  -50.7092 C.3       23 UNK        -0.0398 
    125 S125       -4.6048  -18.9468  -51.1895 S.3       23 UNK        -0.2404 
    126 C126       -3.7467  -19.1465  -49.6035 C.3       23 UNK        -0.0205 
    127 H127        5.0704  -14.9108  -51.4241 H         1 UNK         0.0600 
    128 H128        6.4675  -15.7977  -50.8089 H         1 UNK         0.0600 
    129 H129        6.5295  -14.0374  -50.9480 H         1 UNK         0.0600 
    130 H130        3.4425  -14.7548  -49.9109 H         1 UNK         0.3000 
    131 H131        3.8528  -15.2827  -47.1177 H         1 UNK         0.0600 
    132 H132        1.3695  -14.7946  -46.9427 H         1 UNK         0.0800 
    133 H133        1.3612  -14.3259  -48.6227 H         1 UNK         0.0800 
    134 H134       -0.0260  -15.7857  -49.8094 H         1 UNK         0.0800 
    135 H135        1.3056  -16.4997  -50.6985 H         1 UNK         0.0800 
    136 H136       -2.0509  -17.0084  -49.5909 H         1 UNK         0.1150 
    137 H137       -2.1068  -21.2613  -49.9978 H         1 UNK         0.1150 
    138 H138        1.5794  -19.1184  -50.4473 H         1 UNK         0.1150 
    139 H139       -0.1061  -22.5043  -50.2752 H         1 UNK         0.0800 
    140 H140        0.7950  -21.7500  -51.5638 H         1 UNK         0.0800 
    141 H141        2.2672  -20.8310  -47.3752 H         1 UNK         0.0800 
    142 H142        0.6007  -20.8353  -47.8434 H         1 UNK         0.0800 
    143 H143        2.1900  -23.2952  -46.9643 H         1 UNK         0.0600 
    144 H144        0.9886  -21.3227  -45.3614 H         1 UNK         0.3000 
    145 H145        0.2951  -23.3689  -42.4908 H         1 UNK         0.0600 
    146 H146        1.6829  -21.5815  -41.5048 H         1 UNK         0.0600 
    147 H147        2.6953  -22.6568  -42.4563 H         1 UNK         0.0600 
    148 H148        2.2430  -21.0820  -43.0989 H         1 UNK         0.0600 
    149 H149       -0.1975  -20.6121  -42.9803 H         1 UNK         0.3000 
    150 H150       -3.5332  -21.0001  -44.2861 H         1 UNK         0.0600 
    151 H151       -3.6497  -21.0792  -41.7840 H         1 UNK         0.0600 
    152 H152       -3.9600  -19.4628  -42.3991 H         1 UNK         0.0600 
    153 H153       -2.3961  -19.8475  -41.6836 H         1 UNK         0.0600 
    154 H154       -2.0279  -18.6536  -43.8372 H         1 UNK         0.3000 
    155 H155       -0.4663  -18.4743  -47.0727 H         1 UNK         0.0600 
    156 H156       -1.5519  -16.2689  -46.9179 H         1 UNK         0.0600 
    157 H157       -2.5307  -16.7942  -45.5496 H         1 UNK         0.0600 
    158 H158       -2.7882  -17.4995  -47.1345 H         1 UNK         0.0600 
    159 H159       -0.1764  -16.7833  -44.8213 H         1 UNK         0.3000 
    160 H160        2.6039  -18.4374  -43.2918 H         1 UNK         0.0600 
    161 H161        2.2487  -15.7974  -44.8119 H         1 UNK         0.0600 
    162 H162        3.4966  -16.9967  -45.1071 H         1 UNK         0.0600 
    163 H163        3.4727  -16.1194  -43.5846 H         1 UNK         0.0600 
    164 H164        1.0330  -16.1143  -42.6394 H         1 UNK         0.3000 
    165 H165       -1.2659  -17.7739  -40.4661 H         1 UNK         0.0600 
    166 H166        1.0945  -15.9015  -39.8880 H         1 UNK         0.0600 
    167 H167       -0.3191  -16.1411  -38.8606 H         1 UNK         0.0600 
    168 H168        0.8147  -17.4578  -39.1159 H         1 UNK         0.0600 
    169 H169       -0.8824  -15.0224  -41.1110 H         1 UNK         0.3000 
    170 H170       -2.8966  -14.8848  -44.0234 H         1 UNK         0.0600 
    171 H171       -4.6014  -14.9663  -42.1987 H         1 UNK         0.0600 
    172 H172       -3.5709  -13.9741  -41.1741 H         1 UNK         0.0600 
    173 H173       -4.2437  -13.3112  -42.6641 H         1 UNK         0.0600 
    174 H174       -1.7642  -12.8235  -42.4500 H         1 UNK         0.3000 
    175 H175        0.0468  -11.7414  -42.9329 H         1 UNK         0.0600 
    176 H176        2.5247  -12.0497  -42.9499 H         1 UNK         0.0600 
    177 H177        1.7145  -13.2926  -42.0072 H         1 UNK         0.0600 
    178 H178        2.3249  -13.6697  -43.6102 H         1 UNK         0.0600 
    179 H179        1.5323  -12.1085  -45.4151 H         1 UNK         0.3000 
    180 H180       -0.5544  -11.1086  -47.5770 H         1 UNK         0.0600 
    181 H181       -0.1324   -8.6960  -48.1258 H         1 UNK         0.0600 
    182 H182       -1.3989   -8.9033  -46.9297 H         1 UNK         0.0600 
    183 H183        0.1974   -8.3755  -46.4233 H         1 UNK         0.0600 
    184 H184        1.5386  -11.4223  -48.1360 H         1 UNK         0.3000 
    185 H185        4.0243  -10.1704  -48.5103 H         1 UNK         0.0600 
    186 H186        6.0373  -10.8814  -47.1924 H         1 UNK         0.0600 
    187 H187        5.2959   -9.4329  -46.5332 H         1 UNK         0.0600 
    188 H188        5.0478  -10.9808  -45.7370 H         1 UNK         0.0600 
    189 H189        3.9473  -12.3522  -48.9537 H         1 UNK         0.3000 
    190 H190       -1.2765  -22.3009  -46.7866 H         1 UNK         0.3000 
    191 H191       -2.2286  -24.1765  -48.6995 H         1 UNK         0.0600 
    192 H192       -4.4607  -23.5475  -47.7574 H         1 UNK         0.0600 
    193 H193       -3.4620  -22.1304  -48.0396 H         1 UNK         0.0600 
    194 H194       -3.6694  -22.7481  -46.4026 H         1 UNK         0.0600 
    195 H195       -1.3059  -24.6775  -45.3737 H         1 UNK         0.3000 
    196 H196       -2.7631  -27.2342  -45.1221 H         1 UNK         0.0600 
    197 H197       -1.6788  -27.3039  -42.8899 H         1 UNK         0.0600 
    198 H198       -2.5367  -25.7885  -43.1269 H         1 UNK         0.0600 
    199 H199       -0.7812  -25.8350  -43.2521 H         1 UNK         0.0600 
    200 H200        0.6240  -26.0394  -45.4125 H         1 UNK         0.3000 
    201 H201        1.8130  -28.6370  -45.3562 H         1 UNK         0.0600 
    202 H202        2.9804  -26.5849  -44.6039 H         1 UNK         0.0600 
    203 H203        2.9303  -25.9239  -46.2374 H         1 UNK         0.0600 
    204 H204        3.8912  -27.3584  -45.8925 H         1 UNK         0.0600 
    205 H205        0.6964  -26.5861  -48.0428 H         1 UNK         0.3000 
    206 H206        1.3417  -28.6928  -50.0154 H         1 UNK         0.0600 
    207 H207        3.2728  -27.0420  -49.9756 H         1 UNK         0.0600 
    208 H208        2.3979  -26.9854  -51.4930 H         1 UNK         0.0600 
    209 H209        2.1359  -25.7316  -50.2845 H         1 UNK         0.0600 
    210 H210        0.4831  -27.5194  -52.2569 H         1 UNK         0.3000 
    211 H211       -2.3868  -27.2634  -51.9878 H         1 UNK         0.0600 
    212 H212       -0.5101  -26.7917  -54.3713 H         1 UNK         0.0600 
    213 H213       -2.2649  -26.8780  -54.4557 H         1 UNK         0.0600 
    214 H214       -1.3429  -28.3010  -53.9946 H         1 UNK         0.0600 
    215 H215       -3.6353  -25.4059  -52.0964 H         1 UNK         0.3000 
    216 H216       -2.3982  -22.9244  -51.3151 H         1 UNK         0.0600 
    217 H217       -4.7557  -22.1195  -51.1891 H         1 UNK         0.0600 
    218 H218       -4.5953  -23.6743  -50.3927 H         1 UNK         0.0600 
    219 H219       -5.3171  -23.5775  -51.9989 H         1 UNK         0.0600 
    220 H220       -2.6770  -20.8603  -52.3794 H         1 UNK         0.3000 
    221 H221       -2.1013  -20.9264  -55.2051 H         1 UNK         0.0600 
    222 H222       -2.5103  -18.5782  -53.2766 H         1 UNK         0.0600 
    223 H223       -0.9736  -19.3742  -53.6083 H         1 UNK         0.0600 
    224 H224       -1.7980  -18.4856  -54.8802 H         1 UNK         0.0600 
    225 H225       -5.0074  -20.7395  -53.4438 H         1 UNK         0.3000 
    226 H226       -7.1534  -20.4792  -53.8852 H         1 UNK         0.0600 
    227 H227       -6.6951  -21.7727  -56.0297 H         1 UNK         0.0600 
    228 H228       -8.0799  -20.7047  -56.1235 H         1 UNK         0.0600 
    229 H229       -6.5640  -20.2360  -56.8812 H         1 UNK         0.0600 
    230 H230       -8.5974  -18.8079  -55.5981 H         1 UNK         0.3000 
    231 H231       -9.4947  -16.7847  -55.6783 H         1 UNK         0.0600 
    232 H232       -7.9937  -14.9027  -56.4150 H         1 UNK         0.0600 
    233 H233       -7.7416  -16.3759  -57.3335 H         1 UNK         0.0600 
    234 H234       -6.5823  -15.9089  -56.0988 H         1 UNK         0.0600 
    235 H235       -6.7345  -15.2215  -54.2174 H         1 UNK         0.3000 
    236 H236       -8.1548  -13.9251  -52.1382 H         1 UNK         0.0600 
    237 H237       -5.1511  -14.4207  -52.5104 H         1 UNK         0.0600 
    238 H238       -6.0600  -13.0431  -53.1351 H         1 UNK         0.0600 
    239 H239       -5.8574  -13.2496  -51.4029 H         1 UNK         0.0600 
    240 H240       -6.6781  -17.1217  -52.2286 H         1 UNK         0.3000 
    241 H241       -6.6183  -17.5563  -49.3837 H         1 UNK         0.0600 
    242 H242       -9.4305  -17.2901  -51.4793 H         1 UNK         0.3800 
    243 H243      -10.5179  -18.0856  -50.3702 H         1 UNK         0.3800 
    244 H244       -6.3716  -19.9509  -49.9037 H         1 UNK         0.0800 
    245 H245       -6.8452  -19.6812  -51.5564 H         1 UNK         0.0800 
    246 H246       -4.0444  -18.3418  -48.9310 H         1 UNK         0.0800 
    247 H247       -4.0526  -20.0794  -49.1291 H         1 UNK         0.0800 
@<TRIPOS>BOND
     1    1    2 1    
     2    1  127 1    
     3    1  128 1    
     4    1  129 1    
     5    2    3 2    
     6    2    4 am   BACKBONE|DICT|INTERRES
     7    4    5 1    
     8    4  130 1    
     9    5    6 1    
    10    5   65 1    
    11    5  131 1    
    12    6    7 1    
    13    6  132 1    
    14    6  133 1    
    15    7    8 1    
    16    8    9 1    
    17    8  134 1    
    18    8  135 1    
    19    9   10 ar   
    20    9   14 ar   
    21   10   11 ar   
    22   10  136 1    
    23   11   12 ar   
    24   11  126 1    
    25   12   13 ar   
    26   12  137 1    
    27   13   14 ar   
    28   13   15 1    
    29   14  138 1    
    30   15   16 1    
    31   15  139 1    
    32   15  140 1    
    33   16   17 1    
    34   17   18 1    
    35   17  141 1    
    36   17  142 1    
    37   18   19 1    
    38   18   67 1    
    39   18  143 1    
    40   19   20 am   BACKBONE|DICT|INTERRES
    41   19  144 1    
    42   20   21 2    
    43   20   22 1    
    44   22   23 1    
    45   22   24 1    
    46   22  145 1    
    47   23  146 1    
    48   23  147 1    
    49   23  148 1    
    50   24   25 am   BACKBONE|DICT|INTERRES
    51   24  149 1    
    52   25   26 2    
    53   25   27 1    
    54   27   28 1    
    55   27   29 1    
    56   27  150 1    
    57   28  151 1    
    58   28  152 1    
    59   28  153 1    
    60   29   30 am   BACKBONE|DICT|INTERRES
    61   29  154 1    
    62   30   31 2    
    63   30   32 1    
    64   32   33 1    
    65   32   34 1    
    66   32  155 1    
    67   33  156 1    
    68   33  157 1    
    69   33  158 1    
    70   34   35 am   BACKBONE|DICT|INTERRES
    71   34  159 1    
    72   35   36 2    
    73   35   37 1    
    74   37   38 1    
    75   37   39 1    
    76   37  160 1    
    77   38  161 1    
    78   38  162 1    
    79   38  163 1    
    80   39   40 am   BACKBONE|DICT|INTERRES
    81   39  164 1    
    82   40   41 2    
    83   40   42 1    
    84   42   43 1    
    85   42   44 1    
    86   42  165 1    
    87   43  166 1    
    88   43  167 1    
    89   43  168 1    
    90   44   45 am   BACKBONE|DICT|INTERRES
    91   44  169 1    
    92   45   46 2    
    93   45   47 1    
    94   47   48 1    
    95   47   49 1    
    96   47  170 1    
    97   48  171 1    
    98   48  172 1    
    99   48  173 1    
   100   49   50 am   BACKBONE|DICT|INTERRES
   101   49  174 1    
   102   50   51 2    
   103   50   52 1    
   104   52   53 1    
   105   52   54 1    
   106   52  175 1    
   107   53  176 1    
   108   53  177 1    
   109   53  178 1    
   110   54   55 am   BACKBONE|DICT|INTERRES
   111   54  179 1    
   112   55   56 2    
   113   55   57 1    
   114   57   58 1    
   115   57   59 1    
   116   57  180 1    
   117   58  181 1    
   118   58  182 1    
   119   58  183 1    
   120   59   60 am   BACKBONE|DICT|INTERRES
   121   59  184 1    
   122   60   61 2    
   123   60   62 1    
   124   62   63 1    
   125   62   64 1    
   126   62  185 1    
   127   63  186 1    
   128   63  187 1    
   129   63  188 1    
   130   64   65 am   BACKBONE|DICT|INTERRES
   131   64  189 1    
   132   65   66 2    
   133   67   68 2    
   134   67   69 am   BACKBONE|DICT|INTERRES
   135   69   70 1    
   136   69  190 1    
   137   70   71 1    
   138   70   72 1    
   139   70  191 1    
   140   71  192 1    
   141   71  193 1    
   142   71  194 1    
   143   72   73 2    
   144   72   74 am   BACKBONE|DICT|INTERRES
   145   74   75 1    
   146   74  195 1    
   147   75   76 1    
   148   75   77 1    
   149   75  196 1    
   150   76  197 1    
   151   76  198 1    
   152   76  199 1    
   153   77   78 2    
   154   77   79 am   BACKBONE|DICT|INTERRES
   155   79   80 1    
   156   79  200 1    
   157   80   81 1    
   158   80   82 1    
   159   80  201 1    
   160   81  202 1    
   161   81  203 1    
   162   81  204 1    
   163   82   83 2    
   164   82   84 am   BACKBONE|DICT|INTERRES
   165   84   85 1    
   166   84  205 1    
   167   85   86 1    
   168   85   87 1    
   169   85  206 1    
   170   86  207 1    
   171   86  208 1    
   172   86  209 1    
   173   87   88 2    
   174   87   89 am   BACKBONE|DICT|INTERRES
   175   89   90 1    
   176   89  210 1    
   177   90   91 1    
   178   90   92 1    
   179   90  211 1    
   180   91  212 1    
   181   91  213 1    
   182   91  214 1    
   183   92   93 2    
   184   92   94 am   BACKBONE|DICT|INTERRES
   185   94   95 1    
   186   94  215 1    
   187   95   96 1    
   188   95   97 1    
   189   95  216 1    
   190   96  217 1    
   191   96  218 1    
   192   96  219 1    
   193   97   98 2    
   194   97   99 am   BACKBONE|DICT|INTERRES
   195   99  100 1    
   196   99  220 1    
   197  100  101 1    
   198  100  102 1    
   199  100  221 1    
   200  101  222 1    
   201  101  223 1    
   202  101  224 1    
   203  102  103 2    
   204  102  104 am   BACKBONE|DICT|INTERRES
   205  104  105 1    
   206  104  225 1    
   207  105  106 1    
   208  105  107 1    
   209  105  226 1    
   210  106  227 1    
   211  106  228 1    
   212  106  229 1    
   213  107  108 2    
   214  107  109 am   BACKBONE|DICT|INTERRES
   215  109  110 1    
   216  109  230 1    
   217  110  111 1    
   218  110  112 1    
   219  110  231 1    
   220  111  232 1    
   221  111  233 1    
   222  111  234 1    
   223  112  113 2    
   224  112  114 am   BACKBONE|DICT|INTERRES
   225  114  115 1    
   226  114  235 1    
   227  115  116 1    
   228  115  117 1    
   229  115  236 1    
   230  116  237 1    
   231  116  238 1    
   232  116  239 1    
   233  117  118 2    
   234  117  119 am   BACKBONE|DICT|INTERRES
   235  119  120 1    
   236  119  240 1    
   237  120  121 1    
   238  120  124 1    
   239  120  241 1    
   240  121  122 am   BACKBONE|DICT|INTERRES
   241  121  123 2    
   242  122  242 1    
   243  122  243 1    
   244  124  125 1    
   245  124  244 1    
   246  124  245 1    
   247  125  126 1    
   248  126  246 1    
   249  126  247 1    
@<TRIPOS>SUBSTRUCTURE
     1 UNK         1 GROUP             0       ****    0 ROOT    
