@<TRIPOS>MOLECULE
3R540
247   249    1
SMALL
USER_CHARGES


@<TRIPOS>ATOM
      1 CA         -0.4783  -12.4492  -53.0194 C.3       0 UNK        -0.1800 
      2 C           0.1133  -13.2507  -51.8683 C.2       0 UNK         0.5000 
      3 O           1.1666  -13.8656  -52.0290 O.2       0 UNK        -0.5000 
      4 N          -0.5683  -13.2527  -50.7154 N.am      1 UNK        -0.5000 
      5 CA         -0.1694  -13.9712  -49.4977 C.3       1 UNK         0.1400 
      6 C6         -1.3039  -13.9843  -48.4453 C.3       23 UNK        -0.0398 
      7 S7         -2.8019  -14.8463  -49.0289 S.3       23 UNK        -0.2404 
      8 C8         -2.9448  -16.2288  -47.8515 C.3       23 UNK        -0.0205 
      9 C9         -2.8926  -17.5741  -48.5546 C.ar      23 UNK        -0.0193 
     10 C10        -4.0646  -18.3105  -48.7520 C.ar      23 UNK        -0.1150 
     11 C11        -4.0235  -19.5580  -49.3820 C.ar      23 UNK        -0.0193 
     12 C12        -2.7991  -20.0575  -49.8296 C.ar      23 UNK        -0.1150 
     13 C13        -1.6185  -19.3374  -49.6276 C.ar      23 UNK        -0.0193 
     14 C14        -1.6693  -18.0990  -48.9814 C.ar      23 UNK        -0.1150 
     15 C15        -0.2906  -19.9115  -50.0988 C.3       23 UNK        -0.0205 
     16 S16         0.6274  -20.7253  -48.7553 S.3       23 UNK        -0.2404 
     17 C17        -0.6361  -21.8623  -48.0933 C.3       23 UNK        -0.0398 
     18 CA         -0.0399  -22.9538  -47.1827 C.3       11 UNK         0.1400 
     19 N           0.5462  -22.4131  -45.9570 N.am      11 UNK        -0.5000 
     20 C           1.2936  -23.1138  -45.0956 C.2       10 UNK         0.5000 
     21 O           1.5906  -24.2978  -45.2562 O.2       10 UNK        -0.5000 
     22 CA          1.7412  -22.3830  -43.8176 C.3       10 UNK         0.1400 
     23 CB          2.9276  -21.4493  -44.1011 C.3       10 UNK        -0.1800 
     24 N           0.6522  -21.6253  -43.1994 N.am      10 UNK        -0.5000 
     25 C          -0.4459  -22.1821  -42.6682 C.2       9 UNK         0.5000 
     26 O          -0.6411  -23.3975  -42.6200 O.2       9 UNK        -0.5000 
     27 CA         -1.5208  -21.2200  -42.1291 C.3       9 UNK         0.1400 
     28 CB         -1.1235  -20.6811  -40.7467 C.3       9 UNK        -0.1800 
     29 N          -1.7884  -20.0983  -43.0295 N.am      9 UNK        -0.5000 
     30 C          -2.2823  -20.2177  -44.2704 C.2       8 UNK         0.5000 
     31 O          -2.5973  -21.2897  -44.7828 O.2       8 UNK        -0.5000 
     32 CA         -2.3888  -18.9277  -45.1027 C.3       8 UNK         0.1400 
     33 CB         -3.6277  -18.1204  -44.6871 C.3       8 UNK        -0.1800 
     34 N          -1.1903  -18.0905  -45.0115 N.am      8 UNK        -0.5000 
     35 C           0.0474  -18.5026  -45.3244 C.2       7 UNK         0.5000 
     36 O           0.3154  -19.6365  -45.7099 O.2       7 UNK        -0.5000 
     37 CA          1.1913  -17.5040  -45.1118 C.3       7 UNK         0.1400 
     38 CB          1.2523  -16.4888  -46.2601 C.3       7 UNK        -0.1800 
     39 N           1.0701  -16.8237  -43.8243 N.am      7 UNK        -0.5000 
     40 C           1.2635  -17.4292  -42.6431 C.2       6 UNK         0.5000 
     41 O           1.6528  -18.5916  -42.5228 O.2       6 UNK        -0.5000 
     42 CA          0.9090  -16.6147  -41.3869 C.3       6 UNK         0.1400 
     43 CB          2.0856  -15.7281  -40.9555 C.3       6 UNK        -0.1800 
     44 N          -0.2863  -15.7922  -41.5831 N.am      6 UNK        -0.5000 
     45 C          -1.5223  -16.2984  -41.7065 C.2       5 UNK         0.5000 
     46 O          -1.7739  -17.5016  -41.6399 O.2       5 UNK        -0.5000 
     47 CA         -2.6683  -15.3070  -41.9827 C.3       5 UNK         0.1400 
     48 CB         -3.2898  -14.8261  -40.6633 C.3       5 UNK        -0.1800 
     49 N          -2.2752  -14.1443  -42.7800 N.am      5 UNK        -0.5000 
     50 C          -1.7807  -14.1853  -44.0245 C.2       4 UNK         0.5000 
     51 O          -1.5650  -15.2321  -44.6368 O.2       4 UNK        -0.5000 
     52 CA         -1.4524  -12.8388  -44.7029 C.3       4 UNK         0.1400 
     53 CB         -1.9405  -11.5997  -43.9193 C.3       4 UNK        -0.1800 
     54 N          -0.0252  -12.7046  -45.0119 N.am      4 UNK        -0.5000 
     55 C           1.0069  -12.7997  -44.1589 C.2       3 UNK         0.5000 
     56 O           0.8825  -13.0934  -42.9688 O.2       3 UNK        -0.5000 
     57 CA          2.4159  -12.5209  -44.7246 C.3       3 UNK         0.1400 
     58 CB          3.4047  -13.6357  -44.3453 C.3       3 UNK        -0.1800 
     59 N           2.4184  -12.3529  -46.1821 N.am      3 UNK        -0.5000 
     60 C           2.3652  -11.1825  -46.8299 C.2       2 UNK         0.5000 
     61 O           2.3031  -10.0924  -46.2611 O.2       2 UNK        -0.5000 
     62 CA          2.3488  -11.2302  -48.3724 C.3       2 UNK         0.1400 
     63 CB          3.7280  -11.6174  -48.9404 C.3       2 UNK        -0.1800 
     64 N           1.2745  -12.0604  -48.9375 N.am      2 UNK        -0.5000 
     65 C           1.1109  -13.3903  -48.8610 C.2       1 UNK         0.5000 
     66 O           1.8970  -14.1452  -48.2905 O.2       1 UNK        -0.5000 
     67 C          -1.0895  -24.0400  -46.8862 C.2       11 UNK         0.5000 
     68 O          -1.0995  -25.0522  -47.5818 O.2       11 UNK        -0.5000 
     69 N          -1.9203  -23.8516  -45.8503 N.am      12 UNK        -0.5000 
     70 CA         -2.8988  -24.8411  -45.3933 C.3       12 UNK         0.1400 
     71 CB         -3.8060  -24.2293  -44.3157 C.3       12 UNK        -0.1800 
     72 C          -2.2410  -26.1352  -44.8820 C.2       12 UNK         0.5000 
     73 O          -2.7248  -27.2220  -45.1990 O.2       12 UNK        -0.5000 
     74 N          -1.1294  -26.0004  -44.1441 N.am      13 UNK        -0.5000 
     75 CA         -0.3089  -27.1192  -43.6753 C.3       13 UNK         0.1400 
     76 CB          0.7142  -26.6104  -42.6485 C.3       13 UNK        -0.1800 
     77 C           0.3905  -27.8689  -44.8268 C.2       13 UNK         0.5000 
     78 O           0.4683  -29.0975  -44.7936 O.2       13 UNK        -0.5000 
     79 N           0.8616  -27.1210  -45.8340 N.am      14 UNK        -0.5000 
     80 CA          1.4835  -27.6490  -47.0513 C.3       14 UNK         0.1400 
     81 CB          2.2915  -26.5233  -47.7166 C.3       14 UNK        -0.1800 
     82 C           0.4767  -28.2432  -48.0594 C.2       14 UNK         0.5000 
     83 O           0.8956  -28.9656  -48.9646 O.2       14 UNK        -0.5000 
     84 N          -0.8124  -27.9074  -47.9028 N.am      15 UNK        -0.5000 
     85 CA         -1.9306  -28.1677  -48.8164 C.3       15 UNK         0.1400 
     86 CB         -2.2117  -29.6796  -48.9420 C.3       15 UNK        -0.1800 
     87 C          -1.7466  -27.4575  -50.1768 C.2       15 UNK         0.5000 
     88 O          -2.0141  -28.0413  -51.2291 O.2       15 UNK        -0.5000 
     89 N          -1.2745  -26.2072  -50.1200 N.am      16 UNK        -0.5000 
     90 CA         -0.9941  -25.3400  -51.2594 C.3       16 UNK         0.1400 
     91 CB          0.3840  -24.6926  -51.0412 C.3       16 UNK        -0.1800 
     92 C          -2.0711  -24.2504  -51.3963 C.2       16 UNK         0.5000 
     93 O          -2.7181  -23.8855  -50.4124 O.2       16 UNK        -0.5000 
     94 N          -2.2036  -23.7195  -52.6165 N.am      17 UNK        -0.5000 
     95 CA         -3.1104  -22.6257  -52.9807 C.3       17 UNK         0.1400 
     96 CB         -4.2508  -23.1932  -53.8448 C.3       17 UNK        -0.1800 
     97 C          -2.3521  -21.4900  -53.7000 C.2       17 UNK         0.5000 
     98 O          -2.9670  -20.6965  -54.4112 O.2       17 UNK        -0.5000 
     99 N          -1.0232  -21.4465  -53.5321 N.am      18 UNK        -0.5000 
    100 CA        -0.0843  -20.5720  -54.2379 C.3       18 UNK         0.1400 
    101 CB         1.3145  -21.2114  -54.1571 C.3       18 UNK        -0.1800 
    102 C         -0.0943  -19.1077  -53.7427 C.2       18 UNK         0.5000 
    103 O          0.9381  -18.5973  -53.3044 O.2       18 UNK        -0.5000 
    104 N         -1.2521  -18.4497  -53.8348 N.am      19 UNK        -0.5000 
    105 CA        -1.4468  -17.0281  -53.5677 C.3       19 UNK         0.1400 
    106 CB        -1.5956  -16.7795  -52.0598 C.3       19 UNK        -0.1800 
    107 C         -2.6998  -16.5511  -54.3066 C.2       19 UNK         0.5000 
    108 O         -3.5887  -17.3570  -54.5897 O.2       19 UNK        -0.5000 
    109 N         -2.7841  -15.2382  -54.5543 N.am      20 UNK        -0.5000 
    110 CA        -3.9054  -14.5759  -55.2330 C.3       20 UNK         0.1400 
    111 CB        -3.5628  -13.0895  -55.4182 C.3       20 UNK        -0.1800 
    112 C         -5.2657  -14.7293  -54.5188 C.2       20 UNK         0.5000 
    113 O         -6.3067  -14.6156  -55.1666 O.2       20 UNK        -0.5000 
    114 N         -5.2318  -14.9981  -53.2068 N.am      21 UNK        -0.5000 
    115 CA        -6.4011  -15.2821  -52.3781 C.3       21 UNK         0.1400 
    116 CB        -5.9919  -15.1794  -50.9003 C.3       21 UNK        -0.1800 
    117 C         -7.0330  -16.6616  -52.6517 C.2       21 UNK         0.5000 
    118 O         -8.2275  -16.8232  -52.3961 O.2       21 UNK        -0.5000 
    119 N         -6.2350  -17.6250  -53.1343 N.am      22 UNK        -0.5000 
    120 CA        -6.6306  -19.0354  -53.2987 C.3       22 UNK         0.1400 
    121 C         -6.4240  -19.5907  -54.7352 C.2       22 UNK         0.5000 
    122 N         -5.6128  -18.9810  -55.5882 N.am      22 UNK        -0.7600 
    123 O         -7.0433  -20.5878  -55.0962 O.2       22 UNK        -0.5000 
    124 C124       -5.9479  -19.9428  -52.2415 C.3       23 UNK        -0.0398 
    125 S125       -6.5534  -19.5937  -50.5559 S.3       23 UNK        -0.2404 
    126 C126       -5.2885  -20.3934  -49.5220 C.3       23 UNK        -0.0205 
    127 H127        0.1414  -11.5760  -53.2229 H         1 UNK         0.0600 
    128 H128       -1.4888  -12.1058  -52.7967 H         1 UNK         0.0600 
    129 H129       -0.5162  -13.0563  -53.9234 H         1 UNK         0.0600 
    130 H130       -1.4420  -12.7492  -50.6566 H         1 UNK         0.3000 
    131 H131        0.0504  -15.0047  -49.7754 H         1 UNK         0.0600 
    132 H132       -0.9590  -14.4379  -47.5165 H         1 UNK         0.0800 
    133 H133       -1.5917  -12.9643  -48.1851 H         1 UNK         0.0800 
    134 H134       -2.1643  -16.1981  -47.0922 H         1 UNK         0.0800 
    135 H135       -3.8879  -16.1178  -47.3153 H         1 UNK         0.0800 
    136 H136       -5.0110  -17.9203  -48.4050 H         1 UNK         0.1150 
    137 H137       -2.7567  -21.0263  -50.3036 H         1 UNK         0.1150 
    138 H138       -0.7586  -17.5409  -48.8178 H         1 UNK         0.1150 
    139 H139       -0.4513  -20.6298  -50.9023 H         1 UNK         0.0800 
    140 H140        0.3270  -19.1167  -50.5189 H         1 UNK         0.0800 
    141 H141       -1.3833  -21.2814  -47.5490 H         1 UNK         0.0800 
    142 H142       -1.1488  -22.3171  -48.9415 H         1 UNK         0.0800 
    143 H143        0.7675  -23.4390  -47.7345 H         1 UNK         0.0600 
    144 H144        0.3846  -21.4218  -45.7806 H         1 UNK         0.3000 
    145 H145        2.0705  -23.1393  -43.1021 H         1 UNK         0.0600 
    146 H146        3.7620  -22.0006  -44.5360 H         1 UNK         0.0600 
    147 H147        2.6605  -20.6546  -44.7979 H         1 UNK         0.0600 
    148 H148        3.2878  -20.9814  -43.1848 H         1 UNK         0.0600 
    149 H149        0.7360  -20.6165  -43.2099 H         1 UNK         0.3000 
    150 H150       -2.4475  -21.7869  -42.0199 H         1 UNK         0.0600 
    151 H151       -0.9201  -21.4966  -40.0516 H         1 UNK         0.0600 
    152 H152       -1.9224  -20.0775  -40.3157 H         1 UNK         0.0600 
    153 H153       -0.2282  -20.0600  -40.7989 H         1 UNK         0.0600 
    154 H154       -1.5942  -19.1687  -42.6685 H         1 UNK         0.3000 
    155 H155       -2.5014  -19.2146  -46.1500 H         1 UNK         0.0600 
    156 H156       -3.6766  -17.1618  -45.2006 H         1 UNK         0.0600 
    157 H157       -4.5405  -18.6668  -44.9266 H         1 UNK         0.0600 
    158 H158       -3.6392  -17.9237  -43.6157 H         1 UNK         0.0600 
    159 H159       -1.3234  -17.1249  -44.7246 H         1 UNK         0.3000 
    160 H160        2.1260  -18.0691  -45.1181 H         1 UNK         0.0600 
    161 H161        0.4412  -15.7653  -46.2099 H         1 UNK         0.0600 
    162 H162        1.1891  -16.9860  -47.2291 H         1 UNK         0.0600 
    163 H163        2.1930  -15.9419  -46.2501 H         1 UNK         0.0600 
    164 H164        0.6797  -15.8923  -43.8319 H         1 UNK         0.3000 
    165 H165        0.7072  -17.3222  -40.5795 H         1 UNK         0.0600 
    166 H166        1.8581  -15.1912  -40.0346 H         1 UNK         0.0600 
    167 H167        2.9781  -16.3275  -40.7714 H         1 UNK         0.0600 
    168 H168        2.3367  -14.9926  -41.7186 H         1 UNK         0.0600 
    169 H169       -0.1469  -14.7959  -41.6966 H         1 UNK         0.3000 
    170 H170       -3.4372  -15.8408  -42.5431 H         1 UNK         0.0600 
    171 H171       -3.6175  -15.6706  -40.0553 H         1 UNK         0.0600 
    172 H172       -2.5785  -14.2504  -40.0697 H         1 UNK         0.0600 
    173 H173       -4.1634  -14.1994  -40.8432 H         1 UNK         0.0600 
    174 H174       -2.3927  -13.2413  -42.3444 H         1 UNK         0.3000 
    175 H175       -1.9802  -12.8500  -45.6570 H         1 UNK         0.0600 
    176 H176       -1.4404  -11.4963  -42.9556 H         1 UNK         0.0600 
    177 H177       -1.7509  -10.6867  -44.4840 H         1 UNK         0.0600 
    178 H178       -3.0154  -11.6427  -43.7386 H         1 UNK         0.0600 
    179 H179        0.1988  -12.4737  -45.9673 H         1 UNK         0.3000 
    180 H180        2.7665  -11.6003  -44.2539 H         1 UNK         0.0600 
    181 H181        3.0465  -14.6192  -44.6435 H         1 UNK         0.0600 
    182 H182        3.5653  -13.6604  -43.2673 H         1 UNK         0.0600 
    183 H183        4.3782  -13.4765  -44.8093 H         1 UNK         0.0600 
    184 H184        2.4285  -13.1989  -46.7475 H         1 UNK         0.3000 
    185 H185        2.1388  -10.2144  -48.7114 H         1 UNK         0.0600 
    186 H186        4.4967  -10.9241  -48.5971 H         1 UNK         0.0600 
    187 H187        4.0350  -12.6177  -48.6345 H         1 UNK         0.0600 
    188 H188        3.7262  -11.5873  -50.0300 H         1 UNK         0.0600 
    189 H189        0.5590  -11.5430  -49.4290 H         1 UNK         0.3000 
    190 H190       -1.9076  -22.9645  -45.3533 H         1 UNK         0.3000 
    191 H191       -3.5243  -25.1060  -46.2484 H         1 UNK         0.0600 
    192 H192       -4.3651  -23.3801  -44.7086 H         1 UNK         0.0600 
    193 H193       -3.2336  -23.8843  -43.4545 H         1 UNK         0.0600 
    194 H194       -4.5342  -24.9577  -43.9568 H         1 UNK         0.0600 
    195 H195       -0.8193  -25.0680  -43.8915 H         1 UNK         0.3000 
    196 H196       -0.9678  -27.8290  -43.1707 H         1 UNK         0.0600 
    197 H197        1.3178  -27.4311  -42.2592 H         1 UNK         0.0600 
    198 H198        0.2185  -26.1390  -41.7996 H         1 UNK         0.0600 
    199 H199        1.3955  -25.8793  -43.0839 H         1 UNK         0.0600 
    200 H200        0.8212  -26.1104  -45.7471 H         1 UNK         0.3000 
    201 H201        2.1757  -28.4449  -46.7693 H         1 UNK         0.0600 
    202 H202        3.0391  -26.1167  -47.0352 H         1 UNK         0.0600 
    203 H203        1.6477  -25.7035  -48.0357 H         1 UNK         0.0600 
    204 H204        2.8191  -26.8874  -48.5990 H         1 UNK         0.0600 
    205 H205       -1.0201  -27.2590  -47.1542 H         1 UNK         0.3000 
    206 H206       -2.8064  -27.7102  -48.3538 H         1 UNK         0.0600 
    207 H207       -2.3373  -30.1387  -47.9614 H         1 UNK         0.0600 
    208 H208       -3.1289  -29.8589  -49.5039 H         1 UNK         0.0600 
    209 H209       -1.4068  -30.2034  -49.4579 H         1 UNK         0.0600 
    210 H210       -1.1665  -25.7788  -49.2013 H         1 UNK         0.3000 
    211 H211       -0.9645  -25.9249  -52.1810 H         1 UNK         0.0600 
    212 H212        0.3991  -24.0665  -50.1486 H         1 UNK         0.0600 
    213 H213        0.6660  -24.0656  -51.8877 H         1 UNK         0.0600 
    214 H214        1.1596  -25.4504  -50.9278 H         1 UNK         0.0600 
    215 H215       -1.6368  -24.0839  -53.3705 H         1 UNK         0.3000 
    216 H216       -3.5559  -22.1835  -52.0891 H         1 UNK         0.0600 
    217 H217       -3.8731  -23.6308  -54.7695 H         1 UNK         0.0600 
    218 H218       -4.9671  -22.4181  -54.1185 H         1 UNK         0.0600 
    219 H219       -4.8019  -23.9659  -53.3087 H         1 UNK         0.0600 
    220 H220       -0.6093  -22.1127  -52.8989 H         1 UNK         0.3000 
    221 H221       -0.3709  -20.5468  -55.2913 H         1 UNK         0.0600 
    222 H222        1.6647  -21.2846  -53.1265 H         1 UNK         0.0600 
    223 H223        1.3158  -22.2146  -54.5839 H         1 UNK         0.0600 
    224 H224        2.0473  -20.6253  -54.7133 H         1 UNK         0.0600 
    225 H225       -2.0698  -18.9377  -54.1955 H         1 UNK         0.3000 
    226 H226       -0.5891  -16.4693  -53.9485 H         1 UNK         0.0600 
    227 H227       -0.6899  -17.0573  -51.5223 H         1 UNK         0.0600 
    228 H228       -1.7821  -15.7270  -51.8474 H         1 UNK         0.0600 
    229 H229       -2.4285  -17.3481  -51.6445 H         1 UNK         0.0600 
    230 H230       -2.0173  -14.6422  -54.2827 H         1 UNK         0.3000 
    231 H231       -4.0071  -15.0303  -56.2207 H         1 UNK         0.0600 
    232 H232       -4.3549  -12.5703  -55.9596 H         1 UNK         0.0600 
    233 H233       -2.6440  -12.9627  -55.9911 H         1 UNK         0.0600 
    234 H234       -3.4356  -12.5840  -54.4602 H         1 UNK         0.0600 
    235 H235       -4.3323  -15.0625  -52.7553 H         1 UNK         0.3000 
    236 H236       -7.1585  -14.5215  -52.5789 H         1 UNK         0.0600 
    237 H237       -5.5849  -14.1952  -50.6676 H         1 UNK         0.0600 
    238 H238       -6.8488  -15.3398  -50.2449 H         1 UNK         0.0600 
    239 H239       -5.2394  -15.9256  -50.6404 H         1 UNK         0.0600 
    240 H240       -5.2791  -17.4007  -53.3805 H         1 UNK         0.3000 
    241 H241       -7.7074  -19.1220  -53.1419 H         1 UNK         0.0600 
    242 H242       -4.9766  -18.2521  -55.2739 H         1 UNK         0.3800 
    243 H243       -5.5030  -19.3630  -56.5130 H         1 UNK         0.3800 
    244 H244       -6.1451  -20.9968  -52.4442 H         1 UNK         0.0800 
    245 H245       -4.8646  -19.8148  -52.2756 H         1 UNK         0.0800 
    246 H246       -5.7057  -20.5549  -48.5272 H         1 UNK         0.0800 
    247 H247       -5.0659  -21.3843  -49.9217 H         1 UNK         0.0800 
@<TRIPOS>BOND
     1    1    2 1    
     2    1  127 1    
     3    1  128 1    
     4    1  129 1    
     5    2    3 2    
     6    2    4 am   BACKBONE|DICT|INTERRES
     7    4    5 1    
     8    4  130 1    
     9    5    6 1    
    10    5   65 1    
    11    5  131 1    
    12    6    7 1    
    13    6  132 1    
    14    6  133 1    
    15    7    8 1    
    16    8    9 1    
    17    8  134 1    
    18    8  135 1    
    19    9   10 ar   
    20    9   14 ar   
    21   10   11 ar   
    22   10  136 1    
    23   11   12 ar   
    24   11  126 1    
    25   12   13 ar   
    26   12  137 1    
    27   13   14 ar   
    28   13   15 1    
    29   14  138 1    
    30   15   16 1    
    31   15  139 1    
    32   15  140 1    
    33   16   17 1    
    34   17   18 1    
    35   17  141 1    
    36   17  142 1    
    37   18   19 1    
    38   18   67 1    
    39   18  143 1    
    40   19   20 am   BACKBONE|DICT|INTERRES
    41   19  144 1    
    42   20   21 2    
    43   20   22 1    
    44   22   23 1    
    45   22   24 1    
    46   22  145 1    
    47   23  146 1    
    48   23  147 1    
    49   23  148 1    
    50   24   25 am   BACKBONE|DICT|INTERRES
    51   24  149 1    
    52   25   26 2    
    53   25   27 1    
    54   27   28 1    
    55   27   29 1    
    56   27  150 1    
    57   28  151 1    
    58   28  152 1    
    59   28  153 1    
    60   29   30 am   BACKBONE|DICT|INTERRES
    61   29  154 1    
    62   30   31 2    
    63   30   32 1    
    64   32   33 1    
    65   32   34 1    
    66   32  155 1    
    67   33  156 1    
    68   33  157 1    
    69   33  158 1    
    70   34   35 am   BACKBONE|DICT|INTERRES
    71   34  159 1    
    72   35   36 2    
    73   35   37 1    
    74   37   38 1    
    75   37   39 1    
    76   37  160 1    
    77   38  161 1    
    78   38  162 1    
    79   38  163 1    
    80   39   40 am   BACKBONE|DICT|INTERRES
    81   39  164 1    
    82   40   41 2    
    83   40   42 1    
    84   42   43 1    
    85   42   44 1    
    86   42  165 1    
    87   43  166 1    
    88   43  167 1    
    89   43  168 1    
    90   44   45 am   BACKBONE|DICT|INTERRES
    91   44  169 1    
    92   45   46 2    
    93   45   47 1    
    94   47   48 1    
    95   47   49 1    
    96   47  170 1    
    97   48  171 1    
    98   48  172 1    
    99   48  173 1    
   100   49   50 am   BACKBONE|DICT|INTERRES
   101   49  174 1    
   102   50   51 2    
   103   50   52 1    
   104   52   53 1    
   105   52   54 1    
   106   52  175 1    
   107   53  176 1    
   108   53  177 1    
   109   53  178 1    
   110   54   55 am   BACKBONE|DICT|INTERRES
   111   54  179 1    
   112   55   56 2    
   113   55   57 1    
   114   57   58 1    
   115   57   59 1    
   116   57  180 1    
   117   58  181 1    
   118   58  182 1    
   119   58  183 1    
   120   59   60 am   BACKBONE|DICT|INTERRES
   121   59  184 1    
   122   60   61 2    
   123   60   62 1    
   124   62   63 1    
   125   62   64 1    
   126   62  185 1    
   127   63  186 1    
   128   63  187 1    
   129   63  188 1    
   130   64   65 am   BACKBONE|DICT|INTERRES
   131   64  189 1    
   132   65   66 2    
   133   67   68 2    
   134   67   69 am   BACKBONE|DICT|INTERRES
   135   69   70 1    
   136   69  190 1    
   137   70   71 1    
   138   70   72 1    
   139   70  191 1    
   140   71  192 1    
   141   71  193 1    
   142   71  194 1    
   143   72   73 2    
   144   72   74 am   BACKBONE|DICT|INTERRES
   145   74   75 1    
   146   74  195 1    
   147   75   76 1    
   148   75   77 1    
   149   75  196 1    
   150   76  197 1    
   151   76  198 1    
   152   76  199 1    
   153   77   78 2    
   154   77   79 am   BACKBONE|DICT|INTERRES
   155   79   80 1    
   156   79  200 1    
   157   80   81 1    
   158   80   82 1    
   159   80  201 1    
   160   81  202 1    
   161   81  203 1    
   162   81  204 1    
   163   82   83 2    
   164   82   84 am   BACKBONE|DICT|INTERRES
   165   84   85 1    
   166   84  205 1    
   167   85   86 1    
   168   85   87 1    
   169   85  206 1    
   170   86  207 1    
   171   86  208 1    
   172   86  209 1    
   173   87   88 2    
   174   87   89 am   BACKBONE|DICT|INTERRES
   175   89   90 1    
   176   89  210 1    
   177   90   91 1    
   178   90   92 1    
   179   90  211 1    
   180   91  212 1    
   181   91  213 1    
   182   91  214 1    
   183   92   93 2    
   184   92   94 am   BACKBONE|DICT|INTERRES
   185   94   95 1    
   186   94  215 1    
   187   95   96 1    
   188   95   97 1    
   189   95  216 1    
   190   96  217 1    
   191   96  218 1    
   192   96  219 1    
   193   97   98 2    
   194   97   99 am   BACKBONE|DICT|INTERRES
   195   99  100 1    
   196   99  220 1    
   197  100  101 1    
   198  100  102 1    
   199  100  221 1    
   200  101  222 1    
   201  101  223 1    
   202  101  224 1    
   203  102  103 2    
   204  102  104 am   BACKBONE|DICT|INTERRES
   205  104  105 1    
   206  104  225 1    
   207  105  106 1    
   208  105  107 1    
   209  105  226 1    
   210  106  227 1    
   211  106  228 1    
   212  106  229 1    
   213  107  108 2    
   214  107  109 am   BACKBONE|DICT|INTERRES
   215  109  110 1    
   216  109  230 1    
   217  110  111 1    
   218  110  112 1    
   219  110  231 1    
   220  111  232 1    
   221  111  233 1    
   222  111  234 1    
   223  112  113 2    
   224  112  114 am   BACKBONE|DICT|INTERRES
   225  114  115 1    
   226  114  235 1    
   227  115  116 1    
   228  115  117 1    
   229  115  236 1    
   230  116  237 1    
   231  116  238 1    
   232  116  239 1    
   233  117  118 2    
   234  117  119 am   BACKBONE|DICT|INTERRES
   235  119  120 1    
   236  119  240 1    
   237  120  121 1    
   238  120  124 1    
   239  120  241 1    
   240  121  122 am   BACKBONE|DICT|INTERRES
   241  121  123 2    
   242  122  242 1    
   243  122  243 1    
   244  124  125 1    
   245  124  244 1    
   246  124  245 1    
   247  125  126 1    
   248  126  246 1    
   249  126  247 1    
@<TRIPOS>SUBSTRUCTURE
     1 UNK         1 GROUP             0       ****    0 ROOT    
