@<TRIPOS>MOLECULE
3R540
247   249    1
SMALL
USER_CHARGES


@<TRIPOS>ATOM
      1 CA          2.3527  -14.3514  -47.2307 C.3       0 UNK        -0.1800 
      2 C           1.2018  -13.4084  -46.9208 C.2       0 UNK         0.5000 
      3 O           1.3199  -12.2034  -47.1422 O.2       0 UNK        -0.5000 
      4 N           0.0910  -13.9652  -46.4197 N.am      1 UNK        -0.5000 
      5 CA         -1.1627  -13.2724  -46.0824 C.3       1 UNK         0.1400 
      6 C6         -1.9448  -12.7891  -47.3328 C.3       23 UNK        -0.0398 
      7 S7         -2.5178  -14.2020  -48.3354 S.3       23 UNK        -0.2404 
      8 C8         -1.3113  -14.2019  -49.6941 C.3       23 UNK        -0.0205 
      9 C9         -1.3676  -15.4944  -50.4938 C.ar      23 UNK        -0.0193 
     10 C10        -2.4541  -15.7520  -51.3347 C.ar      23 UNK        -0.1150 
     11 C11        -2.4952  -16.9184  -52.1032 C.ar      23 UNK        -0.0193 
     12 C12        -1.4278  -17.8181  -52.0458 C.ar      23 UNK        -0.1150 
     13 C13        -0.3429  -17.5808  -51.1980 C.ar      23 UNK        -0.0193 
     14 C14        -0.3234  -16.4220  -50.4154 C.ar      23 UNK        -0.1150 
     15 C15         0.8227  -18.5574  -51.1539 C.3       23 UNK        -0.0205 
     16 S16         0.6486  -19.7843  -49.8220 S.3       23 UNK        -0.2404 
     17 C17        -0.6455  -20.8910  -50.4763 C.3       23 UNK        -0.0398 
     18 CA         -1.9101  -20.9193  -49.5923 C.3       11 UNK         0.1400 
     19 N          -2.4778  -19.5800  -49.3885 N.am      11 UNK        -0.5000 
     20 C          -3.3915  -19.2645  -48.4659 C.2       10 UNK         0.5000 
     21 O          -3.9945  -20.1055  -47.8018 O.2       10 UNK        -0.5000 
     22 CA         -3.6349  -17.7695  -48.2225 C.3       10 UNK         0.1400 
     23 CB         -5.1326  -17.4207  -48.1235 C.3       10 UNK        -0.1800 
     24 N          -2.8784  -17.3319  -47.0474 N.am      10 UNK        -0.5000 
     25 C          -3.0485  -17.6742  -45.7619 C.2       9 UNK         0.5000 
     26 O          -3.9980  -18.3278  -45.3286 O.2       9 UNK        -0.5000 
     27 CA         -1.9220  -17.2332  -44.8053 C.3       9 UNK         0.1400 
     28 CB         -2.3064  -17.3876  -43.3242 C.3       9 UNK        -0.1800 
     29 N          -0.6926  -17.9844  -45.0636 N.am      9 UNK        -0.5000 
     30 C           0.1415  -17.7714  -46.0914 C.2       8 UNK         0.5000 
     31 O          -0.0041  -16.8379  -46.8831 O.2       8 UNK        -0.5000 
     32 CA          1.3144  -18.7574  -46.2512 C.3       8 UNK         0.1400 
     33 CB          2.4806  -18.1852  -47.0774 C.3       8 UNK        -0.1800 
     34 N           1.8175  -19.1530  -44.9404 N.am      8 UNK        -0.5000 
     35 C           1.9429  -20.4047  -44.4831 C.2       7 UNK         0.5000 
     36 O           1.6695  -21.4045  -45.1463 O.2       7 UNK        -0.5000 
     37 CA          2.4582  -20.5787  -43.0369 C.3       7 UNK         0.1400 
     38 CB          3.9210  -21.0491  -43.0416 C.3       7 UNK        -0.1800 
     39 N           2.3596  -19.3618  -42.2261 N.am      7 UNK        -0.5000 
     40 C           1.2130  -18.7944  -41.8273 C.2       6 UNK         0.5000 
     41 O           0.1056  -19.2936  -42.0256 O.2       6 UNK        -0.5000 
     42 CA          1.3146  -17.4199  -41.1342 C.3       6 UNK         0.1400 
     43 CB          1.2354  -17.5795  -39.6090 C.3       6 UNK        -0.1800 
     44 N           2.5121  -16.6413  -41.4723 N.am      6 UNK        -0.5000 
     45 C           2.8638  -16.2373  -42.7028 C.2       5 UNK         0.5000 
     46 O           2.2637  -16.5685  -43.7261 O.2       5 UNK        -0.5000 
     47 CA          4.0772  -15.2965  -42.7864 C.3       5 UNK         0.1400 
     48 CB          4.2234  -14.6239  -44.1632 C.3       5 UNK        -0.1800 
     49 N           3.9585  -14.2639  -41.7613 N.am      5 UNK        -0.5000 
     50 C           4.9404  -13.8446  -40.9534 C.2       4 UNK         0.5000 
     51 O           6.0826  -14.3047  -40.9772 O.2       4 UNK        -0.5000 
     52 CA          4.6074  -12.7157  -39.9535 C.3       4 UNK         0.1400 
     53 CB          5.2834  -11.4039  -40.3830 C.3       4 UNK        -0.1800 
     54 N           3.1721  -12.4695  -39.8023 N.am      4 UNK        -0.5000 
     55 C           2.3146  -13.2682  -39.1526 C.2       3 UNK         0.5000 
     56 O           2.6545  -14.2832  -38.5446 O.2       3 UNK        -0.5000 
     57 CA          0.8214  -12.8878  -39.2319 C.3       3 UNK         0.1400 
     58 CB          0.4071  -12.0772  -37.9946 C.3       3 UNK        -0.1800 
     59 N           0.4615  -12.1364  -40.4424 N.am      3 UNK        -0.5000 
     60 C           0.5604  -12.6140  -41.6896 C.2       2 UNK         0.5000 
     61 O           1.0004  -13.7345  -41.9559 O.2       2 UNK        -0.5000 
     62 CA          0.1476  -11.6768  -42.8309 C.3       2 UNK         0.1400 
     63 CB          1.2803  -10.6903  -43.1651 C.3       2 UNK        -0.1800 
     64 N          -0.1493  -12.4980  -43.9976 N.am      2 UNK        -0.5000 
     65 C          -0.9657  -12.1782  -45.0069 C.2       1 UNK         0.5000 
     66 O          -1.5498  -11.0963  -45.0936 O.2       1 UNK        -0.5000 
     67 C          -2.9047  -22.0042  -50.0675 C.2       11 UNK         0.5000 
     68 O          -2.5239  -23.1738  -50.1021 O.2       11 UNK        -0.5000 
     69 N          -4.1480  -21.6311  -50.3995 N.am      12 UNK        -0.5000 
     70 CA         -5.2596  -22.5631  -50.5944 C.3       12 UNK         0.1400 
     71 CB         -6.3072  -21.9232  -51.5167 C.3       12 UNK        -0.1800 
     72 C          -5.9070  -22.9976  -49.2665 C.2       12 UNK         0.5000 
     73 O          -6.3539  -24.1394  -49.1609 O.2       12 UNK        -0.5000 
     74 N          -5.9454  -22.0913  -48.2819 N.am      13 UNK        -0.5000 
     75 CA         -6.5074  -22.3246  -46.9525 C.3       13 UNK         0.1400 
     76 CB         -7.0977  -21.0115  -46.4153 C.3       13 UNK        -0.1800 
     77 C          -5.4447  -22.8724  -45.9877 C.2       13 UNK         0.5000 
     78 O          -5.7517  -23.7506  -45.1800 O.2       13 UNK        -0.5000 
     79 N          -4.2093  -22.3652  -46.1002 N.am      14 UNK        -0.5000 
     80 CA         -3.0415  -22.7903  -45.3317 C.3       14 UNK         0.1400 
     81 CB         -1.9702  -21.6864  -45.3809 C.3       14 UNK        -0.1800 
     82 C          -2.5239  -24.1536  -45.8310 C.2       14 UNK         0.5000 
     83 O          -1.5514  -24.2173  -46.5849 O.2       14 UNK        -0.5000 
     84 N          -3.2359  -25.2175  -45.4325 N.am      15 UNK        -0.5000 
     85 CA         -2.9614  -26.6419  -45.6680 C.3       15 UNK         0.1400 
     86 CB         -1.6521  -27.0536  -44.9628 C.3       15 UNK        -0.1800 
     87 C          -2.9758  -27.0756  -47.1507 C.2       15 UNK         0.5000 
     88 O          -2.5134  -28.1753  -47.4588 O.2       15 UNK        -0.5000 
     89 N          -3.4942  -26.2130  -48.0390 N.am      16 UNK        -0.5000 
     90 CA         -3.4839  -26.3357  -49.5020 C.3       16 UNK         0.1400 
     91 CB         -4.4192  -27.4712  -49.9656 C.3       16 UNK        -0.1800 
     92 C          -2.0551  -26.4476  -50.0829 C.2       16 UNK         0.5000 
     93 O          -1.8445  -27.1464  -51.0759 O.2       16 UNK        -0.5000 
     94 N          -1.0977  -25.7600  -49.4406 N.am      17 UNK        -0.5000 
     95 CA          0.3329  -25.7752  -49.7512 C.3       17 UNK         0.1400 
     96 CB          1.0743  -24.9405  -48.6958 C.3       17 UNK        -0.1800 
     97 C           0.6847  -25.2810  -51.1674 C.2       17 UNK         0.5000 
     98 O           1.6669  -25.7515  -51.7429 O.2       17 UNK        -0.5000 
     99 N          -0.1234  -24.3618  -51.7061 N.am      18 UNK        -0.5000 
    100 CA        -0.0085  -23.8327  -53.0618 C.3       18 UNK         0.1400 
    101 CB         1.1435  -22.8113  -53.1722 C.3       18 UNK        -0.1800 
    102 C         -1.3731  -23.2618  -53.4608 C.2       18 UNK         0.5000 
    103 O         -1.5127  -22.0544  -53.6562 O.2       18 UNK        -0.5000 
    104 N         -2.3772  -24.1472  -53.5173 N.am      19 UNK        -0.5000 
    105 CA        -3.7667  -23.7984  -53.8187 C.3       19 UNK         0.1400 
    106 CB        -4.6677  -25.0096  -53.5359 C.3       19 UNK        -0.1800 
    107 C         -3.9797  -23.2801  -55.2517 C.2       19 UNK         0.5000 
    108 O         -4.8437  -22.4273  -55.4667 O.2       19 UNK        -0.5000 
    109 N         -3.1590  -23.7614  -56.1960 N.am      20 UNK        -0.5000 
    110 CA        -3.1163  -23.3491  -57.6018 C.3       20 UNK         0.1400 
    111 CB        -2.4065  -24.4473  -58.4141 C.3       20 UNK        -0.1800 
    112 C         -2.4678  -21.9574  -57.7844 C.2       20 UNK         0.5000 
    113 O         -1.4979  -21.8088  -58.5302 O.2       20 UNK        -0.5000 
    114 N         -3.0165  -20.9665  -57.0785 N.am      21 UNK        -0.5000 
    115 CA        -2.5868  -19.5723  -57.0603 C.3       21 UNK         0.1400 
    116 CB        -1.3884  -19.3932  -56.1105 C.3       21 UNK        -0.1800 
    117 C         -3.7482  -18.6578  -56.6472 C.2       21 UNK         0.5000 
    118 O         -3.8851  -17.5693  -57.2063 O.2       21 UNK        -0.5000 
    119 N         -4.5647  -19.1082  -55.6829 N.am      22 UNK        -0.5000 
    120 CA        -5.7042  -18.3471  -55.1404 C.3       22 UNK         0.1400 
    121 C         -6.9970  -18.4169  -56.0064 C.2       22 UNK         0.5000 
    122 N         -7.0619  -19.2382  -57.0472 N.am      22 UNK        -0.7600 
    123 O         -7.9580  -17.7026  -55.7341 O.2       22 UNK        -0.5000 
    124 C124       -6.0077  -18.7316  -53.6663 C.3       23 UNK        -0.0398 
    125 S125       -4.5951  -18.6805  -52.4999 S.3       23 UNK        -0.2404 
    126 C126       -3.6739  -17.1959  -53.0201 C.3       23 UNK        -0.0205 
    127 H127        3.3096  -13.8418  -47.1182 H         1 UNK         0.0600 
    128 H128        2.2746  -14.7216  -48.2529 H         1 UNK         0.0600 
    129 H129        2.3426  -15.2028  -46.5520 H         1 UNK         0.0600 
    130 H130        0.0617  -14.9789  -46.3530 H         1 UNK         0.3000 
    131 H131       -1.7908  -14.0134  -45.5896 H         1 UNK         0.0600 
    132 H132       -2.8364  -12.2321  -47.0405 H         1 UNK         0.0800 
    133 H133       -1.3447  -12.1076  -47.9373 H         1 UNK         0.0800 
    134 H134       -0.3082  -14.0534  -49.2954 H         1 UNK         0.0800 
    135 H135       -1.5095  -13.3549  -50.3524 H         1 UNK         0.0800 
    136 H136       -3.2656  -15.0397  -51.3888 H         1 UNK         0.1150 
    137 H137       -1.4489  -18.7046  -52.6642 H         1 UNK         0.1150 
    138 H138        0.5153  -16.2344  -49.7590 H         1 UNK         0.1150 
    139 H139        0.9338  -19.0676  -52.1122 H         1 UNK         0.0800 
    140 H140        1.7512  -18.0064  -50.9977 H         1 UNK         0.0800 
    141 H141       -0.2023  -21.8854  -50.5195 H         1 UNK         0.0800 
    142 H142       -0.8960  -20.6208  -51.5015 H         1 UNK         0.0800 
    143 H143       -1.5844  -21.2602  -48.6096 H         1 UNK         0.0600 
    144 H144       -2.0242  -18.8361  -49.9022 H         1 UNK         0.3000 
    145 H145       -3.2307  -17.2184  -49.0706 H         1 UNK         0.0600 
    146 H146       -5.6442  -17.6616  -49.0560 H         1 UNK         0.0600 
    147 H147       -5.6363  -17.9695  -47.3277 H         1 UNK         0.0600 
    148 H148       -5.2745  -16.3558  -47.9395 H         1 UNK         0.0600 
    149 H149       -2.0184  -16.8387  -47.2656 H         1 UNK         0.3000 
    150 H150       -1.7320  -16.1752  -44.9820 H         1 UNK         0.0600 
    151 H151       -3.2355  -16.8609  -43.1033 H         1 UNK         0.0600 
    152 H152       -1.5385  -16.9699  -42.6751 H         1 UNK         0.0600 
    153 H153       -2.4465  -18.4340  -43.0498 H         1 UNK         0.0600 
    154 H154       -0.5027  -18.7582  -44.4417 H         1 UNK         0.3000 
    155 H155        0.9095  -19.6206  -46.7823 H         1 UNK         0.0600 
    156 H156        2.9960  -17.3883  -46.5424 H         1 UNK         0.0600 
    157 H157        2.1401  -17.7820  -48.0318 H         1 UNK         0.0600 
    158 H158        3.2135  -18.9607  -47.2995 H         1 UNK         0.0600 
    159 H159        2.0391  -18.3750  -44.3238 H         1 UNK         0.3000 
    160 H160        1.8495  -21.3525  -42.5646 H         1 UNK         0.0600 
    161 H161        4.5803  -20.3068  -43.4933 H         1 UNK         0.0600 
    162 H162        4.0324  -21.9748  -43.6079 H         1 UNK         0.0600 
    163 H163        4.2766  -21.2447  -42.0297 H         1 UNK         0.0600 
    164 H164        3.2235  -18.8823  -42.0205 H         1 UNK         0.3000 
    165 H165        0.4540  -16.8320  -41.4567 H         1 UNK         0.0600 
    166 H166        1.1828  -16.6100  -39.1134 H         1 UNK         0.0600 
    167 H167        0.3445  -18.1383  -39.3189 H         1 UNK         0.0600 
    168 H168        2.1015  -18.1127  -39.2152 H         1 UNK         0.0600 
    169 H169        3.0567  -16.3038  -40.6915 H         1 UNK         0.3000 
    170 H170        4.9597  -15.9136  -42.6073 H         1 UNK         0.0600 
    171 H171        4.3367  -15.3665  -44.9538 H         1 UNK         0.0600 
    172 H172        3.3518  -14.0127  -44.4009 H         1 UNK         0.0600 
    173 H173        5.1021  -13.9798  -44.1956 H         1 UNK         0.0600 
    174 H174        3.0264  -13.8775  -41.6525 H         1 UNK         0.3000 
    175 H175        5.0126  -13.0088  -38.9827 H         1 UNK         0.0600 
    176 H176        5.1103  -10.6129  -39.6530 H         1 UNK         0.0600 
    177 H177        4.9127  -11.0581  -41.3489 H         1 UNK         0.0600 
    178 H178        6.3633  -11.5299  -40.4720 H         1 UNK         0.0600 
    179 H179        2.8023  -11.6551  -40.2696 H         1 UNK         0.3000 
    180 H180        0.2510  -13.8191  -39.2370 H         1 UNK         0.0600 
    181 H181       -0.6651  -11.8801  -37.9925 H         1 UNK         0.0600 
    182 H182        0.9261  -11.1190  -37.9488 H         1 UNK         0.0600 
    183 H183        0.6376  -12.6197  -37.0767 H         1 UNK         0.0600 
    184 H184        0.1026  -11.2028  -40.3006 H         1 UNK         0.3000 
    185 H185       -0.7480  -11.1304  -42.5281 H         1 UNK         0.0600 
    186 H186        0.9967  -10.0252  -43.9810 H         1 UNK         0.0600 
    187 H187        1.5238  -10.0633  -42.3067 H         1 UNK         0.0600 
    188 H188        2.1911  -11.2120  -43.4628 H         1 UNK         0.0600 
    189 H189        0.2753  -13.4173  -43.9693 H         1 UNK         0.3000 
    190 H190       -4.3703  -20.6463  -50.3895 H         1 UNK         0.3000 
    191 H191       -4.8905  -23.4682  -51.0759 H         1 UNK         0.0600 
    192 H192       -7.1542  -22.5928  -51.6714 H         1 UNK         0.0600 
    193 H193       -5.8864  -21.7060  -52.4973 H         1 UNK         0.0600 
    194 H194       -6.6944  -20.9911  -51.1032 H         1 UNK         0.0600 
    195 H195       -5.4566  -21.2107  -48.4020 H         1 UNK         0.3000 
    196 H196       -7.3155  -23.0562  -47.0187 H         1 UNK         0.0600 
    197 H197       -6.3349  -20.2392  -46.3056 H         1 UNK         0.0600 
    198 H198       -7.8709  -20.6260  -47.0799 H         1 UNK         0.0600 
    199 H199       -7.5544  -21.1616  -45.4363 H         1 UNK         0.0600 
    200 H200       -4.0627  -21.6062  -46.7623 H         1 UNK         0.3000 
    201 H201       -3.3368  -22.9077  -44.2869 H         1 UNK         0.0600 
    202 H202       -2.3540  -20.7477  -44.9810 H         1 UNK         0.0600 
    203 H203       -1.6224  -21.4978  -46.3945 H         1 UNK         0.0600 
    204 H204       -1.1004  -21.9630  -44.7842 H         1 UNK         0.0600 
    205 H205       -4.0870  -25.0229  -44.9155 H         1 UNK         0.3000 
    206 H206       -3.7777  -27.1866  -45.1916 H         1 UNK         0.0600 
    207 H207       -1.6598  -26.7603  -43.9131 H         1 UNK         0.0600 
    208 H208       -1.5106  -28.1346  -44.9930 H         1 UNK         0.0600 
    209 H209       -0.7801  -26.5974  -45.4327 H         1 UNK         0.0600 
    210 H210       -3.8437  -25.3374  -47.6780 H         1 UNK         0.3000 
    211 H211       -3.8943  -25.4042  -49.8893 H         1 UNK         0.0600 
    212 H212       -4.5137  -27.4821  -51.0519 H         1 UNK         0.0600 
    213 H213       -5.4215  -27.3448  -49.5563 H         1 UNK         0.0600 
    214 H214       -4.0516  -28.4512  -49.6604 H         1 UNK         0.0600 
    215 H215       -1.3718  -25.1963  -48.6443 H         1 UNK         0.3000 
    216 H216        0.6731  -26.8095  -49.6722 H         1 UNK         0.0600 
    217 H217        0.7371  -23.9028  -48.6961 H         1 UNK         0.0600 
    218 H218        2.1495  -24.9384  -48.8793 H         1 UNK         0.0600 
    219 H219        0.9163  -25.3411  -47.6941 H         1 UNK         0.0600 
    220 H220       -0.9322  -24.0563  -51.1723 H         1 UNK         0.3000 
    221 H221        0.2025  -24.6570  -53.7462 H         1 UNK         0.0600 
    222 H222        2.1051  -23.2694  -52.9420 H         1 UNK         0.0600 
    223 H223        1.0113  -21.9640  -52.5018 H         1 UNK         0.0600 
    224 H224        1.2117  -22.4148  -54.1859 H         1 UNK         0.0600 
    225 H225       -2.1842  -25.1183  -53.3147 H         1 UNK         0.3000 
    226 H226       -4.0469  -22.9865  -53.1488 H         1 UNK         0.0600 
    227 H227       -4.4372  -25.8452  -54.1978 H         1 UNK         0.0600 
    228 H228       -4.5556  -25.3580  -52.5094 H         1 UNK         0.0600 
    229 H229       -5.7186  -24.7553  -53.6800 H         1 UNK         0.0600 
    230 H230       -2.4590  -24.4295  -55.9100 H         1 UNK         0.3000 
    231 H231       -4.1414  -23.2748  -57.9708 H         1 UNK         0.0600 
    232 H232       -1.3719  -24.5796  -58.0948 H         1 UNK         0.0600 
    233 H233       -2.3949  -24.2032  -59.4771 H         1 UNK         0.0600 
    234 H234       -2.9151  -25.4059  -58.3097 H         1 UNK         0.0600 
    235 H235       -3.8162  -21.2088  -56.5019 H         1 UNK         0.3000 
    236 H236       -2.2845  -19.2833  -58.0691 H         1 UNK         0.0600 
    237 H237       -1.6383  -19.6878  -55.0905 H         1 UNK         0.0600 
    238 H238       -0.5350  -19.9914  -56.4297 H         1 UNK         0.0600 
    239 H239       -1.0639  -18.3523  -56.0815 H         1 UNK         0.0600 
    240 H240       -4.3858  -19.9992  -55.2434 H         1 UNK         0.3000 
    241 H241       -5.4316  -17.2906  -55.1454 H         1 UNK         0.0600 
    242 H242       -7.9022  -19.2705  -57.6031 H         1 UNK         0.3800 
    243 H243       -6.2833  -19.8329  -57.2796 H         1 UNK         0.3800 
    244 H244       -6.4299  -19.7362  -53.6298 H         1 UNK         0.0800 
    245 H245       -6.7783  -18.0729  -53.2621 H         1 UNK         0.0800 
    246 H246       -3.2899  -17.3236  -54.0314 H         1 UNK         0.0800 
    247 H247       -4.3536  -16.3428  -53.0451 H         1 UNK         0.0800 
@<TRIPOS>BOND
     1    1    2 1    
     2    1  127 1    
     3    1  128 1    
     4    1  129 1    
     5    2    3 2    
     6    2    4 am   BACKBONE|DICT|INTERRES
     7    4    5 1    
     8    4  130 1    
     9    5    6 1    
    10    5   65 1    
    11    5  131 1    
    12    6    7 1    
    13    6  132 1    
    14    6  133 1    
    15    7    8 1    
    16    8    9 1    
    17    8  134 1    
    18    8  135 1    
    19    9   10 ar   
    20    9   14 ar   
    21   10   11 ar   
    22   10  136 1    
    23   11   12 ar   
    24   11  126 1    
    25   12   13 ar   
    26   12  137 1    
    27   13   14 ar   
    28   13   15 1    
    29   14  138 1    
    30   15   16 1    
    31   15  139 1    
    32   15  140 1    
    33   16   17 1    
    34   17   18 1    
    35   17  141 1    
    36   17  142 1    
    37   18   19 1    
    38   18   67 1    
    39   18  143 1    
    40   19   20 am   BACKBONE|DICT|INTERRES
    41   19  144 1    
    42   20   21 2    
    43   20   22 1    
    44   22   23 1    
    45   22   24 1    
    46   22  145 1    
    47   23  146 1    
    48   23  147 1    
    49   23  148 1    
    50   24   25 am   BACKBONE|DICT|INTERRES
    51   24  149 1    
    52   25   26 2    
    53   25   27 1    
    54   27   28 1    
    55   27   29 1    
    56   27  150 1    
    57   28  151 1    
    58   28  152 1    
    59   28  153 1    
    60   29   30 am   BACKBONE|DICT|INTERRES
    61   29  154 1    
    62   30   31 2    
    63   30   32 1    
    64   32   33 1    
    65   32   34 1    
    66   32  155 1    
    67   33  156 1    
    68   33  157 1    
    69   33  158 1    
    70   34   35 am   BACKBONE|DICT|INTERRES
    71   34  159 1    
    72   35   36 2    
    73   35   37 1    
    74   37   38 1    
    75   37   39 1    
    76   37  160 1    
    77   38  161 1    
    78   38  162 1    
    79   38  163 1    
    80   39   40 am   BACKBONE|DICT|INTERRES
    81   39  164 1    
    82   40   41 2    
    83   40   42 1    
    84   42   43 1    
    85   42   44 1    
    86   42  165 1    
    87   43  166 1    
    88   43  167 1    
    89   43  168 1    
    90   44   45 am   BACKBONE|DICT|INTERRES
    91   44  169 1    
    92   45   46 2    
    93   45   47 1    
    94   47   48 1    
    95   47   49 1    
    96   47  170 1    
    97   48  171 1    
    98   48  172 1    
    99   48  173 1    
   100   49   50 am   BACKBONE|DICT|INTERRES
   101   49  174 1    
   102   50   51 2    
   103   50   52 1    
   104   52   53 1    
   105   52   54 1    
   106   52  175 1    
   107   53  176 1    
   108   53  177 1    
   109   53  178 1    
   110   54   55 am   BACKBONE|DICT|INTERRES
   111   54  179 1    
   112   55   56 2    
   113   55   57 1    
   114   57   58 1    
   115   57   59 1    
   116   57  180 1    
   117   58  181 1    
   118   58  182 1    
   119   58  183 1    
   120   59   60 am   BACKBONE|DICT|INTERRES
   121   59  184 1    
   122   60   61 2    
   123   60   62 1    
   124   62   63 1    
   125   62   64 1    
   126   62  185 1    
   127   63  186 1    
   128   63  187 1    
   129   63  188 1    
   130   64   65 am   BACKBONE|DICT|INTERRES
   131   64  189 1    
   132   65   66 2    
   133   67   68 2    
   134   67   69 am   BACKBONE|DICT|INTERRES
   135   69   70 1    
   136   69  190 1    
   137   70   71 1    
   138   70   72 1    
   139   70  191 1    
   140   71  192 1    
   141   71  193 1    
   142   71  194 1    
   143   72   73 2    
   144   72   74 am   BACKBONE|DICT|INTERRES
   145   74   75 1    
   146   74  195 1    
   147   75   76 1    
   148   75   77 1    
   149   75  196 1    
   150   76  197 1    
   151   76  198 1    
   152   76  199 1    
   153   77   78 2    
   154   77   79 am   BACKBONE|DICT|INTERRES
   155   79   80 1    
   156   79  200 1    
   157   80   81 1    
   158   80   82 1    
   159   80  201 1    
   160   81  202 1    
   161   81  203 1    
   162   81  204 1    
   163   82   83 2    
   164   82   84 am   BACKBONE|DICT|INTERRES
   165   84   85 1    
   166   84  205 1    
   167   85   86 1    
   168   85   87 1    
   169   85  206 1    
   170   86  207 1    
   171   86  208 1    
   172   86  209 1    
   173   87   88 2    
   174   87   89 am   BACKBONE|DICT|INTERRES
   175   89   90 1    
   176   89  210 1    
   177   90   91 1    
   178   90   92 1    
   179   90  211 1    
   180   91  212 1    
   181   91  213 1    
   182   91  214 1    
   183   92   93 2    
   184   92   94 am   BACKBONE|DICT|INTERRES
   185   94   95 1    
   186   94  215 1    
   187   95   96 1    
   188   95   97 1    
   189   95  216 1    
   190   96  217 1    
   191   96  218 1    
   192   96  219 1    
   193   97   98 2    
   194   97   99 am   BACKBONE|DICT|INTERRES
   195   99  100 1    
   196   99  220 1    
   197  100  101 1    
   198  100  102 1    
   199  100  221 1    
   200  101  222 1    
   201  101  223 1    
   202  101  224 1    
   203  102  103 2    
   204  102  104 am   BACKBONE|DICT|INTERRES
   205  104  105 1    
   206  104  225 1    
   207  105  106 1    
   208  105  107 1    
   209  105  226 1    
   210  106  227 1    
   211  106  228 1    
   212  106  229 1    
   213  107  108 2    
   214  107  109 am   BACKBONE|DICT|INTERRES
   215  109  110 1    
   216  109  230 1    
   217  110  111 1    
   218  110  112 1    
   219  110  231 1    
   220  111  232 1    
   221  111  233 1    
   222  111  234 1    
   223  112  113 2    
   224  112  114 am   BACKBONE|DICT|INTERRES
   225  114  115 1    
   226  114  235 1    
   227  115  116 1    
   228  115  117 1    
   229  115  236 1    
   230  116  237 1    
   231  116  238 1    
   232  116  239 1    
   233  117  118 2    
   234  117  119 am   BACKBONE|DICT|INTERRES
   235  119  120 1    
   236  119  240 1    
   237  120  121 1    
   238  120  124 1    
   239  120  241 1    
   240  121  122 am   BACKBONE|DICT|INTERRES
   241  121  123 2    
   242  122  242 1    
   243  122  243 1    
   244  124  125 1    
   245  124  244 1    
   246  124  245 1    
   247  125  126 1    
   248  126  246 1    
   249  126  247 1    
@<TRIPOS>SUBSTRUCTURE
     1 UNK         1 GROUP             0       ****    0 ROOT    
