@<TRIPOS>MOLECULE
3R540
247   249    1
SMALL
USER_CHARGES


@<TRIPOS>ATOM
      1 CA          4.4169  -13.2072  -51.9144 C.3       0 UNK        -0.1800 
      2 C           4.1757  -14.0726  -50.6850 C.2       0 UNK         0.5000 
      3 O           3.5424  -13.6082  -49.7375 O.2       0 UNK        -0.5000 
      4 N           4.6824  -15.3147  -50.7170 N.am      1 UNK        -0.5000 
      5 CA          4.6030  -16.3613  -49.6858 C.3       1 UNK         0.1400 
      6 C6          3.3109  -17.2269  -49.7687 C.3       23 UNK        -0.0398 
      7 S7          1.7392  -16.3688  -49.3982 S.3       23 UNK        -0.2404 
      8 C8          0.8969  -16.4277  -51.0179 C.3       23 UNK        -0.0205 
      9 C9          0.4646  -17.8153  -51.5019 C.ar      23 UNK        -0.0193 
     10 C10         0.0533  -17.9490  -52.8319 C.ar      23 UNK        -0.1150 
     11 C11        -0.3202  -19.1936  -53.3457 C.ar      23 UNK        -0.0193 
     12 C12        -0.2647  -20.3198  -52.5238 C.ar      23 UNK        -0.1150 
     13 C13         0.1403  -20.2105  -51.1924 C.ar      23 UNK        -0.0193 
     14 C14         0.4752  -18.9526  -50.6804 C.ar      23 UNK        -0.1150 
     15 C15         0.2188  -21.4605  -50.3262 C.3       23 UNK        -0.0205 
     16 S16         1.8604  -21.6784  -49.5560 S.3       23 UNK        -0.2404 
     17 C17         1.4899  -21.2551  -47.8198 C.3       23 UNK        -0.0398 
     18 CA          1.3480  -22.4959  -46.9033 C.3       11 UNK         0.1400 
     19 N           1.2663  -22.1183  -45.4907 N.am      11 UNK        -0.5000 
     20 C           1.3740  -22.9703  -44.4614 C.2       10 UNK         0.5000 
     21 O           1.6091  -24.1716  -44.5878 O.2       10 UNK        -0.5000 
     22 CA          1.1275  -22.3850  -43.0584 C.3       10 UNK         0.1400 
     23 CB          2.3724  -21.6403  -42.5526 C.3       10 UNK        -0.1800 
     24 N          -0.0254  -21.4830  -43.0237 N.am      10 UNK        -0.5000 
     25 C          -1.2936  -21.8676  -43.2273 C.2       9 UNK         0.5000 
     26 O          -1.6293  -23.0369  -43.4137 O.2       9 UNK        -0.5000 
     27 CA         -2.3605  -20.7549  -43.2759 C.3       9 UNK         0.1400 
     28 CB         -2.8826  -20.4485  -41.8646 C.3       9 UNK        -0.1800 
     29 N          -1.9090  -19.5073  -43.8998 N.am      9 UNK        -0.5000 
     30 C          -1.3741  -19.3917  -45.1237 C.2       8 UNK         0.5000 
     31 O          -1.1576  -20.3454  -45.8708 O.2       8 UNK        -0.5000 
     32 CA         -1.0339  -17.9614  -45.5707 C.3       8 UNK         0.1400 
     33 CB         -0.4105  -17.8894  -46.9755 C.3       8 UNK        -0.1800 
     34 N          -2.1886  -17.0695  -45.4534 N.am      8 UNK        -0.5000 
     35 C          -3.3678  -17.1862  -46.0818 C.2       7 UNK         0.5000 
     36 O          -3.5912  -18.0226  -46.9575 O.2       7 UNK        -0.5000 
     37 CA         -4.4759  -16.1775  -45.7130 C.3       7 UNK         0.1400 
     38 CB         -5.8667  -16.8415  -45.6446 C.3       7 UNK        -0.1800 
     39 N          -4.2022  -15.3900  -44.5050 N.am      7 UNK        -0.5000 
     40 C          -4.1153  -15.8177  -43.2346 C.2       6 UNK         0.5000 
     41 O          -4.2613  -16.9941  -42.9008 O.2       6 UNK        -0.5000 
     42 CA         -3.7666  -14.7553  -42.1698 C.3       6 UNK         0.1400 
     43 CB         -2.9368  -15.3484  -41.0165 C.3       6 UNK        -0.1800 
     44 N          -3.0119  -13.6538  -42.7681 N.am      6 UNK        -0.5000 
     45 C          -3.4808  -12.4284  -43.0389 C.2       5 UNK         0.5000 
     46 O          -4.6090  -12.0448  -42.7300 O.2       5 UNK        -0.5000 
     47 CA         -2.5438  -11.4772  -43.8154 C.3       5 UNK         0.1400 
     48 CB         -1.8399  -10.5124  -42.8492 C.3       5 UNK        -0.1800 
     49 N          -1.5290  -12.1736  -44.6128 N.am      5 UNK        -0.5000 
     50 C          -1.7814  -12.9615  -45.6682 C.2       4 UNK         0.5000 
     51 O          -2.9072  -13.1335  -46.1352 O.2       4 UNK        -0.5000 
     52 CA         -0.5910  -13.7451  -46.2565 C.3       4 UNK         0.1400 
     53 CB          0.0044  -13.0103  -47.4658 C.3       4 UNK        -0.1800 
     54 N           0.4786  -14.0396  -45.2949 N.am      4 UNK        -0.5000 
     55 C           0.3388  -14.7531  -44.1673 C.2       3 UNK         0.5000 
     56 O          -0.7498  -15.1711  -43.7681 O.2       3 UNK        -0.5000 
     57 CA          1.6189  -15.0321  -43.3490 C.3       3 UNK         0.1400 
     58 CB          1.4788  -16.2690  -42.4356 C.3       3 UNK        -0.1800 
     59 N           2.8372  -15.1216  -44.1671 N.am      3 UNK        -0.5000 
     60 C           3.0877  -16.0085  -45.1409 C.2       2 UNK         0.5000 
     61 O           2.3108  -16.9014  -45.4862 O.2       2 UNK        -0.5000 
     62 CA          4.4424  -15.8804  -45.8465 C.3       2 UNK         0.1400 
     63 CB          5.5004  -16.7748  -45.1776 C.3       2 UNK        -0.1800 
     64 N           4.2592  -16.2725  -47.2373 N.am      2 UNK        -0.5000 
     65 C           5.0080  -15.8747  -48.2704 C.2       1 UNK         0.5000 
     66 O           6.0155  -15.1737  -48.1422 O.2       1 UNK        -0.5000 
     67 C           0.1489  -23.3807  -47.2989 C.2       11 UNK         0.5000 
     68 O           0.3480  -24.4235  -47.9194 O.2       11 UNK        -0.5000 
     69 N          -1.0598  -22.9755  -46.8845 N.am      12 UNK        -0.5000 
     70 CA         -2.3132  -23.6934  -47.1153 C.3       12 UNK         0.1400 
     71 CB         -3.4798  -22.8813  -46.5342 C.3       12 UNK        -0.1800 
     72 C          -2.3067  -25.1227  -46.5426 C.2       12 UNK         0.5000 
     73 O          -2.8007  -26.0413  -47.1952 O.2       12 UNK        -0.5000 
     74 N          -1.7187  -25.2933  -45.3515 N.am      13 UNK        -0.5000 
     75 CA         -1.5143  -26.5928  -44.7171 C.3       13 UNK         0.1400 
     76 CB         -1.1448  -26.3840  -43.2404 C.3       13 UNK        -0.1800 
     77 C          -0.4456  -27.4430  -45.4305 C.2       13 UNK         0.5000 
     78 O          -0.6572  -28.6406  -45.6251 O.2       13 UNK        -0.5000 
     79 N           0.6874  -26.8213  -45.7834 N.am      14 UNK        -0.5000 
     80 CA          1.8595  -27.5054  -46.3289 C.3       14 UNK         0.1400 
     81 CB          3.1041  -26.6341  -46.0978 C.3       14 UNK        -0.1800 
     82 C           1.7432  -27.8727  -47.8188 C.2       14 UNK         0.5000 
     83 O           2.1625  -28.9670  -48.1992 O.2       14 UNK        -0.5000 
     84 N           1.2327  -26.9458  -48.6379 N.am      15 UNK        -0.5000 
     85 CA          1.3382  -26.9809  -50.0994 C.3       15 UNK         0.1400 
     86 CB          2.3209  -25.8772  -50.5320 C.3       15 UNK        -0.1800 
     87 C          -0.0139  -26.8251  -50.8190 C.2       15 UNK         0.5000 
     88 O          -0.0209  -26.7510  -52.0493 O.2       15 UNK        -0.5000 
     89 N          -1.1215  -26.7848  -50.0632 N.am      16 UNK        -0.5000 
     90 CA         -2.4911  -26.5018  -50.5155 C.3       16 UNK         0.1400 
     91 CB         -2.9634  -27.5238  -51.5744 C.3       16 UNK        -0.1800 
     92 C          -2.6730  -25.0354  -50.9690 C.2       16 UNK         0.5000 
     93 O          -1.7663  -24.2170  -50.8044 O.2       16 UNK        -0.5000 
     94 N          -3.8672  -24.7190  -51.4919 N.am      17 UNK        -0.5000 
     95 CA         -4.3385  -23.3723  -51.8420 C.3       17 UNK         0.1400 
     96 CB         -3.5441  -22.7976  -53.0376 C.3       17 UNK        -0.1800 
     97 C          -4.3831  -22.4449  -50.6055 C.2       17 UNK         0.5000 
     98 O          -4.6913  -22.9237  -49.5133 O.2       17 UNK        -0.5000 
     99 N          -4.1058  -21.1515  -50.7970 N.am      18 UNK        -0.5000 
    100 CA        -4.0799  -20.0875  -49.7966 C.3       18 UNK         0.1400 
    101 CB        -5.4584  -19.9274  -49.1176 C.3       18 UNK        -0.1800 
    102 C         -3.7164  -18.7879  -50.5245 C.2       18 UNK         0.5000 
    103 O         -3.9465  -18.6845  -51.7330 O.2       18 UNK        -0.5000 
    104 N         -3.2497  -17.7804  -49.7776 N.am      19 UNK        -0.5000 
    105 CA        -3.0457  -16.4240  -50.2987 C.3       19 UNK         0.1400 
    106 CB        -2.2943  -15.5670  -49.2707 C.3       19 UNK        -0.1800 
    107 C         -4.3772  -15.7530  -50.6823 C.2       19 UNK         0.5000 
    108 O         -4.4303  -15.0144  -51.6643 O.2       19 UNK        -0.5000 
    109 N         -5.4401  -16.0722  -49.9300 N.am      20 UNK        -0.5000 
    110 CA        -6.8131  -15.6445  -50.1978 C.3       20 UNK         0.1400 
    111 CB        -7.6768  -15.9530  -48.9652 C.3       20 UNK        -0.1800 
    112 C         -7.4177  -16.2942  -51.4593 C.2       20 UNK         0.5000 
    113 O         -8.3066  -15.7017  -52.0718 O.2       20 UNK        -0.5000 
    114 N         -6.9307  -17.4888  -51.8254 N.am      21 UNK        -0.5000 
    115 CA        -7.3208  -18.1986  -53.0420 C.3       21 UNK         0.1400 
    116 CB        -7.1149  -19.7110  -52.8522 C.3       21 UNK        -0.1800 
    117 C         -6.5366  -17.6809  -54.2590 C.2       21 UNK         0.5000 
    118 O         -7.1397  -17.4132  -55.2992 O.2       21 UNK        -0.5000 
    119 N         -5.2129  -17.5474  -54.1054 N.am      22 UNK        -0.5000 
    120 CA        -4.3021  -17.0567  -55.1507 C.3       22 UNK         0.1400 
    121 C         -4.4203  -15.5342  -55.4433 C.2       22 UNK         0.5000 
    122 N         -4.7558  -14.6917  -54.4752 N.am      22 UNK        -0.7600 
    123 O         -4.2101  -15.1099  -56.5764 O.2       22 UNK        -0.5000 
    124 C124       -2.8347  -17.4450  -54.8531 C.3       23 UNK        -0.0398 
    125 S125       -2.5727  -19.2473  -54.9500 S.3       23 UNK        -0.2404 
    126 C126       -0.7630  -19.3367  -54.7929 C.3       23 UNK        -0.0205 
    127 H127        4.9785  -13.7385  -52.6831 H         1 UNK         0.0600 
    128 H128        4.9777  -12.3139  -51.6401 H         1 UNK         0.0600 
    129 H129        3.4654  -12.8949  -52.3446 H         1 UNK         0.0600 
    130 H130        5.2130  -15.5818  -51.5338 H         1 UNK         0.3000 
    131 H131        5.4142  -17.0410  -49.9511 H         1 UNK         0.0600 
    132 H132        3.2468  -17.6583  -50.7683 H         1 UNK         0.0800 
    133 H133        3.3889  -18.0892  -49.1046 H         1 UNK         0.0800 
    134 H134        0.0187  -15.7849  -50.9737 H         1 UNK         0.0800 
    135 H135        1.5612  -15.9798  -51.7586 H         1 UNK         0.0800 
    136 H136        0.0299  -17.0797  -53.4741 H         1 UNK         0.1150 
    137 H137       -0.5337  -21.2854  -52.9274 H         1 UNK         0.1150 
    138 H138        0.7747  -18.8797  -49.6463 H         1 UNK         0.1150 
    139 H139       -0.5762  -21.4363  -49.5800 H         1 UNK         0.0800 
    140 H140        0.0300  -22.3470  -50.9323 H         1 UNK         0.0800 
    141 H141        2.3060  -20.6269  -47.4606 H         1 UNK         0.0800 
    142 H142        0.5964  -20.6336  -47.7765 H         1 UNK         0.0800 
    143 H143        2.2503  -23.1003  -47.0215 H         1 UNK         0.0600 
    144 H144        0.9851  -21.1680  -45.2986 H         1 UNK         0.3000 
    145 H145        0.9279  -23.2179  -42.3806 H         1 UNK         0.0600 
    146 H146        2.2344  -21.2928  -41.5286 H         1 UNK         0.0600 
    147 H147        3.2460  -22.2936  -42.5578 H         1 UNK         0.0600 
    148 H148        2.6065  -20.7738  -43.1724 H         1 UNK         0.0600 
    149 H149        0.1619  -20.5029  -42.8739 H         1 UNK         0.3000 
    150 H150       -3.1965  -21.1252  -43.8705 H         1 UNK         0.0600 
    151 H151       -3.2532  -21.3525  -41.3796 H         1 UNK         0.0600 
    152 H152       -3.7076  -19.7361  -41.8957 H         1 UNK         0.0600 
    153 H153       -2.1020  -20.0296  -41.2283 H         1 UNK         0.0600 
    154 H154       -2.0968  -18.6607  -43.3813 H         1 UNK         0.3000 
    155 H155       -0.2850  -17.5985  -44.8680 H         1 UNK         0.0600 
    156 H156       -0.1638  -16.8603  -47.2270 H         1 UNK         0.0600 
    157 H157       -1.0669  -18.2880  -47.7488 H         1 UNK         0.0600 
    158 H158        0.5232  -18.4492  -47.0120 H         1 UNK         0.0600 
    159 H159       -2.0828  -16.3327  -44.7647 H         1 UNK         0.3000 
    160 H160       -4.5036  -15.4575  -46.5315 H         1 UNK         0.0600 
    161 H161       -5.9051  -17.6276  -44.8904 H         1 UNK         0.0600 
    162 H162       -6.1319  -17.2982  -46.5984 H         1 UNK         0.0600 
    163 H163       -6.6415  -16.1116  -45.4104 H         1 UNK         0.0600 
    164 H164       -4.0157  -14.4102  -44.6795 H         1 UNK         0.3000 
    165 H165       -4.7103  -14.3927  -41.7582 H         1 UNK         0.0600 
    166 H166       -2.0071  -15.7909  -41.3759 H         1 UNK         0.0600 
    167 H167       -2.6817  -14.5843  -40.2822 H         1 UNK         0.0600 
    168 H168       -3.4912  -16.1275  -40.4919 H         1 UNK         0.0600 
    169 H169       -2.0854  -13.9064  -43.0978 H         1 UNK         0.3000 
    170 H170       -3.1634  -10.8905  -44.4968 H         1 UNK         0.0600 
    171 H171       -2.5658   -9.9527  -42.2577 H         1 UNK         0.0600 
    172 H172       -1.1892  -11.0435  -42.1533 H         1 UNK         0.0600 
    173 H173       -1.2336   -9.7849  -43.3892 H         1 UNK         0.0600 
    174 H174       -0.5735  -12.0942  -44.2973 H         1 UNK         0.3000 
    175 H175       -0.9842  -14.7005  -46.6065 H         1 UNK         0.0600 
    176 H176        0.4575  -12.0613  -47.1773 H         1 UNK         0.0600 
    177 H177        0.7692  -13.6136  -47.9563 H         1 UNK         0.0600 
    178 H178       -0.7632  -12.7961  -48.2106 H         1 UNK         0.0600 
    179 H179        1.4057  -13.7325  -45.5491 H         1 UNK         0.3000 
    180 H180        1.7500  -14.1638  -42.7021 H         1 UNK         0.0600 
    181 H181        1.2889  -17.1783  -43.0059 H         1 UNK         0.0600 
    182 H182        0.6539  -16.1472  -41.7326 H         1 UNK         0.0600 
    183 H183        2.3822  -16.4271  -41.8468 H         1 UNK         0.0600 
    184 H184        3.5450  -14.4304  -43.9592 H         1 UNK         0.3000 
    185 H185        4.7633  -14.8374  -45.8049 H         1 UNK         0.0600 
    186 H186        6.4705  -16.6738  -45.6644 H         1 UNK         0.0600 
    187 H187        5.6339  -16.5052  -44.1293 H         1 UNK         0.0600 
    188 H188        5.2156  -17.8272  -45.2134 H         1 UNK         0.0600 
    189 H189        3.4070  -16.7951  -47.4042 H         1 UNK         0.3000 
    190 H190       -1.1297  -22.0824  -46.4004 H         1 UNK         0.3000 
    191 H191       -2.4490  -23.7662  -48.1948 H         1 UNK         0.0600 
    192 H192       -3.4998  -21.8687  -46.9383 H         1 UNK         0.0600 
    193 H193       -4.4348  -23.3474  -46.7788 H         1 UNK         0.0600 
    194 H194       -3.4212  -22.8125  -45.4494 H         1 UNK         0.0600 
    195 H195       -1.3960  -24.4773  -44.8419 H         1 UNK         0.3000 
    196 H196       -2.4572  -27.1426  -44.7533 H         1 UNK         0.0600 
    197 H197       -0.9919  -27.3389  -42.7359 H         1 UNK         0.0600 
    198 H198       -1.9370  -25.8575  -42.7078 H         1 UNK         0.0600 
    199 H199       -0.2281  -25.8030  -43.1319 H         1 UNK         0.0600 
    200 H200        0.7974  -25.8364  -45.5681 H         1 UNK         0.3000 
    201 H201        2.0021  -28.4347  -45.7727 H         1 UNK         0.0600 
    202 H202        3.2628  -26.4481  -45.0354 H         1 UNK         0.0600 
    203 H203        3.0165  -25.6681  -46.5970 H         1 UNK         0.0600 
    204 H204        4.0018  -27.1219  -46.4797 H         1 UNK         0.0600 
    205 H205        0.9008  -26.0628  -48.2472 H         1 UNK         0.3000 
    206 H206        1.7434  -27.9389  -50.4304 H         1 UNK         0.0600 
    207 H207        3.2930  -26.0047  -50.0555 H         1 UNK         0.0600 
    208 H208        2.4855  -25.8919  -51.6100 H         1 UNK         0.0600 
    209 H209        1.9469  -24.8863  -50.2699 H         1 UNK         0.0600 
    210 H210       -0.9985  -26.8194  -49.0609 H         1 UNK         0.3000 
    211 H211       -3.1283  -26.6329  -49.6422 H         1 UNK         0.0600 
    212 H212       -2.5105  -27.3427  -52.5495 H         1 UNK         0.0600 
    213 H213       -4.0446  -27.4827  -51.7080 H         1 UNK         0.0600 
    214 H214       -2.7192  -28.5432  -51.2753 H         1 UNK         0.0600 
    215 H215       -4.5644  -25.4466  -51.5555 H         1 UNK         0.3000 
    216 H216       -5.3740  -23.4894  -52.1643 H         1 UNK         0.0600 
    217 H217       -3.5101  -23.5091  -53.8626 H         1 UNK         0.0600 
    218 H218       -2.5164  -22.5585  -52.7655 H         1 UNK         0.0600 
    219 H219       -4.0052  -21.8874  -53.4232 H         1 UNK         0.0600 
    220 H220       -3.8698  -20.8242  -51.7263 H         1 UNK         0.3000 
    221 H221       -3.3117  -20.3080  -49.0527 H         1 UNK         0.0600 
    222 H222       -6.2609  -19.8414  -49.8503 H         1 UNK         0.0600 
    223 H223       -5.6871  -20.7726  -48.4694 H         1 UNK         0.0600 
    224 H224       -5.4954  -19.0384  -48.4884 H         1 UNK         0.0600 
    225 H225       -3.1552  -17.9142  -48.7729 H         1 UNK         0.3000 
    226 H226       -2.4331  -16.4958  -51.1999 H         1 UNK         0.0600 
    227 H227       -2.0679  -14.5816  -49.6794 H         1 UNK         0.0600 
    228 H228       -2.8745  -15.4148  -48.3619 H         1 UNK         0.0600 
    229 H229       -1.3474  -16.0255  -48.9951 H         1 UNK         0.0600 
    230 H230       -5.3013  -16.6909  -49.1456 H         1 UNK         0.3000 
    231 H231       -6.8094  -14.5635  -50.3528 H         1 UNK         0.0600 
    232 H232       -8.7074  -15.6308  -49.1200 H         1 UNK         0.0600 
    233 H233       -7.3051  -15.4318  -48.0828 H         1 UNK         0.0600 
    234 H234       -7.6968  -17.0208  -48.7437 H         1 UNK         0.0600 
    235 H235       -6.1657  -17.8822  -51.2989 H         1 UNK         0.3000 
    236 H236       -8.3839  -18.0306  -53.2285 H         1 UNK         0.0600 
    237 H237       -7.6932  -20.0848  -52.0072 H         1 UNK         0.0600 
    238 H238       -7.4409  -20.2596  -53.7365 H         1 UNK         0.0600 
    239 H239       -6.0692  -19.9646  -52.6811 H         1 UNK         0.0600 
    240 H240       -4.7785  -17.8432  -53.2359 H         1 UNK         0.3000 
    241 H241       -4.5836  -17.5563  -56.0802 H         1 UNK         0.0600 
    242 H242       -4.8353  -13.7104  -54.6872 H         1 UNK         0.3800 
    243 H243       -4.8291  -14.9949  -53.5079 H         1 UNK         0.3800 
    244 H244       -2.5419  -17.0919  -53.8630 H         1 UNK         0.0800 
    245 H245       -2.1581  -16.9718  -55.5672 H         1 UNK         0.0800 
    246 H246       -0.4260  -20.2977  -55.1842 H         1 UNK         0.0800 
    247 H247       -0.2932  -18.5757  -55.4177 H         1 UNK         0.0800 
@<TRIPOS>BOND
     1    1    2 1    
     2    1  127 1    
     3    1  128 1    
     4    1  129 1    
     5    2    3 2    
     6    2    4 am   BACKBONE|DICT|INTERRES
     7    4    5 1    
     8    4  130 1    
     9    5    6 1    
    10    5   65 1    
    11    5  131 1    
    12    6    7 1    
    13    6  132 1    
    14    6  133 1    
    15    7    8 1    
    16    8    9 1    
    17    8  134 1    
    18    8  135 1    
    19    9   10 ar   
    20    9   14 ar   
    21   10   11 ar   
    22   10  136 1    
    23   11   12 ar   
    24   11  126 1    
    25   12   13 ar   
    26   12  137 1    
    27   13   14 ar   
    28   13   15 1    
    29   14  138 1    
    30   15   16 1    
    31   15  139 1    
    32   15  140 1    
    33   16   17 1    
    34   17   18 1    
    35   17  141 1    
    36   17  142 1    
    37   18   19 1    
    38   18   67 1    
    39   18  143 1    
    40   19   20 am   BACKBONE|DICT|INTERRES
    41   19  144 1    
    42   20   21 2    
    43   20   22 1    
    44   22   23 1    
    45   22   24 1    
    46   22  145 1    
    47   23  146 1    
    48   23  147 1    
    49   23  148 1    
    50   24   25 am   BACKBONE|DICT|INTERRES
    51   24  149 1    
    52   25   26 2    
    53   25   27 1    
    54   27   28 1    
    55   27   29 1    
    56   27  150 1    
    57   28  151 1    
    58   28  152 1    
    59   28  153 1    
    60   29   30 am   BACKBONE|DICT|INTERRES
    61   29  154 1    
    62   30   31 2    
    63   30   32 1    
    64   32   33 1    
    65   32   34 1    
    66   32  155 1    
    67   33  156 1    
    68   33  157 1    
    69   33  158 1    
    70   34   35 am   BACKBONE|DICT|INTERRES
    71   34  159 1    
    72   35   36 2    
    73   35   37 1    
    74   37   38 1    
    75   37   39 1    
    76   37  160 1    
    77   38  161 1    
    78   38  162 1    
    79   38  163 1    
    80   39   40 am   BACKBONE|DICT|INTERRES
    81   39  164 1    
    82   40   41 2    
    83   40   42 1    
    84   42   43 1    
    85   42   44 1    
    86   42  165 1    
    87   43  166 1    
    88   43  167 1    
    89   43  168 1    
    90   44   45 am   BACKBONE|DICT|INTERRES
    91   44  169 1    
    92   45   46 2    
    93   45   47 1    
    94   47   48 1    
    95   47   49 1    
    96   47  170 1    
    97   48  171 1    
    98   48  172 1    
    99   48  173 1    
   100   49   50 am   BACKBONE|DICT|INTERRES
   101   49  174 1    
   102   50   51 2    
   103   50   52 1    
   104   52   53 1    
   105   52   54 1    
   106   52  175 1    
   107   53  176 1    
   108   53  177 1    
   109   53  178 1    
   110   54   55 am   BACKBONE|DICT|INTERRES
   111   54  179 1    
   112   55   56 2    
   113   55   57 1    
   114   57   58 1    
   115   57   59 1    
   116   57  180 1    
   117   58  181 1    
   118   58  182 1    
   119   58  183 1    
   120   59   60 am   BACKBONE|DICT|INTERRES
   121   59  184 1    
   122   60   61 2    
   123   60   62 1    
   124   62   63 1    
   125   62   64 1    
   126   62  185 1    
   127   63  186 1    
   128   63  187 1    
   129   63  188 1    
   130   64   65 am   BACKBONE|DICT|INTERRES
   131   64  189 1    
   132   65   66 2    
   133   67   68 2    
   134   67   69 am   BACKBONE|DICT|INTERRES
   135   69   70 1    
   136   69  190 1    
   137   70   71 1    
   138   70   72 1    
   139   70  191 1    
   140   71  192 1    
   141   71  193 1    
   142   71  194 1    
   143   72   73 2    
   144   72   74 am   BACKBONE|DICT|INTERRES
   145   74   75 1    
   146   74  195 1    
   147   75   76 1    
   148   75   77 1    
   149   75  196 1    
   150   76  197 1    
   151   76  198 1    
   152   76  199 1    
   153   77   78 2    
   154   77   79 am   BACKBONE|DICT|INTERRES
   155   79   80 1    
   156   79  200 1    
   157   80   81 1    
   158   80   82 1    
   159   80  201 1    
   160   81  202 1    
   161   81  203 1    
   162   81  204 1    
   163   82   83 2    
   164   82   84 am   BACKBONE|DICT|INTERRES
   165   84   85 1    
   166   84  205 1    
   167   85   86 1    
   168   85   87 1    
   169   85  206 1    
   170   86  207 1    
   171   86  208 1    
   172   86  209 1    
   173   87   88 2    
   174   87   89 am   BACKBONE|DICT|INTERRES
   175   89   90 1    
   176   89  210 1    
   177   90   91 1    
   178   90   92 1    
   179   90  211 1    
   180   91  212 1    
   181   91  213 1    
   182   91  214 1    
   183   92   93 2    
   184   92   94 am   BACKBONE|DICT|INTERRES
   185   94   95 1    
   186   94  215 1    
   187   95   96 1    
   188   95   97 1    
   189   95  216 1    
   190   96  217 1    
   191   96  218 1    
   192   96  219 1    
   193   97   98 2    
   194   97   99 am   BACKBONE|DICT|INTERRES
   195   99  100 1    
   196   99  220 1    
   197  100  101 1    
   198  100  102 1    
   199  100  221 1    
   200  101  222 1    
   201  101  223 1    
   202  101  224 1    
   203  102  103 2    
   204  102  104 am   BACKBONE|DICT|INTERRES
   205  104  105 1    
   206  104  225 1    
   207  105  106 1    
   208  105  107 1    
   209  105  226 1    
   210  106  227 1    
   211  106  228 1    
   212  106  229 1    
   213  107  108 2    
   214  107  109 am   BACKBONE|DICT|INTERRES
   215  109  110 1    
   216  109  230 1    
   217  110  111 1    
   218  110  112 1    
   219  110  231 1    
   220  111  232 1    
   221  111  233 1    
   222  111  234 1    
   223  112  113 2    
   224  112  114 am   BACKBONE|DICT|INTERRES
   225  114  115 1    
   226  114  235 1    
   227  115  116 1    
   228  115  117 1    
   229  115  236 1    
   230  116  237 1    
   231  116  238 1    
   232  116  239 1    
   233  117  118 2    
   234  117  119 am   BACKBONE|DICT|INTERRES
   235  119  120 1    
   236  119  240 1    
   237  120  121 1    
   238  120  124 1    
   239  120  241 1    
   240  121  122 am   BACKBONE|DICT|INTERRES
   241  121  123 2    
   242  122  242 1    
   243  122  243 1    
   244  124  125 1    
   245  124  244 1    
   246  124  245 1    
   247  125  126 1    
   248  126  246 1    
   249  126  247 1    
@<TRIPOS>SUBSTRUCTURE
     1 UNK         1 GROUP             0       ****    0 ROOT    
