@<TRIPOS>MOLECULE
3R540
247   249    1
SMALL
USER_CHARGES


@<TRIPOS>ATOM
      1 CA          5.7477  -15.7826  -45.7098 C.3       0 UNK        -0.1800 
      2 C           5.3563  -14.3340  -45.9638 C.2       0 UNK         0.5000 
      3 O           5.8207  -13.4371  -45.2593 O.2       0 UNK        -0.5000 
      4 N           4.5030  -14.0988  -46.9669 N.am      1 UNK        -0.5000 
      5 CA          4.0546  -12.7674  -47.3846 C.3       1 UNK         0.1400 
      6 C6          2.8539  -12.8585  -48.3636 C.3       23 UNK        -0.0398 
      7 S7          1.2603  -12.7484  -47.4894 S.3       23 UNK        -0.2404 
      8 C8          1.0269  -14.4550  -46.9045 C.3       23 UNK        -0.0205 
      9 C9          0.7703  -15.4375  -48.0364 C.ar      23 UNK        -0.0193 
     10 C10        -0.3789  -15.3118  -48.8213 C.ar      23 UNK        -0.1150 
     11 C11        -0.6511  -16.2323  -49.8352 C.ar      23 UNK        -0.0193 
     12 C12         0.2413  -17.2804  -50.0715 C.ar      23 UNK        -0.1150 
     13 C13         1.3937  -17.4186  -49.2929 C.ar      23 UNK        -0.0193 
     14 C14         1.6544  -16.4939  -48.2765 C.ar      23 UNK        -0.1150 
     15 C15         2.3566  -18.5666  -49.5519 C.3       23 UNK        -0.0205 
     16 S16         2.1472  -19.9161  -48.3504 S.3       23 UNK        -0.2404 
     17 C17         0.4835  -20.5367  -48.7746 C.3       23 UNK        -0.0398 
     18 CA          0.1760  -21.8703  -48.0554 C.3       11 UNK         0.1400 
     19 N           0.1038  -21.7172  -46.5993 N.am      11 UNK        -0.5000 
     20 C           0.0568  -22.7316  -45.7261 C.2       10 UNK         0.5000 
     21 O           0.1036  -23.9156  -46.0538 O.2       10 UNK        -0.5000 
     22 CA         -0.1290  -22.3677  -44.2436 C.3       10 UNK         0.1400 
     23 CB          1.2020  -21.9480  -43.6008 C.3       10 UNK        -0.1800 
     24 N          -1.1280  -21.3152  -44.0609 N.am      10 UNK        -0.5000 
     25 C          -2.4402  -21.4747  -44.2839 C.2       9 UNK         0.5000 
     26 O          -2.9489  -22.5383  -44.6352 O.2       9 UNK        -0.5000 
     27 CA         -3.3278  -20.2280  -44.1243 C.3       9 UNK         0.1400 
     28 CB         -3.7148  -20.0211  -42.6527 C.3       9 UNK        -0.1800 
     29 N          -2.6859  -19.0165  -44.6314 N.am      9 UNK        -0.5000 
     30 C          -2.4130  -18.7883  -45.9248 C.2       8 UNK         0.5000 
     31 O          -2.6955  -19.5689  -46.8328 O.2       8 UNK        -0.5000 
     32 CA         -1.6407  -17.4952  -46.2433 C.3       8 UNK         0.1400 
     33 CB         -2.6114  -16.3058  -46.3092 C.3       8 UNK        -0.1800 
     34 N          -0.5866  -17.2049  -45.2674 N.am      8 UNK        -0.5000 
     35 C           0.4156  -18.0391  -44.9485 C.2       7 UNK         0.5000 
     36 O           0.5859  -19.1273  -45.4930 O.2       7 UNK        -0.5000 
     37 CA          1.3546  -17.6381  -43.7946 C.3       7 UNK         0.1400 
     38 CB          2.7518  -17.2891  -44.3265 C.3       7 UNK        -0.1800 
     39 N           0.8459  -16.5401  -42.9682 N.am      7 UNK        -0.5000 
     40 C          -0.2391  -16.6229  -42.1799 C.2       6 UNK         0.5000 
     41 O          -0.9141  -17.6475  -42.0680 O.2       6 UNK        -0.5000 
     42 CA         -0.6707  -15.3564  -41.4112 C.3       6 UNK         0.1400 
     43 CB         -0.2525  -15.4592  -39.9367 C.3       6 UNK        -0.1800 
     44 N          -0.1387  -14.1104  -41.9653 N.am      6 UNK        -0.5000 
     45 C          -0.4238  -13.6092  -43.1756 C.2       5 UNK         0.5000 
     46 O          -1.2248  -14.1265  -43.9544 O.2       5 UNK        -0.5000 
     47 CA          0.3582  -12.3488  -43.6041 C.3       5 UNK         0.1400 
     48 CB         -0.4668  -11.0830  -43.3318 C.3       5 UNK        -0.1800 
     49 N           1.6730  -12.2134  -42.9633 N.am      5 UNK        -0.5000 
     50 C           2.6696  -13.1030  -43.0632 C.2       4 UNK         0.5000 
     51 O           2.5952  -14.1335  -43.7326 O.2       4 UNK        -0.5000 
     52 CA          3.9464  -12.7835  -42.2771 C.3       4 UNK         0.1400 
     53 CB          4.7271  -14.0543  -41.8969 C.3       4 UNK        -0.1800 
     54 N           4.7952  -11.9299  -43.0983 N.am      4 UNK        -0.5000 
     55 C           5.1361  -10.6708  -42.8057 C.2       3 UNK         0.5000 
     56 O           4.7636  -10.0748  -41.7940 O.2       3 UNK        -0.5000 
     57 CA          6.0439   -9.9499  -43.8191 C.3       3 UNK         0.1400 
     58 CB          7.4970  -10.4323  -43.6872 C.3       3 UNK        -0.1800 
     59 N           5.6106  -10.0971  -45.2105 N.am      3 UNK        -0.5000 
     60 C           4.4672   -9.6130  -45.7163 C.2       2 UNK         0.5000 
     61 O           3.6125   -9.0401  -45.0406 O.2       2 UNK        -0.5000 
     62 CA          4.2385   -9.7661  -47.2352 C.3       2 UNK         0.1400 
     63 CB          4.2645   -8.3883  -47.9160 C.3       2 UNK        -0.1800 
     64 N           5.2315  -10.6213  -47.8980 N.am      2 UNK        -0.5000 
     65 C           5.2206  -11.9580  -48.0064 C.2       1 UNK         0.5000 
     66 O           6.1087  -12.5524  -48.6194 O.2       1 UNK        -0.5000 
     67 C          -1.0931  -22.5396  -48.6227 C.2       11 UNK         0.5000 
     68 O          -0.9787  -23.4300  -49.4655 O.2       11 UNK        -0.5000 
     69 N          -2.2732  -22.1509  -48.1177 N.am      12 UNK        -0.5000 
     70 CA         -3.5552  -22.7750  -48.4473 C.3       12 UNK         0.1400 
     71 CB         -4.7017  -21.9479  -47.8494 C.3       12 UNK        -0.1800 
     72 C          -3.6413  -24.2448  -47.9947 C.2       12 UNK         0.5000 
     73 O          -4.1283  -25.0814  -48.7554 O.2       12 UNK        -0.5000 
     74 N          -3.1369  -24.5398  -46.7878 N.am      13 UNK        -0.5000 
     75 CA         -3.0417  -25.8929  -46.2378 C.3       13 UNK         0.1400 
     76 CB         -2.6754  -25.8267  -44.7478 C.3       13 UNK        -0.1800 
     77 C          -2.0467  -26.7808  -47.0072 C.2       13 UNK         0.5000 
     78 O          -2.3446  -27.9515  -47.2410 O.2       13 UNK        -0.5000 
     79 N          -0.9065  -26.2081  -47.4193 N.am      14 UNK        -0.5000 
     80 CA          0.1079  -26.8650  -48.2478 C.3       14 UNK         0.1400 
     81 CB          1.3706  -25.9927  -48.3089 C.3       14 UNK        -0.1800 
     82 C          -0.4007  -27.1888  -49.6649 C.2       14 UNK         0.5000 
     83 O          -0.0838  -28.2542  -50.1950 O.2       14 UNK        -0.5000 
     84 N          -1.2099  -26.2846  -50.2354 N.am      15 UNK        -0.5000 
     85 CA         -1.9207  -26.4822  -51.5011 C.3       15 UNK         0.1400 
     86 CB         -2.4594  -25.1287  -51.9876 C.3       15 UNK        -0.1800 
     87 C          -3.0693  -27.5070  -51.3996 C.2       15 UNK         0.5000 
     88 O          -3.4965  -28.0365  -52.4260 O.2       15 UNK        -0.5000 
     89 N          -3.5602  -27.7463  -50.1748 N.am      16 UNK        -0.5000 
     90 CA         -4.6220  -28.6627  -49.7397 C.3       16 UNK         0.1400 
     91 CB         -4.2955  -30.1212  -50.1101 C.3       16 UNK        -0.1800 
     92 C          -6.0349  -28.2670  -50.2059 C.2       16 UNK         0.5000 
     93 O          -6.9735  -28.3235  -49.4107 O.2       16 UNK        -0.5000 
     94 N          -6.1635  -27.8588  -51.4722 N.am      17 UNK        -0.5000 
     95 CA         -7.4009  -27.3814  -52.0867 C.3       17 UNK         0.1400 
     96 CB         -7.2524  -27.4692  -53.6138 C.3       17 UNK        -0.1800 
     97 C          -7.7745  -25.9457  -51.6691 C.2       17 UNK         0.5000 
     98 O          -8.9286  -25.5564  -51.8540 O.2       17 UNK        -0.5000 
     99 N          -6.8003  -25.1874  -51.1378 N.am      18 UNK        -0.5000 
    100 CA        -6.8731  -23.7601  -50.8099 C.3       18 UNK         0.1400 
    101 CB        -7.8090  -23.5246  -49.6029 C.3       18 UNK        -0.1800 
    102 C         -7.2173  -22.9279  -52.0645 C.2       18 UNK         0.5000 
    103 O         -6.5636  -23.1207  -53.0919 O.2       18 UNK        -0.5000 
    104 N         -8.2254  -22.0463  -51.9694 N.am      19 UNK        -0.5000 
    105 CA        -8.8524  -21.2785  -53.0523 C.3       19 UNK         0.1400 
    106 CB        -9.7783  -22.2036  -53.8726 C.3       19 UNK        -0.1800 
    107 C         -7.8312  -20.5111  -53.9165 C.2       19 UNK         0.5000 
    108 O         -7.3298  -19.4723  -53.4826 O.2       19 UNK        -0.5000 
    109 N         -7.5024  -21.0616  -55.0940 N.am      20 UNK        -0.5000 
    110 CA        -6.5215  -20.5621  -56.0628 C.3       20 UNK         0.1400 
    111 CB        -6.5278  -21.4911  -57.2869 C.3       20 UNK        -0.1800 
    112 C         -5.0858  -20.3937  -55.5189 C.2       20 UNK         0.5000 
    113 O         -4.2818  -19.7176  -56.1617 O.2       20 UNK        -0.5000 
    114 N         -4.7935  -20.9731  -54.3440 N.am      21 UNK        -0.5000 
    115 CA        -3.5760  -20.7433  -53.5625 C.3       21 UNK         0.1400 
    116 CB        -3.6250  -21.6037  -52.2903 C.3       21 UNK        -0.1800 
    117 C         -3.3526  -19.2612  -53.1929 C.2       21 UNK         0.5000 
    118 O         -2.2010  -18.8253  -53.1582 O.2       21 UNK        -0.5000 
    119 N         -4.4455  -18.5194  -52.9565 N.am      22 UNK        -0.5000 
    120 CA        -4.4371  -17.0665  -52.7136 C.3       22 UNK         0.1400 
    121 C         -5.4778  -16.2826  -53.5617 C.2       22 UNK         0.5000 
    122 N         -6.5119  -16.8995  -54.1188 N.am      22 UNK        -0.7600 
    123 O         -5.3328  -15.0757  -53.7365 O.2       22 UNK        -0.5000 
    124 C124       -4.5770  -16.7045  -51.2098 C.3       23 UNK        -0.0398 
    125 S125       -3.1903  -17.2750  -50.1704 S.3       23 UNK        -0.2404 
    126 C126       -1.9046  -16.0912  -50.6790 C.3       23 UNK        -0.0205 
    127 H127        6.8147  -15.9179  -45.8850 H         1 UNK         0.0600 
    128 H128        5.5343  -16.0539  -44.6764 H         1 UNK         0.0600 
    129 H129        5.2042  -16.4695  -46.3591 H         1 UNK         0.0600 
    130 H130        4.1955  -14.8668  -47.5432 H         1 UNK         0.3000 
    131 H131        3.7384  -12.2628  -46.4709 H         1 UNK         0.0600 
    132 H132        2.8928  -13.7633  -48.9719 H         1 UNK         0.0800 
    133 H133        2.8540  -12.0339  -49.0792 H         1 UNK         0.0800 
    134 H134        0.1737  -14.4751  -46.2278 H         1 UNK         0.0800 
    135 H135        1.8895  -14.7506  -46.3095 H         1 UNK         0.0800 
    136 H136       -1.0669  -14.4997  -48.6327 H         1 UNK         0.1150 
    137 H137        0.0288  -17.9936  -50.8561 H         1 UNK         0.1150 
    138 H138        2.5367  -16.6119  -47.6641 H         1 UNK         0.1150 
    139 H139        2.2321  -18.9563  -50.5634 H         1 UNK         0.0800 
    140 H140        3.3818  -18.1987  -49.4921 H         1 UNK         0.0800 
    141 H141        0.4350  -20.6631  -49.8578 H         1 UNK         0.0800 
    142 H142       -0.2578  -19.7791  -48.5133 H         1 UNK         0.0800 
    143 H143        1.0024  -22.5535  -48.2633 H         1 UNK         0.0600 
    144 H144        0.1290  -20.7643  -46.2418 H         1 UNK         0.3000 
    145 H145       -0.4835  -23.2604  -43.7240 H         1 UNK         0.0600 
    146 H146        1.0741  -21.7153  -42.5436 H         1 UNK         0.0600 
    147 H147        1.9344  -22.7532  -43.6700 H         1 UNK         0.0600 
    148 H148        1.6348  -21.0741  -44.0872 H         1 UNK         0.0600 
    149 H149       -0.7845  -20.3945  -43.8316 H         1 UNK         0.3000 
    150 H150       -4.2422  -20.3933  -44.6978 H         1 UNK         0.0600 
    151 H151       -4.2118  -20.9055  -42.2519 H         1 UNK         0.0600 
    152 H152       -4.4027  -19.1829  -42.5402 H         1 UNK         0.0600 
    153 H153       -2.8414  -19.8235  -42.0297 H         1 UNK         0.0600 
    154 H154       -2.3768  -18.3429  -43.9435 H         1 UNK         0.3000 
    155 H155       -1.1682  -17.6216  -47.2188 H         1 UNK         0.0600 
    156 H156       -3.1271  -16.1534  -45.3603 H         1 UNK         0.0600 
    157 H157       -3.3702  -16.4655  -47.0762 H         1 UNK         0.0600 
    158 H158       -2.0942  -15.3791  -46.5527 H         1 UNK         0.0600 
    159 H159       -0.6652  -16.3314  -44.7643 H         1 UNK         0.3000 
    160 H160        1.4554  -18.5135  -43.1497 H         1 UNK         0.0600 
    161 H161        3.4320  -17.0319  -43.5144 H         1 UNK         0.0600 
    162 H162        2.7221  -16.4488  -45.0176 H         1 UNK         0.0600 
    163 H163        3.1874  -18.1336  -44.8623 H         1 UNK         0.0600 
    164 H164        1.3421  -15.6586  -43.0429 H         1 UNK         0.3000 
    165 H165       -1.7604  -15.3047  -41.4572 H         1 UNK         0.0600 
    166 H166       -0.6226  -14.6108  -39.3607 H         1 UNK         0.0600 
    167 H167       -0.6568  -16.3623  -39.4772 H         1 UNK         0.0600 
    168 H168        0.8323  -15.4931  -39.8279 H         1 UNK         0.0600 
    169 H169        0.5315  -13.6158  -41.3957 H         1 UNK         0.3000 
    170 H170        0.5231  -12.4206  -44.6791 H         1 UNK         0.0600 
    171 H171       -1.4413  -11.1397  -43.8190 H         1 UNK         0.0600 
    172 H172       -0.6404  -10.9370  -42.2650 H         1 UNK         0.0600 
    173 H173        0.0354  -10.1950  -43.7165 H         1 UNK         0.0600 
    174 H174        1.8219  -11.3780  -42.4152 H         1 UNK         0.3000 
    175 H175        3.6562  -12.2833  -41.3509 H         1 UNK         0.0600 
    176 H176        5.0740  -14.5971  -42.7759 H         1 UNK         0.0600 
    177 H177        5.6003  -13.8106  -41.2918 H         1 UNK         0.0600 
    178 H178        4.1054  -14.7354  -41.3144 H         1 UNK         0.0600 
    179 H179        5.1491  -12.3547  -43.9546 H         1 UNK         0.3000 
    180 H180        6.0214   -8.8849  -43.5783 H         1 UNK         0.0600 
    181 H181        7.5994  -11.4829  -43.9626 H         1 UNK         0.0600 
    182 H182        7.8529  -10.3254  -42.6616 H         1 UNK         0.0600 
    183 H183        8.1648   -9.8519  -44.3239 H         1 UNK         0.0600 
    184 H184        6.2474  -10.5735  -45.8326 H         1 UNK         0.3000 
    185 H185        3.2379  -10.1768  -47.3776 H         1 UNK         0.0600 
    186 H186        3.5133   -7.7232  -47.4877 H         1 UNK         0.0600 
    187 H187        5.2344   -7.9018  -47.8051 H         1 UNK         0.0600 
    188 H188        4.0499   -8.4708  -48.9818 H         1 UNK         0.0600 
    189 H189        6.0024  -10.1252  -48.3213 H         1 UNK         0.3000 
    190 H190       -2.3032  -21.3697  -47.4683 H         1 UNK         0.3000 
    191 H191       -3.6599  -22.7620  -49.5335 H         1 UNK         0.0600 
    192 H192       -4.6054  -21.8503  -46.7681 H         1 UNK         0.0600 
    193 H193       -5.6671  -22.4108  -48.0489 H         1 UNK         0.0600 
    194 H194       -4.7256  -20.9445  -48.2751 H         1 UNK         0.0600 
    195 H195       -2.8104  -23.7851  -46.1925 H         1 UNK         0.3000 
    196 H196       -4.0275  -26.3554  -46.3207 H         1 UNK         0.0600 
    197 H197       -2.6169  -26.8261  -44.3150 H         1 UNK         0.0600 
    198 H198       -3.4244  -25.2717  -44.1829 H         1 UNK         0.0600 
    199 H199       -1.7114  -25.3434  -44.5897 H         1 UNK         0.0600 
    200 H200       -0.6986  -25.2606  -47.1142 H         1 UNK         0.3000 
    201 H201        0.3714  -27.8091  -47.7665 H         1 UNK         0.0600 
    202 H202        1.7784  -25.8192  -47.3130 H         1 UNK         0.0600 
    203 H203        1.1681  -25.0219  -48.7613 H         1 UNK         0.0600 
    204 H204        2.1502  -26.4746  -48.9002 H         1 UNK         0.0600 
    205 H205       -1.3533  -25.3952  -49.7672 H         1 UNK         0.3000 
    206 H206       -1.2097  -26.8550  -52.2410 H         1 UNK         0.0600 
    207 H207       -1.6524  -24.4083  -52.1237 H         1 UNK         0.0600 
    208 H208       -2.9705  -25.2296  -52.9459 H         1 UNK         0.0600 
    209 H209       -3.1703  -24.7028  -51.2794 H         1 UNK         0.0600 
    210 H210       -3.1638  -27.1956  -49.4245 H         1 UNK         0.3000 
    211 H211       -4.6295  -28.5988  -48.6506 H         1 UNK         0.0600 
    212 H212       -4.2890  -30.2788  -51.1889 H         1 UNK         0.0600 
    213 H213       -5.0337  -30.8033  -49.6867 H         1 UNK         0.0600 
    214 H214       -3.3203  -30.4152  -49.7215 H         1 UNK         0.0600 
    215 H215       -5.3286  -27.8706  -52.0527 H         1 UNK         0.3000 
    216 H216       -8.2186  -28.0381  -51.7825 H         1 UNK         0.0600 
    217 H217       -8.1673  -27.1512  -54.1156 H         1 UNK         0.0600 
    218 H218       -7.0462  -28.4912  -53.9323 H         1 UNK         0.0600 
    219 H219       -6.4420  -26.8344  -53.9749 H         1 UNK         0.0600 
    220 H220       -5.8909  -25.6119  -51.0288 H         1 UNK         0.3000 
    221 H221       -5.8671  -23.4610  -50.5150 H         1 UNK         0.0600 
    222 H222       -8.8445  -23.7837  -49.8260 H         1 UNK         0.0600 
    223 H223       -7.4970  -24.1281  -48.7502 H         1 UNK         0.0600 
    224 H224       -7.7882  -22.4830  -49.2807 H         1 UNK         0.0600 
    225 H225       -8.6683  -21.9475  -51.0672 H         1 UNK         0.3000 
    226 H226       -9.4787  -20.5210  -52.5788 H         1 UNK         0.0600 
    227 H227      -10.5748  -22.6057  -53.2463 H         1 UNK         0.0600 
    228 H228      -10.2564  -21.6621  -54.6900 H         1 UNK         0.0600 
    229 H229       -9.2428  -23.0526  -54.2993 H         1 UNK         0.0600 
    230 H230       -7.9321  -21.9455  -55.3244 H         1 UNK         0.3000 
    231 H231       -6.8563  -19.5730  -56.3814 H         1 UNK         0.0600 
    232 H232       -7.5175  -21.5401  -57.7413 H         1 UNK         0.0600 
    233 H233       -6.2284  -22.5056  -57.0205 H         1 UNK         0.0600 
    234 H234       -5.8382  -21.1357  -58.0539 H         1 UNK         0.0600 
    235 H235       -5.4984  -21.5666  -53.9193 H         1 UNK         0.3000 
    236 H236       -2.7289  -21.0697  -54.1689 H         1 UNK         0.0600 
    237 H237       -2.6949  -21.5231  -51.7256 H         1 UNK         0.0600 
    238 H238       -4.4380  -21.2987  -51.6303 H         1 UNK         0.0600 
    239 H239       -3.7695  -22.6551  -52.5346 H         1 UNK         0.0600 
    240 H240       -5.3566  -18.9556  -53.0290 H         1 UNK         0.3000 
    241 H241       -3.4824  -16.6700  -53.0610 H         1 UNK         0.0600 
    242 H242       -7.1562  -16.3553  -54.6699 H         1 UNK         0.3800 
    243 H243       -6.7319  -17.8737  -53.9242 H         1 UNK         0.3800 
    244 H244       -4.6672  -15.6249  -51.0754 H         1 UNK         0.0800 
    245 H245       -5.4974  -17.1325  -50.8097 H         1 UNK         0.0800 
    246 H246       -2.2950  -15.0747  -50.6107 H         1 UNK         0.0800 
    247 H247       -1.6474  -16.2565  -51.7258 H         1 UNK         0.0800 
@<TRIPOS>BOND
     1    1    2 1    
     2    1  127 1    
     3    1  128 1    
     4    1  129 1    
     5    2    3 2    
     6    2    4 am   BACKBONE|DICT|INTERRES
     7    4    5 1    
     8    4  130 1    
     9    5    6 1    
    10    5   65 1    
    11    5  131 1    
    12    6    7 1    
    13    6  132 1    
    14    6  133 1    
    15    7    8 1    
    16    8    9 1    
    17    8  134 1    
    18    8  135 1    
    19    9   10 ar   
    20    9   14 ar   
    21   10   11 ar   
    22   10  136 1    
    23   11   12 ar   
    24   11  126 1    
    25   12   13 ar   
    26   12  137 1    
    27   13   14 ar   
    28   13   15 1    
    29   14  138 1    
    30   15   16 1    
    31   15  139 1    
    32   15  140 1    
    33   16   17 1    
    34   17   18 1    
    35   17  141 1    
    36   17  142 1    
    37   18   19 1    
    38   18   67 1    
    39   18  143 1    
    40   19   20 am   BACKBONE|DICT|INTERRES
    41   19  144 1    
    42   20   21 2    
    43   20   22 1    
    44   22   23 1    
    45   22   24 1    
    46   22  145 1    
    47   23  146 1    
    48   23  147 1    
    49   23  148 1    
    50   24   25 am   BACKBONE|DICT|INTERRES
    51   24  149 1    
    52   25   26 2    
    53   25   27 1    
    54   27   28 1    
    55   27   29 1    
    56   27  150 1    
    57   28  151 1    
    58   28  152 1    
    59   28  153 1    
    60   29   30 am   BACKBONE|DICT|INTERRES
    61   29  154 1    
    62   30   31 2    
    63   30   32 1    
    64   32   33 1    
    65   32   34 1    
    66   32  155 1    
    67   33  156 1    
    68   33  157 1    
    69   33  158 1    
    70   34   35 am   BACKBONE|DICT|INTERRES
    71   34  159 1    
    72   35   36 2    
    73   35   37 1    
    74   37   38 1    
    75   37   39 1    
    76   37  160 1    
    77   38  161 1    
    78   38  162 1    
    79   38  163 1    
    80   39   40 am   BACKBONE|DICT|INTERRES
    81   39  164 1    
    82   40   41 2    
    83   40   42 1    
    84   42   43 1    
    85   42   44 1    
    86   42  165 1    
    87   43  166 1    
    88   43  167 1    
    89   43  168 1    
    90   44   45 am   BACKBONE|DICT|INTERRES
    91   44  169 1    
    92   45   46 2    
    93   45   47 1    
    94   47   48 1    
    95   47   49 1    
    96   47  170 1    
    97   48  171 1    
    98   48  172 1    
    99   48  173 1    
   100   49   50 am   BACKBONE|DICT|INTERRES
   101   49  174 1    
   102   50   51 2    
   103   50   52 1    
   104   52   53 1    
   105   52   54 1    
   106   52  175 1    
   107   53  176 1    
   108   53  177 1    
   109   53  178 1    
   110   54   55 am   BACKBONE|DICT|INTERRES
   111   54  179 1    
   112   55   56 2    
   113   55   57 1    
   114   57   58 1    
   115   57   59 1    
   116   57  180 1    
   117   58  181 1    
   118   58  182 1    
   119   58  183 1    
   120   59   60 am   BACKBONE|DICT|INTERRES
   121   59  184 1    
   122   60   61 2    
   123   60   62 1    
   124   62   63 1    
   125   62   64 1    
   126   62  185 1    
   127   63  186 1    
   128   63  187 1    
   129   63  188 1    
   130   64   65 am   BACKBONE|DICT|INTERRES
   131   64  189 1    
   132   65   66 2    
   133   67   68 2    
   134   67   69 am   BACKBONE|DICT|INTERRES
   135   69   70 1    
   136   69  190 1    
   137   70   71 1    
   138   70   72 1    
   139   70  191 1    
   140   71  192 1    
   141   71  193 1    
   142   71  194 1    
   143   72   73 2    
   144   72   74 am   BACKBONE|DICT|INTERRES
   145   74   75 1    
   146   74  195 1    
   147   75   76 1    
   148   75   77 1    
   149   75  196 1    
   150   76  197 1    
   151   76  198 1    
   152   76  199 1    
   153   77   78 2    
   154   77   79 am   BACKBONE|DICT|INTERRES
   155   79   80 1    
   156   79  200 1    
   157   80   81 1    
   158   80   82 1    
   159   80  201 1    
   160   81  202 1    
   161   81  203 1    
   162   81  204 1    
   163   82   83 2    
   164   82   84 am   BACKBONE|DICT|INTERRES
   165   84   85 1    
   166   84  205 1    
   167   85   86 1    
   168   85   87 1    
   169   85  206 1    
   170   86  207 1    
   171   86  208 1    
   172   86  209 1    
   173   87   88 2    
   174   87   89 am   BACKBONE|DICT|INTERRES
   175   89   90 1    
   176   89  210 1    
   177   90   91 1    
   178   90   92 1    
   179   90  211 1    
   180   91  212 1    
   181   91  213 1    
   182   91  214 1    
   183   92   93 2    
   184   92   94 am   BACKBONE|DICT|INTERRES
   185   94   95 1    
   186   94  215 1    
   187   95   96 1    
   188   95   97 1    
   189   95  216 1    
   190   96  217 1    
   191   96  218 1    
   192   96  219 1    
   193   97   98 2    
   194   97   99 am   BACKBONE|DICT|INTERRES
   195   99  100 1    
   196   99  220 1    
   197  100  101 1    
   198  100  102 1    
   199  100  221 1    
   200  101  222 1    
   201  101  223 1    
   202  101  224 1    
   203  102  103 2    
   204  102  104 am   BACKBONE|DICT|INTERRES
   205  104  105 1    
   206  104  225 1    
   207  105  106 1    
   208  105  107 1    
   209  105  226 1    
   210  106  227 1    
   211  106  228 1    
   212  106  229 1    
   213  107  108 2    
   214  107  109 am   BACKBONE|DICT|INTERRES
   215  109  110 1    
   216  109  230 1    
   217  110  111 1    
   218  110  112 1    
   219  110  231 1    
   220  111  232 1    
   221  111  233 1    
   222  111  234 1    
   223  112  113 2    
   224  112  114 am   BACKBONE|DICT|INTERRES
   225  114  115 1    
   226  114  235 1    
   227  115  116 1    
   228  115  117 1    
   229  115  236 1    
   230  116  237 1    
   231  116  238 1    
   232  116  239 1    
   233  117  118 2    
   234  117  119 am   BACKBONE|DICT|INTERRES
   235  119  120 1    
   236  119  240 1    
   237  120  121 1    
   238  120  124 1    
   239  120  241 1    
   240  121  122 am   BACKBONE|DICT|INTERRES
   241  121  123 2    
   242  122  242 1    
   243  122  243 1    
   244  124  125 1    
   245  124  244 1    
   246  124  245 1    
   247  125  126 1    
   248  126  246 1    
   249  126  247 1    
@<TRIPOS>SUBSTRUCTURE
     1 UNK         1 GROUP             0       ****    0 ROOT    
