@<TRIPOS>MOLECULE
3R540
247   249    1
SMALL
USER_CHARGES


@<TRIPOS>ATOM
      1 CA         -3.9634  -16.6725  -47.1395 C.3       0 UNK        -0.1800 
      2 C          -2.6976  -16.1189  -46.5060 C.2       0 UNK         0.5000 
      3 O          -2.7641  -15.4087  -45.5024 O.2       0 UNK        -0.5000 
      4 N          -1.5334  -16.4750  -47.0635 N.am      1 UNK        -0.5000 
      5 CA         -0.2061  -16.0135  -46.6246 C.3       1 UNK         0.1400 
      6 C6          0.8525  -16.1118  -47.7518 C.3       23 UNK        -0.0398 
      7 S7          0.3811  -15.0804  -49.1909 S.3       23 UNK        -0.2404 
      8 C8          0.4284  -16.2365  -50.6001 C.3       23 UNK        -0.0205 
      9 C9         -0.4437  -17.4626  -50.3842 C.ar      23 UNK        -0.0193 
     10 C10        -1.8373  -17.3760  -50.4620 C.ar      23 UNK        -0.1150 
     11 C11        -2.6290  -18.5070  -50.2372 C.ar      23 UNK        -0.0193 
     12 C12        -2.0174  -19.7219  -49.9150 C.ar      23 UNK        -0.1150 
     13 C13        -0.6262  -19.8151  -49.8303 C.ar      23 UNK        -0.0193 
     14 C14         0.1542  -18.6885  -50.0880 C.ar      23 UNK        -0.1150 
     15 C15         0.0411  -21.1151  -49.4132 C.3       23 UNK        -0.0205 
     16 S16         0.8230  -20.9596  -47.7754 S.3       23 UNK        -0.2404 
     17 C17        -0.6346  -20.6600  -46.7175 C.3       23 UNK        -0.0398 
     18 CA         -1.1467  -21.9690  -46.0799 C.3       11 UNK         0.1400 
     19 N          -0.1549  -22.5517  -45.1662 N.am      11 UNK        -0.5000 
     20 C          -0.1552  -23.8041  -44.6893 C.2       10 UNK         0.5000 
     21 O          -1.0521  -24.6146  -44.9245 O.2       10 UNK        -0.5000 
     22 CA          1.0053  -24.2078  -43.7582 C.3       10 UNK         0.1400 
     23 CB          2.1230  -24.8792  -44.5692 C.3       10 UNK        -0.1800 
     24 N           1.5686  -23.0878  -42.9997 N.am      10 UNK        -0.5000 
     25 C           0.8914  -22.3410  -42.1164 C.2       9 UNK         0.5000 
     26 O          -0.2773  -22.5614  -41.7959 O.2       9 UNK        -0.5000 
     27 CA          1.6188  -21.1204  -41.5156 C.3       9 UNK         0.1400 
     28 CB          2.2398  -21.4853  -40.1593 C.3       9 UNK        -0.1800 
     29 N           2.6488  -20.4871  -42.3516 N.am      9 UNK        -0.5000 
     30 C           2.5229  -20.0927  -43.6265 C.2       8 UNK         0.5000 
     31 O           1.5612  -20.3804  -44.3363 O.2       8 UNK        -0.5000 
     32 CA          3.6180  -19.1497  -44.1589 C.3       8 UNK         0.1400 
     33 CB          3.5645  -18.9880  -45.6891 C.3       8 UNK        -0.1800 
     34 N           3.4717  -17.8329  -43.5365 N.am      8 UNK        -0.5000 
     35 C           3.9195  -17.5047  -42.3177 C.2       7 UNK         0.5000 
     36 O           4.5720  -18.2802  -41.6151 O.2       7 UNK        -0.5000 
     37 CA          3.5458  -16.1059  -41.7786 C.3       7 UNK         0.1400 
     38 CB          4.4782  -15.6312  -40.6450 C.3       7 UNK        -0.1800 
     39 N           3.4216  -15.0654  -42.8040 N.am      7 UNK        -0.5000 
     40 C           4.3687  -14.6225  -43.6440 C.2       6 UNK         0.5000 
     41 O           5.5009  -15.1020  -43.7151 O.2       6 UNK        -0.5000 
     42 CA          4.0172  -13.4087  -44.5235 C.3       6 UNK         0.1400 
     43 CB          3.3626  -13.8320  -45.8465 C.3       6 UNK        -0.1800 
     44 N           3.1413  -12.4615  -43.8299 N.am      6 UNK        -0.5000 
     45 C           3.3371  -11.1367  -43.7731 C.2       5 UNK         0.5000 
     46 O           4.2674  -10.5580  -44.3366 O.2       5 UNK        -0.5000 
     47 CA          2.3311  -10.3035  -42.9489 C.3       5 UNK         0.1400 
     48 CB          1.2734   -9.6776  -43.8711 C.3       5 UNK        -0.1800 
     49 N           1.6491  -11.0676  -41.9033 N.am      5 UNK        -0.5000 
     50 C           2.2418  -11.6116  -40.8324 C.2       4 UNK         0.5000 
     51 O           3.4260  -11.4311  -40.5471 O.2       4 UNK        -0.5000 
     52 CA          1.3844  -12.5308  -39.9360 C.3       4 UNK         0.1400 
     53 CB          1.0504  -11.8236  -38.6131 C.3       4 UNK        -0.1800 
     54 N           0.1357  -13.0395  -40.5225 N.am      4 UNK        -0.5000 
     55 C           0.0138  -13.7453  -41.6545 C.2       3 UNK         0.5000 
     56 O           0.9290  -13.9088  -42.4657 O.2       3 UNK        -0.5000 
     57 CA         -1.3761  -14.3454  -41.9407 C.3       3 UNK         0.1400 
     58 CB         -2.2218  -13.3575  -42.7573 C.3       3 UNK        -0.1800 
     59 N          -1.2800  -15.6054  -42.6778 N.am      3 UNK        -0.5000 
     60 C          -0.6593  -16.7117  -42.2376 C.2       2 UNK         0.5000 
     61 O          -0.2303  -16.8434  -41.0907 O.2       2 UNK        -0.5000 
     62 CA         -0.4541  -17.8591  -43.2457 C.3       2 UNK         0.1400 
     63 CB         -1.4147  -19.0240  -42.9661 C.3       2 UNK        -0.1800 
     64 N          -0.6016  -17.4321  -44.6372 N.am      2 UNK        -0.5000 
     65 C           0.2702  -16.6581  -45.2992 C.2       1 UNK         0.5000 
     66 O           1.3950  -16.4040  -44.8703 O.2       1 UNK        -0.5000 
     67 C          -2.5489  -21.7836  -45.4590 C.2       11 UNK         0.5000 
     68 O          -3.4733  -21.3827  -46.1662 O.2       11 UNK        -0.5000 
     69 N          -2.7089  -22.1189  -44.1710 N.am      12 UNK        -0.5000 
     70 CA         -4.0046  -22.3177  -43.5250 C.3       12 UNK         0.1400 
     71 CB         -3.7861  -22.4567  -42.0113 C.3       12 UNK        -0.1800 
     72 C          -4.7623  -23.5438  -44.0829 C.2       12 UNK         0.5000 
     73 O          -5.9894  -23.5819  -43.9846 O.2       12 UNK        -0.5000 
     74 N          -4.0295  -24.5079  -44.6616 N.am      13 UNK        -0.5000 
     75 CA         -4.5710  -25.6983  -45.3163 C.3       13 UNK         0.1400 
     76 CB         -4.2613  -26.9320  -44.4535 C.3       13 UNK        -0.1800 
     77 C          -4.0156  -25.8814  -46.7406 C.2       13 UNK         0.5000 
     78 O          -4.7585  -26.3243  -47.6179 O.2       13 UNK        -0.5000 
     79 N          -2.7291  -25.5677  -46.9527 N.am      14 UNK        -0.5000 
     80 CA         -2.0331  -25.7351  -48.2291 C.3       14 UNK         0.1400 
     81 CB         -0.5176  -25.6088  -48.0017 C.3       14 UNK        -0.1800 
     82 C          -2.4969  -24.7354  -49.3044 C.2       14 UNK         0.5000 
     83 O          -2.8809  -23.6084  -48.9823 O.2       14 UNK        -0.5000 
     84 N          -2.3966  -25.1720  -50.5673 N.am      15 UNK        -0.5000 
     85 CA         -2.7514  -24.4786  -51.8089 C.3       15 UNK         0.1400 
     86 CB         -1.9211  -23.1965  -52.0098 C.3       15 UNK        -0.1800 
     87 C          -4.2619  -24.2213  -51.9475 C.2       15 UNK         0.5000 
     88 O          -4.9068  -24.8728  -52.7688 O.2       15 UNK        -0.5000 
     89 N          -4.7866  -23.2773  -51.1557 N.am      16 UNK        -0.5000 
     90 CA         -6.1800  -22.8253  -51.0254 C.3       16 UNK         0.1400 
     91 CB         -7.0679  -23.9644  -50.4906 C.3       16 UNK        -0.1800 
     92 C          -6.8156  -22.1764  -52.2767 C.2       16 UNK         0.5000 
     93 O          -7.6584  -21.2909  -52.1229 O.2       16 UNK        -0.5000 
     94 N          -6.4284  -22.6136  -53.4786 N.am      17 UNK        -0.5000 
     95 CA         -6.8875  -22.0842  -54.7583 C.3       17 UNK         0.1400 
     96 CB         -6.8850  -23.2206  -55.7923 C.3       17 UNK        -0.1800 
     97 C          -5.9969  -20.9276  -55.2399 C.2       17 UNK         0.5000 
     98 O          -4.7965  -20.8914  -54.9466 O.2       17 UNK        -0.5000 
     99 N          -6.5925  -20.0343  -56.0407 N.am      18 UNK        -0.5000 
    100 CA        -5.9180  -18.8990  -56.6730 C.3       18 UNK         0.1400 
    101 CB        -6.9519  -18.0081  -57.3761 C.3       18 UNK        -0.1800 
    102 C         -4.8047  -19.3239  -57.6451 C.2       18 UNK         0.5000 
    103 O         -3.7272  -18.7276  -57.6376 O.2       18 UNK        -0.5000 
    104 N         -5.0761  -20.3789  -58.4241 N.am      19 UNK        -0.5000 
    105 CA        -4.1288  -20.9849  -59.3592 C.3       19 UNK         0.1400 
    106 CB        -4.8976  -21.9090  -60.3162 C.3       19 UNK        -0.1800 
    107 C         -2.9962  -21.7594  -58.6582 C.2       19 UNK         0.5000 
    108 O         -1.9230  -21.9119  -59.2430 O.2       19 UNK        -0.5000 
    109 N         -3.2512  -22.2407  -57.4326 N.am      20 UNK        -0.5000 
    110 CA        -2.2770  -22.9666  -56.6218 C.3       20 UNK         0.1400 
    111 CB        -2.9979  -23.8397  -55.5847 C.3       20 UNK        -0.1800 
    112 C         -1.2699  -22.0182  -55.9521 C.2       20 UNK         0.5000 
    113 O         -0.0716  -22.3008  -55.9930 O.2       20 UNK        -0.5000 
    114 N         -1.7572  -20.9100  -55.3738 N.am      21 UNK        -0.5000 
    115 CA        -0.9083  -19.8900  -54.7507 C.3       21 UNK         0.1400 
    116 CB        -0.3450  -20.3874  -53.4046 C.3       21 UNK        -0.1800 
    117 C         -1.6132  -18.5446  -54.5304 C.2       21 UNK         0.5000 
    118 O         -0.9337  -17.5176  -54.5597 O.2       21 UNK        -0.5000 
    119 N         -2.9255  -18.5564  -54.2563 N.am      22 UNK        -0.5000 
    120 CA        -3.6349  -17.3886  -53.6991 C.3       22 UNK         0.1400 
    121 C         -3.8691  -16.1894  -54.6662 C.2       22 UNK         0.5000 
    122 N         -3.6185  -16.3076  -55.9637 N.am      22 UNK        -0.7600 
    123 O         -4.2809  -15.1204  -54.2247 O.2       22 UNK        -0.5000 
    124 C124       -4.9419  -17.7770  -52.9581 C.3       23 UNK        -0.0398 
    125 S125       -4.7766  -19.2006  -51.8271 S.3       23 UNK        -0.2404 
    126 C126       -4.1453  -18.4273  -50.3090 C.3       23 UNK        -0.0205 
    127 H127       -3.8139  -17.7014  -47.4658 H         1 UNK         0.0600 
    128 H128       -4.7860  -16.6637  -46.4243 H         1 UNK         0.0600 
    129 H129       -4.2501  -16.0685  -48.0001 H         1 UNK         0.0600 
    130 H130       -1.5365  -17.0529  -47.8931 H         1 UNK         0.3000 
    131 H131       -0.3037  -14.9516  -46.3875 H         1 UNK         0.0600 
    132 H132        1.8234  -15.7561  -47.4068 H         1 UNK         0.0800 
    133 H133        1.0075  -17.1502  -48.0414 H         1 UNK         0.0800 
    134 H134        1.4638  -16.5273  -50.7846 H         1 UNK         0.0800 
    135 H135        0.0959  -15.7143  -51.4984 H         1 UNK         0.0800 
    136 H136       -2.3010  -16.4263  -50.6886 H         1 UNK         0.1150 
    137 H137       -2.6287  -20.5909  -49.7141 H         1 UNK         0.1150 
    138 H138        1.2304  -18.7615  -50.0166 H         1 UNK         0.1150 
    139 H139        0.7979  -21.3855  -50.1506 H         1 UNK         0.0800 
    140 H140       -0.6765  -21.9359  -49.3887 H         1 UNK         0.0800 
    141 H141       -1.4165  -20.1764  -47.3013 H         1 UNK         0.0800 
    142 H142       -0.3625  -19.9376  -45.9491 H         1 UNK         0.0800 
    143 H143       -1.2959  -22.6852  -46.8890 H         1 UNK         0.0600 
    144 H144        0.5946  -21.9215  -44.8889 H         1 UNK         0.3000 
    145 H145        0.6140  -24.9339  -43.0427 H         1 UNK         0.0600 
    146 H146        1.7398  -25.7333  -45.1296 H         1 UNK         0.0600 
    147 H147        2.9165  -25.2479  -43.9191 H         1 UNK         0.0600 
    148 H148        2.5682  -24.1891  -45.2872 H         1 UNK         0.0600 
    149 H149        2.5173  -22.8211  -43.2178 H         1 UNK         0.3000 
    150 H150        0.8557  -20.3605  -41.3389 H         1 UNK         0.0600 
    151 H151        3.0527  -22.2036  -40.2716 H         1 UNK         0.0600 
    152 H152        1.4980  -21.9290  -39.4936 H         1 UNK         0.0600 
    153 H153        2.6375  -20.6032  -39.6568 H         1 UNK         0.0600 
    154 H154        3.4658  -20.1506  -41.8558 H         1 UNK         0.3000 
    155 H155        4.5902  -19.5740  -43.9001 H         1 UNK         0.0600 
    156 H156        2.6116  -18.5764  -46.0231 H         1 UNK         0.0600 
    157 H157        3.6939  -19.9500  -46.1864 H         1 UNK         0.0600 
    158 H158        4.3555  -18.3272  -46.0434 H         1 UNK         0.0600 
    159 H159        2.8769  -17.1701  -44.0301 H         1 UNK         0.3000 
    160 H160        2.5481  -16.2147  -41.3515 H         1 UNK         0.0600 
    161 H161        5.5139  -15.5601  -40.9783 H         1 UNK         0.0600 
    162 H162        4.4524  -16.3204  -39.8002 H         1 UNK         0.0600 
    163 H163        4.1789  -14.6518  -40.2718 H         1 UNK         0.0600 
    164 H164        2.4953  -14.6460  -42.8536 H         1 UNK         0.3000 
    165 H165        4.9694  -12.9303  -44.7625 H         1 UNK         0.0600 
    166 H166        3.8967  -14.6634  -46.3084 H         1 UNK         0.0600 
    167 H167        2.3286  -14.1382  -45.6953 H         1 UNK         0.0600 
    168 H168        3.3592  -13.0082  -46.5601 H         1 UNK         0.0600 
    169 H169        2.3521  -12.8550  -43.3276 H         1 UNK         0.3000 
    170 H170        2.8885   -9.4971  -42.4679 H         1 UNK         0.0600 
    171 H171        0.6015   -9.0234  -43.3152 H         1 UNK         0.0600 
    172 H172        0.6695  -10.4401  -44.3649 H         1 UNK         0.0600 
    173 H173        1.7415   -9.0742  -44.6500 H         1 UNK         0.0600 
    174 H174        0.6745  -11.2773  -42.0591 H         1 UNK         0.3000 
    175 H175        2.0019  -13.4013  -39.7065 H         1 UNK         0.0600 
    176 H176        1.9542  -11.4613  -38.1208 H         1 UNK         0.0600 
    177 H177        0.3968  -10.9650  -38.7720 H         1 UNK         0.0600 
    178 H178        0.5550  -12.5001  -37.9164 H         1 UNK         0.0600 
    179 H179       -0.6856  -12.9273  -39.9456 H         1 UNK         0.3000 
    180 H180       -1.8782  -14.5460  -40.9923 H         1 UNK         0.0600 
    181 H181       -1.7627  -13.1392  -43.7227 H         1 UNK         0.0600 
    182 H182       -2.3438  -12.4114  -42.2285 H         1 UNK         0.0600 
    183 H183       -3.2194  -13.7549  -42.9460 H         1 UNK         0.0600 
    184 H184       -1.6097  -15.5844  -43.6350 H         1 UNK         0.3000 
    185 H185        0.5644  -18.2118  -43.0960 H         1 UNK         0.0600 
    186 H186       -1.3837  -19.3213  -41.9172 H         1 UNK         0.0600 
    187 H187       -2.4472  -18.7676  -43.2054 H         1 UNK         0.0600 
    188 H188       -1.1357  -19.8980  -43.5517 H         1 UNK         0.0600 
    189 H189       -1.5084  -17.5717  -45.0569 H         1 UNK         0.3000 
    190 H190       -1.8957  -22.4113  -43.6452 H         1 UNK         0.3000 
    191 H191       -4.6191  -21.4333  -43.7057 H         1 UNK         0.0600 
    192 H192       -3.2958  -21.5733  -41.6013 H         1 UNK         0.0600 
    193 H193       -4.7356  -22.5754  -41.4879 H         1 UNK         0.0600 
    194 H194       -3.1672  -23.3228  -41.7729 H         1 UNK         0.0600 
    195 H195       -3.0218  -24.3992  -44.6899 H         1 UNK         0.3000 
    196 H196       -5.6556  -25.6158  -45.4124 H         1 UNK         0.0600 
    197 H197       -4.6456  -27.8413  -44.9174 H         1 UNK         0.0600 
    198 H198       -4.7230  -26.8486  -43.4694 H         1 UNK         0.0600 
    199 H199       -3.1879  -27.0624  -44.3098 H         1 UNK         0.0600 
    200 H200       -2.1606  -25.2247  -46.1830 H         1 UNK         0.3000 
    201 H201       -2.2393  -26.7469  -48.5848 H         1 UNK         0.0600 
    202 H202        0.0344  -25.8332  -48.9151 H         1 UNK         0.0600 
    203 H203       -0.1722  -26.3037  -47.2360 H         1 UNK         0.0600 
    204 H204       -0.2348  -24.6027  -47.6931 H         1 UNK         0.0600 
    205 H205       -2.0746  -26.1202  -50.7029 H         1 UNK         0.3000 
    206 H206       -2.4785  -25.1629  -52.6136 H         1 UNK         0.0600 
    207 H207       -0.8527  -23.4112  -51.9990 H         1 UNK         0.0600 
    208 H208       -2.1509  -22.7367  -52.9703 H         1 UNK         0.0600 
    209 H209       -2.1191  -22.4483  -51.2443 H         1 UNK         0.0600 
    210 H210       -4.1463  -22.8667  -50.4851 H         1 UNK         0.3000 
    211 H211       -6.1549  -22.0458  -50.2623 H         1 UNK         0.0600 
    212 H212       -8.0783  -23.6081  -50.2860 H         1 UNK         0.0600 
    213 H213       -6.6707  -24.3692  -49.5593 H         1 UNK         0.0600 
    214 H214       -7.1500  -24.7842  -51.2047 H         1 UNK         0.0600 
    215 H215       -5.7504  -23.3684  -53.5053 H         1 UNK         0.3000 
    216 H216       -7.9112  -21.7188  -54.6532 H         1 UNK         0.0600 
    217 H217       -7.5377  -24.0359  -55.4796 H         1 UNK         0.0600 
    218 H218       -5.8876  -23.6330  -55.9400 H         1 UNK         0.0600 
    219 H219       -7.2441  -22.8735  -56.7620 H         1 UNK         0.0600 
    220 H220       -7.5765  -20.1389  -56.2428 H         1 UNK         0.3000 
    221 H221       -5.4536  -18.3140  -55.8839 H         1 UNK         0.0600 
    222 H222       -7.6902  -17.6287  -56.6695 H         1 UNK         0.0600 
    223 H223       -6.4715  -17.1435  -57.8363 H         1 UNK         0.0600 
    224 H224       -7.4832  -18.5465  -58.1618 H         1 UNK         0.0600 
    225 H225       -5.9892  -20.8042  -58.3614 H         1 UNK         0.3000 
    226 H226       -3.6689  -20.1881  -59.9478 H         1 UNK         0.0600 
    227 H227       -5.6577  -21.3585  -60.8709 H         1 UNK         0.0600 
    228 H228       -4.2259  -22.3594  -61.0482 H         1 UNK         0.0600 
    229 H229       -5.3924  -22.7209  -59.7816 H         1 UNK         0.0600 
    230 H230       -4.1399  -22.0324  -57.0034 H         1 UNK         0.3000 
    231 H231       -1.7145  -23.6379  -57.2747 H         1 UNK         0.0600 
    232 H232       -3.6043  -23.2463  -54.9016 H         1 UNK         0.0600 
    233 H233       -2.2792  -24.3994  -54.9857 H         1 UNK         0.0600 
    234 H234       -3.6486  -24.5685  -56.0676 H         1 UNK         0.0600 
    235 H235       -2.7566  -20.7421  -55.3922 H         1 UNK         0.3000 
    236 H236       -0.0704  -19.6952  -55.4237 H         1 UNK         0.0600 
    237 H237        0.2135  -21.3171  -53.5071 H         1 UNK         0.0600 
    238 H238        0.3353  -19.6521  -52.9732 H         1 UNK         0.0600 
    239 H239       -1.1429  -20.5489  -52.6804 H         1 UNK         0.0600 
    240 H240       -3.4371  -19.4299  -54.2316 H         1 UNK         0.3000 
    241 H241       -2.9729  -16.9796  -52.9359 H         1 UNK         0.0600 
    242 H242       -3.3065  -17.1857  -56.3618 H         1 UNK         0.3800 
    243 H243       -3.7606  -15.5129  -56.5660 H         1 UNK         0.3800 
    244 H244       -5.7239  -18.0318  -53.6725 H         1 UNK         0.0800 
    245 H245       -5.3283  -16.9258  -52.3953 H         1 UNK         0.0800 
    246 H246       -4.4901  -17.3955  -50.2319 H         1 UNK         0.0800 
    247 H247       -4.5705  -18.9547  -49.4539 H         1 UNK         0.0800 
@<TRIPOS>BOND
     1    1    2 1    
     2    1  127 1    
     3    1  128 1    
     4    1  129 1    
     5    2    3 2    
     6    2    4 am   BACKBONE|DICT|INTERRES
     7    4    5 1    
     8    4  130 1    
     9    5    6 1    
    10    5   65 1    
    11    5  131 1    
    12    6    7 1    
    13    6  132 1    
    14    6  133 1    
    15    7    8 1    
    16    8    9 1    
    17    8  134 1    
    18    8  135 1    
    19    9   10 ar   
    20    9   14 ar   
    21   10   11 ar   
    22   10  136 1    
    23   11   12 ar   
    24   11  126 1    
    25   12   13 ar   
    26   12  137 1    
    27   13   14 ar   
    28   13   15 1    
    29   14  138 1    
    30   15   16 1    
    31   15  139 1    
    32   15  140 1    
    33   16   17 1    
    34   17   18 1    
    35   17  141 1    
    36   17  142 1    
    37   18   19 1    
    38   18   67 1    
    39   18  143 1    
    40   19   20 am   BACKBONE|DICT|INTERRES
    41   19  144 1    
    42   20   21 2    
    43   20   22 1    
    44   22   23 1    
    45   22   24 1    
    46   22  145 1    
    47   23  146 1    
    48   23  147 1    
    49   23  148 1    
    50   24   25 am   BACKBONE|DICT|INTERRES
    51   24  149 1    
    52   25   26 2    
    53   25   27 1    
    54   27   28 1    
    55   27   29 1    
    56   27  150 1    
    57   28  151 1    
    58   28  152 1    
    59   28  153 1    
    60   29   30 am   BACKBONE|DICT|INTERRES
    61   29  154 1    
    62   30   31 2    
    63   30   32 1    
    64   32   33 1    
    65   32   34 1    
    66   32  155 1    
    67   33  156 1    
    68   33  157 1    
    69   33  158 1    
    70   34   35 am   BACKBONE|DICT|INTERRES
    71   34  159 1    
    72   35   36 2    
    73   35   37 1    
    74   37   38 1    
    75   37   39 1    
    76   37  160 1    
    77   38  161 1    
    78   38  162 1    
    79   38  163 1    
    80   39   40 am   BACKBONE|DICT|INTERRES
    81   39  164 1    
    82   40   41 2    
    83   40   42 1    
    84   42   43 1    
    85   42   44 1    
    86   42  165 1    
    87   43  166 1    
    88   43  167 1    
    89   43  168 1    
    90   44   45 am   BACKBONE|DICT|INTERRES
    91   44  169 1    
    92   45   46 2    
    93   45   47 1    
    94   47   48 1    
    95   47   49 1    
    96   47  170 1    
    97   48  171 1    
    98   48  172 1    
    99   48  173 1    
   100   49   50 am   BACKBONE|DICT|INTERRES
   101   49  174 1    
   102   50   51 2    
   103   50   52 1    
   104   52   53 1    
   105   52   54 1    
   106   52  175 1    
   107   53  176 1    
   108   53  177 1    
   109   53  178 1    
   110   54   55 am   BACKBONE|DICT|INTERRES
   111   54  179 1    
   112   55   56 2    
   113   55   57 1    
   114   57   58 1    
   115   57   59 1    
   116   57  180 1    
   117   58  181 1    
   118   58  182 1    
   119   58  183 1    
   120   59   60 am   BACKBONE|DICT|INTERRES
   121   59  184 1    
   122   60   61 2    
   123   60   62 1    
   124   62   63 1    
   125   62   64 1    
   126   62  185 1    
   127   63  186 1    
   128   63  187 1    
   129   63  188 1    
   130   64   65 am   BACKBONE|DICT|INTERRES
   131   64  189 1    
   132   65   66 2    
   133   67   68 2    
   134   67   69 am   BACKBONE|DICT|INTERRES
   135   69   70 1    
   136   69  190 1    
   137   70   71 1    
   138   70   72 1    
   139   70  191 1    
   140   71  192 1    
   141   71  193 1    
   142   71  194 1    
   143   72   73 2    
   144   72   74 am   BACKBONE|DICT|INTERRES
   145   74   75 1    
   146   74  195 1    
   147   75   76 1    
   148   75   77 1    
   149   75  196 1    
   150   76  197 1    
   151   76  198 1    
   152   76  199 1    
   153   77   78 2    
   154   77   79 am   BACKBONE|DICT|INTERRES
   155   79   80 1    
   156   79  200 1    
   157   80   81 1    
   158   80   82 1    
   159   80  201 1    
   160   81  202 1    
   161   81  203 1    
   162   81  204 1    
   163   82   83 2    
   164   82   84 am   BACKBONE|DICT|INTERRES
   165   84   85 1    
   166   84  205 1    
   167   85   86 1    
   168   85   87 1    
   169   85  206 1    
   170   86  207 1    
   171   86  208 1    
   172   86  209 1    
   173   87   88 2    
   174   87   89 am   BACKBONE|DICT|INTERRES
   175   89   90 1    
   176   89  210 1    
   177   90   91 1    
   178   90   92 1    
   179   90  211 1    
   180   91  212 1    
   181   91  213 1    
   182   91  214 1    
   183   92   93 2    
   184   92   94 am   BACKBONE|DICT|INTERRES
   185   94   95 1    
   186   94  215 1    
   187   95   96 1    
   188   95   97 1    
   189   95  216 1    
   190   96  217 1    
   191   96  218 1    
   192   96  219 1    
   193   97   98 2    
   194   97   99 am   BACKBONE|DICT|INTERRES
   195   99  100 1    
   196   99  220 1    
   197  100  101 1    
   198  100  102 1    
   199  100  221 1    
   200  101  222 1    
   201  101  223 1    
   202  101  224 1    
   203  102  103 2    
   204  102  104 am   BACKBONE|DICT|INTERRES
   205  104  105 1    
   206  104  225 1    
   207  105  106 1    
   208  105  107 1    
   209  105  226 1    
   210  106  227 1    
   211  106  228 1    
   212  106  229 1    
   213  107  108 2    
   214  107  109 am   BACKBONE|DICT|INTERRES
   215  109  110 1    
   216  109  230 1    
   217  110  111 1    
   218  110  112 1    
   219  110  231 1    
   220  111  232 1    
   221  111  233 1    
   222  111  234 1    
   223  112  113 2    
   224  112  114 am   BACKBONE|DICT|INTERRES
   225  114  115 1    
   226  114  235 1    
   227  115  116 1    
   228  115  117 1    
   229  115  236 1    
   230  116  237 1    
   231  116  238 1    
   232  116  239 1    
   233  117  118 2    
   234  117  119 am   BACKBONE|DICT|INTERRES
   235  119  120 1    
   236  119  240 1    
   237  120  121 1    
   238  120  124 1    
   239  120  241 1    
   240  121  122 am   BACKBONE|DICT|INTERRES
   241  121  123 2    
   242  122  242 1    
   243  122  243 1    
   244  124  125 1    
   245  124  244 1    
   246  124  245 1    
   247  125  126 1    
   248  126  246 1    
   249  126  247 1    
@<TRIPOS>SUBSTRUCTURE
     1 UNK         1 GROUP             0       ****    0 ROOT    
