@<TRIPOS>MOLECULE
3R540
247   249    1
SMALL
USER_CHARGES


@<TRIPOS>ATOM
      1 CA         -1.6518  -12.5062  -50.3605 C.3       0 UNK        -0.1800 
      2 C          -0.1639  -12.7556  -50.1618 C.2       0 UNK         0.5000 
      3 O           0.5727  -11.8204  -49.8478 O.2       0 UNK        -0.5000 
      4 N           0.2817  -14.0029  -50.3577 N.am      1 UNK        -0.5000 
      5 CA          1.6779  -14.4238  -50.2070 C.3       1 UNK         0.1400 
      6 C6          1.9597  -15.7508  -50.9588 C.3       23 UNK        -0.0398 
      7 S7          1.1144  -17.2224  -50.2787 S.3       23 UNK        -0.2404 
      8 C8          2.5498  -18.2816  -49.8827 C.3       23 UNK        -0.0205 
      9 C9          2.1947  -19.5933  -49.1851 C.ar      23 UNK        -0.0193 
     10 C10         1.0373  -20.3084  -49.5141 C.ar      23 UNK        -0.1150 
     11 C11         0.7262  -21.4987  -48.8546 C.ar      23 UNK        -0.0193 
     12 C12         1.6079  -22.0036  -47.8981 C.ar      23 UNK        -0.1150 
     13 C13         2.7875  -21.3256  -47.5736 C.ar      23 UNK        -0.0193 
     14 C14         3.0640  -20.1152  -48.2192 C.ar      23 UNK        -0.1150 
     15 C15         3.7988  -21.8755  -46.5612 C.3       23 UNK        -0.0205 
     16 S16         3.1849  -23.1826  -45.4337 S.3       23 UNK        -0.2404 
     17 C17         1.9937  -22.2148  -44.4536 C.3       23 UNK        -0.0398 
     18 CA          1.1199  -23.0101  -43.4527 C.3       11 UNK         0.1400 
     19 N           0.2574  -22.0878  -42.7116 N.am      11 UNK        -0.5000 
     20 C          -0.4896  -22.3729  -41.6376 C.2       10 UNK         0.5000 
     21 O          -0.5166  -23.4751  -41.0897 O.2       10 UNK        -0.5000 
     22 CA         -1.3541  -21.2230  -41.0830 C.3       10 UNK         0.1400 
     23 CB         -0.5242  -20.3032  -40.1741 C.3       10 UNK        -0.1800 
     24 N          -1.9706  -20.4256  -42.1450 N.am      10 UNK        -0.5000 
     25 C          -2.9909  -20.8455  -42.9070 C.2       9 UNK         0.5000 
     26 O          -3.5695  -21.9194  -42.7419 O.2       9 UNK        -0.5000 
     27 CA         -3.4318  -19.9195  -44.0574 C.3       9 UNK         0.1400 
     28 CB         -4.4529  -18.8881  -43.5550 C.3       9 UNK        -0.1800 
     29 N          -2.3196  -19.2227  -44.7052 N.am      9 UNK        -0.5000 
     30 C          -1.3039  -19.8273  -45.3388 C.2       8 UNK         0.5000 
     31 O          -1.1979  -21.0482  -45.4540 O.2       8 UNK        -0.5000 
     32 CA         -0.1769  -18.9124  -45.8525 C.3       8 UNK         0.1400 
     33 CB         -0.6008  -18.1675  -47.1261 C.3       8 UNK        -0.1800 
     34 N           0.2436  -17.9452  -44.8356 N.am      8 UNK        -0.5000 
     35 C           0.8024  -18.2709  -43.6607 C.2       7 UNK         0.5000 
     36 O           1.0520  -19.4246  -43.3221 O.2       7 UNK        -0.5000 
     37 CA          1.0939  -17.1257  -42.6762 C.3       7 UNK         0.1400 
     38 CB          2.5034  -16.5622  -42.8995 C.3       7 UNK        -0.1800 
     39 N           0.1055  -16.0510  -42.7643 N.am      7 UNK        -0.5000 
     40 C          -1.1687  -16.1741  -42.3659 C.2       6 UNK         0.5000 
     41 O          -1.6211  -17.1777  -41.8135 O.2       6 UNK        -0.5000 
     42 CA         -2.0995  -14.9996  -42.7112 C.3       6 UNK         0.1400 
     43 CB         -1.9318  -13.8481  -41.7088 C.3       6 UNK        -0.1800 
     44 N          -1.8703  -14.5164  -44.0767 N.am      6 UNK        -0.5000 
     45 C          -2.2067  -15.2122  -45.1732 C.2       5 UNK         0.5000 
     46 O          -2.7383  -16.3217  -45.1136 O.2       5 UNK        -0.5000 
     47 CA         -1.8600  -14.6393  -46.5640 C.3       5 UNK         0.1400 
     48 CB         -3.1118  -14.5120  -47.4519 C.3       5 UNK        -0.1800 
     49 N          -1.0619  -13.4104  -46.5648 N.am      5 UNK        -0.5000 
     50 C          -1.4310  -12.1759  -46.1990 C.2       4 UNK         0.5000 
     51 O          -2.5595  -11.8880  -45.7978 O.2       4 UNK        -0.5000 
     52 CA         -0.3273  -11.0964  -46.2575 C.3       4 UNK         0.1400 
     53 CB         -0.7395   -9.7882  -45.5518 C.3       4 UNK        -0.1800 
     54 N           0.9734  -11.5468  -45.7430 N.am      4 UNK        -0.5000 
     55 C           1.2317  -12.1027  -44.5505 C.2       3 UNK         0.5000 
     56 O           0.3603  -12.4341  -43.7452 O.2       3 UNK        -0.5000 
     57 CA          2.7179  -12.3628  -44.2284 C.3       3 UNK         0.1400 
     58 CB          2.9397  -12.7706  -42.7610 C.3       3 UNK        -0.1800 
     59 N           3.2703  -13.3981  -45.1020 N.am      3 UNK        -0.5000 
     60 C           3.6602  -13.2038  -46.3676 C.2       2 UNK         0.5000 
     61 O           3.6647  -12.0942  -46.9067 O.2       2 UNK        -0.5000 
     62 CA          4.0922  -14.4398  -47.1886 C.3       2 UNK         0.1400 
     63 CB          3.8931  -15.7950  -46.4698 C.3       2 UNK        -0.1800 
     64 N           3.4359  -14.4570  -48.4999 N.am      2 UNK        -0.5000 
     65 C           2.1133  -14.4691  -48.7245 C.2       1 UNK         0.5000 
     66 O           1.2658  -14.5192  -47.8273 O.2       1 UNK        -0.5000 
     67 C           0.2994  -24.1435  -44.1104 C.2       11 UNK         0.5000 
     68 O           0.6244  -25.3157  -43.9153 O.2       11 UNK        -0.5000 
     69 N          -0.7727  -23.7713  -44.8281 N.am      12 UNK        -0.5000 
     70 CA         -1.8110  -24.6436  -45.3949 C.3       12 UNK         0.1400 
     71 CB         -2.6475  -25.2776  -44.2649 C.3       12 UNK        -0.1800 
     72 C          -1.3010  -25.6903  -46.4146 C.2       12 UNK         0.5000 
     73 O          -1.9080  -26.7523  -46.5666 O.2       12 UNK        -0.5000 
     74 N          -0.1949  -25.3728  -47.0981 N.am      13 UNK        -0.5000 
     75 CA          0.4027  -26.1692  -48.1724 C.3       13 UNK         0.1400 
     76 CB          1.8928  -25.7924  -48.2789 C.3       13 UNK        -0.1800 
     77 C          -0.3336  -25.9812  -49.5199 C.2       13 UNK         0.5000 
     78 O          -1.4087  -25.3801  -49.5719 O.2       13 UNK        -0.5000 
     79 N           0.2654  -26.4866  -50.6042 N.am      14 UNK        -0.5000 
     80 CA         -0.1739  -26.2229  -51.9744 C.3       14 UNK         0.1400 
     81 CB          0.3676  -27.3293  -52.8929 C.3       14 UNK        -0.1800 
     82 C           0.3168  -24.8407  -52.4476 C.2       14 UNK         0.5000 
     83 O           1.4196  -24.4254  -52.0838 O.2       14 UNK        -0.5000 
     84 N          -0.4898  -24.1792  -53.2817 N.am      15 UNK        -0.5000 
     85 CA         -0.1993  -22.9082  -53.9408 C.3       15 UNK         0.1400 
     86 CB         -0.2800  -21.7395  -52.9391 C.3       15 UNK        -0.1800 
     87 C          -1.2056  -22.7184  -55.0839 C.2       15 UNK         0.5000 
     88 O          -2.2350  -23.4017  -55.1103 O.2       15 UNK        -0.5000 
     89 N          -0.9117  -21.7784  -55.9920 N.am      16 UNK        -0.5000 
     90 CA         -1.7899  -21.3676  -57.0905 C.3       16 UNK         0.1400 
     91 CB         -1.0677  -20.3233  -57.9557 C.3       16 UNK        -0.1800 
     92 C          -3.1203  -20.8133  -56.5496 C.2       16 UNK         0.5000 
     93 O          -3.1056  -19.8408  -55.7912 O.2       16 UNK        -0.5000 
     94 N          -4.2267  -21.4976  -56.8781 N.am      17 UNK        -0.5000 
     95 CA         -5.5874  -21.2756  -56.3638 C.3       17 UNK         0.1400 
     96 CB         -6.1595  -19.9511  -56.9108 C.3       17 UNK        -0.1800 
     97 C          -5.6822  -21.3665  -54.8220 C.2       17 UNK         0.5000 
     98 O          -6.5285  -20.7053  -54.2162 O.2       17 UNK        -0.5000 
     99 N          -4.7669  -22.1377  -54.2092 N.am      18 UNK        -0.5000 
    100 CA        -4.5227  -22.2523  -52.7670 C.3       18 UNK         0.1400 
    101 CB        -5.6860  -23.0031  -52.0854 C.3       18 UNK        -0.1800 
    102 C         -4.2209  -20.8926  -52.0980 C.2       18 UNK         0.5000 
    103 O         -4.5786  -20.6935  -50.9377 O.2       18 UNK        -0.5000 
    104 N         -3.6521  -19.9422  -52.8598 N.am      19 UNK        -0.5000 
    105 CA        -3.3976  -18.5411  -52.4910 C.3       19 UNK         0.1400 
    106 CB        -2.2735  -18.4673  -51.4370 C.3       19 UNK        -0.1800 
    107 C         -4.6577  -17.7588  -52.0425 C.2       19 UNK         0.5000 
    108 O         -4.5257  -16.6872  -51.4498 O.2       19 UNK        -0.5000 
    109 N         -5.8495  -18.3234  -52.3020 N.am      20 UNK        -0.5000 
    110 CA        -7.1610  -17.9417  -51.7733 C.3       20 UNK         0.1400 
    111 CB        -7.6201  -16.6022  -52.3861 C.3       20 UNK        -0.1800 
    112 C         -7.2360  -17.9557  -50.2258 C.2       20 UNK         0.5000 
    113 O         -8.0249  -17.1984  -49.6562 O.2       20 UNK        -0.5000 
    114 N         -6.4216  -18.7955  -49.5646 N.am      21 UNK        -0.5000 
    115 CA        -6.2667  -18.7926  -48.1053 C.3       21 UNK         0.1400 
    116 CB        -5.2528  -17.7066  -47.7072 C.3       21 UNK        -0.1800 
    117 C         -5.8512  -20.1468  -47.5062 C.2       21 UNK         0.5000 
    118 O         -6.1879  -20.4128  -46.3520 O.2       21 UNK        -0.5000 
    119 N         -5.1216  -20.9711  -48.2651 N.am      22 UNK        -0.5000 
    120 CA        -4.5262  -22.2360  -47.8022 C.3       22 UNK         0.1400 
    121 C         -5.5218  -23.4268  -47.6986 C.2       22 UNK         0.5000 
    122 N         -6.7489  -23.3152  -48.1926 N.am      22 UNK        -0.7600 
    123 O         -5.1759  -24.4688  -47.1500 O.2       22 UNK        -0.5000 
    124 C124       -3.2914  -22.6274  -48.6543 C.3       23 UNK        -0.0398 
    125 S125       -2.0314  -21.3106  -48.6961 S.3       23 UNK        -0.2404 
    126 C126       -0.5552  -22.2514  -49.1687 C.3       23 UNK        -0.0205 
    127 H127       -1.8046  -11.7648  -51.1448 H         1 UNK         0.0600 
    128 H128       -2.0947  -12.1239  -49.4410 H         1 UNK         0.0600 
    129 H129       -2.1809  -13.4152  -50.6475 H         1 UNK         0.0600 
    130 H130       -0.3716  -14.7431  -50.5690 H         1 UNK         0.3000 
    131 H131        2.2901  -13.6561  -50.6857 H         1 UNK         0.0600 
    132 H132        3.0347  -15.9328  -50.9965 H         1 UNK         0.0800 
    133 H133        1.6553  -15.6476  -52.0012 H         1 UNK         0.0800 
    134 H134        3.0852  -18.5143  -50.8039 H         1 UNK         0.0800 
    135 H135        3.2338  -17.7065  -49.2565 H         1 UNK         0.0800 
    136 H136        0.3586  -19.9306  -50.2649 H         1 UNK         0.1150 
    137 H137        1.3678  -22.9330  -47.4093 H         1 UNK         0.1150 
    138 H138        3.9723  -19.5813  -47.9765 H         1 UNK         0.1150 
    139 H139        4.6466  -22.2787  -47.1164 H         1 UNK         0.0800 
    140 H140        4.1898  -21.0557  -45.9565 H         1 UNK         0.0800 
    141 H141        2.5717  -21.4684  -43.9074 H         1 UNK         0.0800 
    142 H142        1.3560  -21.6545  -45.1356 H         1 UNK         0.0800 
    143 H143        1.7894  -23.4758  -42.7267 H         1 UNK         0.0600 
    144 H144        0.2627  -21.1277  -43.0439 H         1 UNK         0.3000 
    145 H145       -2.1498  -21.6642  -40.4789 H         1 UNK         0.0600 
    146 H146       -1.1403  -19.5125  -39.7455 H         1 UNK         0.0600 
    147 H147        0.2954  -19.8307  -40.7157 H         1 UNK         0.0600 
    148 H148       -0.0895  -20.8637  -39.3456 H         1 UNK         0.0600 
    149 H149       -1.5771  -19.5108  -42.3228 H         1 UNK         0.3000 
    150 H150       -3.9143  -20.5412  -44.8134 H         1 UNK         0.0600 
    151 H151       -4.0161  -18.2159  -42.8157 H         1 UNK         0.0600 
    152 H152       -4.8353  -18.2795  -44.3734 H         1 UNK         0.0600 
    153 H153       -5.3084  -19.3801  -43.0908 H         1 UNK         0.0600 
    154 H154       -2.3488  -18.2076  -44.6840 H         1 UNK         0.3000 
    155 H155        0.6863  -19.5338  -46.0981 H         1 UNK         0.0600 
    156 H156        0.1412  -17.4247  -47.4189 H         1 UNK         0.0600 
    157 H157       -1.5622  -17.6697  -47.0126 H         1 UNK         0.0600 
    158 H158       -0.7074  -18.8576  -47.9600 H         1 UNK         0.0600 
    159 H159        0.0476  -16.9751  -45.0225 H         1 UNK         0.3000 
    160 H160        1.0563  -17.5458  -41.6687 H         1 UNK         0.0600 
    161 H161        2.5663  -15.9970  -43.8274 H         1 UNK         0.0600 
    162 H162        3.2440  -17.3619  -42.9488 H         1 UNK         0.0600 
    163 H163        2.7965  -15.9080  -42.0790 H         1 UNK         0.0600 
    164 H164        0.3906  -15.1855  -43.1990 H         1 UNK         0.3000 
    165 H165       -3.1295  -15.3567  -42.6439 H         1 UNK         0.0600 
    166 H166       -2.5854  -13.0113  -41.9559 H         1 UNK         0.0600 
    167 H167       -2.1864  -14.1737  -40.6995 H         1 UNK         0.0600 
    168 H168       -0.9073  -13.4766  -41.6816 H         1 UNK         0.0600 
    169 H169       -1.3996  -13.6242  -44.1765 H         1 UNK         0.3000 
    170 H170       -1.2148  -15.3794  -47.0346 H         1 UNK         0.0600 
    171 H171       -3.6171  -15.4718  -47.5403 H         1 UNK         0.0600 
    172 H172       -3.8344  -13.8023  -47.0497 H         1 UNK         0.0600 
    173 H173       -2.8524  -14.2007  -48.4610 H         1 UNK         0.0600 
    174 H174       -0.1040  -13.5492  -46.8795 H         1 UNK         0.3000 
    175 H175       -0.1798  -10.8701  -47.3142 H         1 UNK         0.0600 
    176 H176       -0.9309   -9.9470  -44.4899 H         1 UNK         0.0600 
    177 H177        0.0380   -9.0296  -45.6423 H         1 UNK         0.0600 
    178 H178       -1.6473   -9.3732  -45.9914 H         1 UNK         0.0600 
    179 H179        1.7651  -11.4028  -46.3611 H         1 UNK         0.3000 
    180 H180        3.2596  -11.4289  -44.3933 H         1 UNK         0.0600 
    181 H181        2.3760  -13.6645  -42.4978 H         1 UNK         0.0600 
    182 H182        2.6177  -11.9760  -42.0869 H         1 UNK         0.0600 
    183 H183        3.9931  -12.9624  -42.5566 H         1 UNK         0.0600 
    184 H184        3.2778  -14.3380  -44.7377 H         1 UNK         0.3000 
    185 H185        5.1600  -14.3190  -47.3764 H         1 UNK         0.0600 
    186 H186        4.4649  -15.8417  -45.5423 H         1 UNK         0.0600 
    187 H187        2.8462  -15.9879  -46.2335 H         1 UNK         0.0600 
    188 H188        4.2404  -16.6181  -47.0943 H         1 UNK         0.0600 
    189 H189        4.0589  -14.3742  -49.2905 H         1 UNK         0.3000 
    190 H190       -0.9360  -22.7723  -44.9565 H         1 UNK         0.3000 
    191 H191       -2.4743  -23.9817  -45.9514 H         1 UNK         0.0600 
    192 H192       -3.5218  -25.7919  -44.6657 H         1 UNK         0.0600 
    193 H193       -3.0106  -24.5197  -43.5709 H         1 UNK         0.0600 
    194 H194       -2.0697  -26.0050  -43.6941 H         1 UNK         0.0600 
    195 H195        0.2412  -24.4884  -46.8928 H         1 UNK         0.3000 
    196 H196        0.3346  -27.2247  -47.9015 H         1 UNK         0.0600 
    197 H197        2.0303  -24.8021  -48.7144 H         1 UNK         0.0600 
    198 H198        2.3754  -25.7984  -47.3010 H         1 UNK         0.0600 
    199 H199        2.4375  -26.5005  -48.9038 H         1 UNK         0.0600 
    200 H200        1.1661  -26.9305  -50.5033 H         1 UNK         0.3000 
    201 H201       -1.2653  -26.2468  -52.0141 H         1 UNK         0.0600 
    202 H202        0.0397  -27.1777  -53.9221 H         1 UNK         0.0600 
    203 H203        0.0109  -28.3110  -52.5804 H         1 UNK         0.0600 
    204 H204        1.4582  -27.3534  -52.8961 H         1 UNK         0.0600 
    205 H205       -1.3649  -24.5930  -53.5811 H         1 UNK         0.3000 
    206 H206        0.8023  -22.9532  -54.3733 H         1 UNK         0.0600 
    207 H207        0.5100  -21.8062  -52.1916 H         1 UNK         0.0600 
    208 H208       -0.1606  -20.7768  -53.4374 H         1 UNK         0.0600 
    209 H209       -1.2375  -21.7203  -52.4187 H         1 UNK         0.0600 
    210 H210       -0.0614  -21.2451  -55.8830 H         1 UNK         0.3000 
    211 H211       -1.9902  -22.2450  -57.7091 H         1 UNK         0.0600 
    212 H212       -0.8089  -19.4325  -57.3817 H         1 UNK         0.0600 
    213 H213       -1.6964  -20.0056  -58.7885 H         1 UNK         0.0600 
    214 H214       -0.1486  -20.7287  -58.3793 H         1 UNK         0.0600 
    215 H215       -4.1233  -22.3044  -57.4784 H         1 UNK         0.3000 
    216 H216       -6.2016  -22.0888  -56.7527 H         1 UNK         0.0600 
    217 H217       -6.0864  -19.9088  -57.9975 H         1 UNK         0.0600 
    218 H218       -5.6350  -19.0854  -56.5052 H         1 UNK         0.0600 
    219 H219       -7.2140  -19.8433  -56.6542 H         1 UNK         0.0600 
    220 H220       -4.0912  -22.6239  -54.7906 H         1 UNK         0.3000 
    221 H221       -3.6217  -22.8556  -52.6496 H         1 UNK         0.0600 
    222 H222       -5.4626  -23.2191  -51.0409 H         1 UNK         0.0600 
    223 H223       -6.6092  -22.4233  -52.1058 H         1 UNK         0.0600 
    224 H224       -5.8791  -23.9571  -52.5757 H         1 UNK         0.0600 
    225 H225       -3.4531  -20.1595  -53.8316 H         1 UNK         0.3000 
    226 H226       -3.0402  -18.0497  -53.3969 H         1 UNK         0.0600 
    227 H227       -1.3908  -19.0177  -51.7610 H         1 UNK         0.0600 
    228 H228       -1.9636  -17.4366  -51.2624 H         1 UNK         0.0600 
    229 H229       -2.5905  -18.8769  -50.4776 H         1 UNK         0.0600 
    230 H230       -5.8458  -19.1917  -52.8253 H         1 UNK         0.3000 
    231 H231       -7.8540  -18.7128  -52.1124 H         1 UNK         0.0600 
    232 H232       -8.6553  -16.3838  -52.1218 H         1 UNK         0.0600 
    233 H233       -7.5639  -16.6273  -53.4743 H         1 UNK         0.0600 
    234 H234       -7.0106  -15.7681  -52.0374 H         1 UNK         0.0600 
    235 H235       -5.8069  -19.4039  -50.0962 H         1 UNK         0.3000 
    236 H236       -7.2277  -18.5480  -47.6477 H         1 UNK         0.0600 
    237 H237       -5.5999  -16.7179  -48.0069 H         1 UNK         0.0600 
    238 H238       -5.0978  -17.6808  -46.6287 H         1 UNK         0.0600 
    239 H239       -4.2817  -17.8778  -48.1744 H         1 UNK         0.0600 
    240 H240       -4.8756  -20.7166  -49.2193 H         1 UNK         0.3000 
    241 H241       -4.1663  -22.0695  -46.7849 H         1 UNK         0.0600 
    242 H242       -7.0443  -22.4588  -48.6324 H         1 UNK         0.3800 
    243 H243       -7.3891  -24.0894  -48.1142 H         1 UNK         0.3800 
    244 H244       -3.5786  -22.8641  -49.6782 H         1 UNK         0.0800 
    245 H245       -2.8348  -23.5326  -48.2544 H         1 UNK         0.0800 
    246 H246       -0.5986  -22.5128  -50.2245 H         1 UNK         0.0800 
    247 H247       -0.5631  -23.1863  -48.6175 H         1 UNK         0.0800 
@<TRIPOS>BOND
     1    1    2 1    
     2    1  127 1    
     3    1  128 1    
     4    1  129 1    
     5    2    3 2    
     6    2    4 am   BACKBONE|DICT|INTERRES
     7    4    5 1    
     8    4  130 1    
     9    5    6 1    
    10    5   65 1    
    11    5  131 1    
    12    6    7 1    
    13    6  132 1    
    14    6  133 1    
    15    7    8 1    
    16    8    9 1    
    17    8  134 1    
    18    8  135 1    
    19    9   10 ar   
    20    9   14 ar   
    21   10   11 ar   
    22   10  136 1    
    23   11   12 ar   
    24   11  126 1    
    25   12   13 ar   
    26   12  137 1    
    27   13   14 ar   
    28   13   15 1    
    29   14  138 1    
    30   15   16 1    
    31   15  139 1    
    32   15  140 1    
    33   16   17 1    
    34   17   18 1    
    35   17  141 1    
    36   17  142 1    
    37   18   19 1    
    38   18   67 1    
    39   18  143 1    
    40   19   20 am   BACKBONE|DICT|INTERRES
    41   19  144 1    
    42   20   21 2    
    43   20   22 1    
    44   22   23 1    
    45   22   24 1    
    46   22  145 1    
    47   23  146 1    
    48   23  147 1    
    49   23  148 1    
    50   24   25 am   BACKBONE|DICT|INTERRES
    51   24  149 1    
    52   25   26 2    
    53   25   27 1    
    54   27   28 1    
    55   27   29 1    
    56   27  150 1    
    57   28  151 1    
    58   28  152 1    
    59   28  153 1    
    60   29   30 am   BACKBONE|DICT|INTERRES
    61   29  154 1    
    62   30   31 2    
    63   30   32 1    
    64   32   33 1    
    65   32   34 1    
    66   32  155 1    
    67   33  156 1    
    68   33  157 1    
    69   33  158 1    
    70   34   35 am   BACKBONE|DICT|INTERRES
    71   34  159 1    
    72   35   36 2    
    73   35   37 1    
    74   37   38 1    
    75   37   39 1    
    76   37  160 1    
    77   38  161 1    
    78   38  162 1    
    79   38  163 1    
    80   39   40 am   BACKBONE|DICT|INTERRES
    81   39  164 1    
    82   40   41 2    
    83   40   42 1    
    84   42   43 1    
    85   42   44 1    
    86   42  165 1    
    87   43  166 1    
    88   43  167 1    
    89   43  168 1    
    90   44   45 am   BACKBONE|DICT|INTERRES
    91   44  169 1    
    92   45   46 2    
    93   45   47 1    
    94   47   48 1    
    95   47   49 1    
    96   47  170 1    
    97   48  171 1    
    98   48  172 1    
    99   48  173 1    
   100   49   50 am   BACKBONE|DICT|INTERRES
   101   49  174 1    
   102   50   51 2    
   103   50   52 1    
   104   52   53 1    
   105   52   54 1    
   106   52  175 1    
   107   53  176 1    
   108   53  177 1    
   109   53  178 1    
   110   54   55 am   BACKBONE|DICT|INTERRES
   111   54  179 1    
   112   55   56 2    
   113   55   57 1    
   114   57   58 1    
   115   57   59 1    
   116   57  180 1    
   117   58  181 1    
   118   58  182 1    
   119   58  183 1    
   120   59   60 am   BACKBONE|DICT|INTERRES
   121   59  184 1    
   122   60   61 2    
   123   60   62 1    
   124   62   63 1    
   125   62   64 1    
   126   62  185 1    
   127   63  186 1    
   128   63  187 1    
   129   63  188 1    
   130   64   65 am   BACKBONE|DICT|INTERRES
   131   64  189 1    
   132   65   66 2    
   133   67   68 2    
   134   67   69 am   BACKBONE|DICT|INTERRES
   135   69   70 1    
   136   69  190 1    
   137   70   71 1    
   138   70   72 1    
   139   70  191 1    
   140   71  192 1    
   141   71  193 1    
   142   71  194 1    
   143   72   73 2    
   144   72   74 am   BACKBONE|DICT|INTERRES
   145   74   75 1    
   146   74  195 1    
   147   75   76 1    
   148   75   77 1    
   149   75  196 1    
   150   76  197 1    
   151   76  198 1    
   152   76  199 1    
   153   77   78 2    
   154   77   79 am   BACKBONE|DICT|INTERRES
   155   79   80 1    
   156   79  200 1    
   157   80   81 1    
   158   80   82 1    
   159   80  201 1    
   160   81  202 1    
   161   81  203 1    
   162   81  204 1    
   163   82   83 2    
   164   82   84 am   BACKBONE|DICT|INTERRES
   165   84   85 1    
   166   84  205 1    
   167   85   86 1    
   168   85   87 1    
   169   85  206 1    
   170   86  207 1    
   171   86  208 1    
   172   86  209 1    
   173   87   88 2    
   174   87   89 am   BACKBONE|DICT|INTERRES
   175   89   90 1    
   176   89  210 1    
   177   90   91 1    
   178   90   92 1    
   179   90  211 1    
   180   91  212 1    
   181   91  213 1    
   182   91  214 1    
   183   92   93 2    
   184   92   94 am   BACKBONE|DICT|INTERRES
   185   94   95 1    
   186   94  215 1    
   187   95   96 1    
   188   95   97 1    
   189   95  216 1    
   190   96  217 1    
   191   96  218 1    
   192   96  219 1    
   193   97   98 2    
   194   97   99 am   BACKBONE|DICT|INTERRES
   195   99  100 1    
   196   99  220 1    
   197  100  101 1    
   198  100  102 1    
   199  100  221 1    
   200  101  222 1    
   201  101  223 1    
   202  101  224 1    
   203  102  103 2    
   204  102  104 am   BACKBONE|DICT|INTERRES
   205  104  105 1    
   206  104  225 1    
   207  105  106 1    
   208  105  107 1    
   209  105  226 1    
   210  106  227 1    
   211  106  228 1    
   212  106  229 1    
   213  107  108 2    
   214  107  109 am   BACKBONE|DICT|INTERRES
   215  109  110 1    
   216  109  230 1    
   217  110  111 1    
   218  110  112 1    
   219  110  231 1    
   220  111  232 1    
   221  111  233 1    
   222  111  234 1    
   223  112  113 2    
   224  112  114 am   BACKBONE|DICT|INTERRES
   225  114  115 1    
   226  114  235 1    
   227  115  116 1    
   228  115  117 1    
   229  115  236 1    
   230  116  237 1    
   231  116  238 1    
   232  116  239 1    
   233  117  118 2    
   234  117  119 am   BACKBONE|DICT|INTERRES
   235  119  120 1    
   236  119  240 1    
   237  120  121 1    
   238  120  124 1    
   239  120  241 1    
   240  121  122 am   BACKBONE|DICT|INTERRES
   241  121  123 2    
   242  122  242 1    
   243  122  243 1    
   244  124  125 1    
   245  124  244 1    
   246  124  245 1    
   247  125  126 1    
   248  126  246 1    
   249  126  247 1    
@<TRIPOS>SUBSTRUCTURE
     1 UNK         1 GROUP             0       ****    0 ROOT    
