@<TRIPOS>MOLECULE
3R540
247   249    1
SMALL
USER_CHARGES


@<TRIPOS>ATOM
      1 CA          6.5624  -16.3287  -51.5057 C.3       0 UNK        -0.1800 
      2 C           5.1512  -15.8389  -51.2132 C.2       0 UNK         0.5000 
      3 O           4.7433  -14.8034  -51.7390 O.2       0 UNK        -0.5000 
      4 N           4.4095  -16.5806  -50.3782 N.am      1 UNK        -0.5000 
      5 CA          3.0353  -16.2845  -49.9457 C.3       1 UNK         0.1400 
      6 C6          2.0121  -16.3144  -51.1197 C.3       23 UNK        -0.0398 
      7 S7          0.4557  -17.1589  -50.6827 S.3       23 UNK        -0.2404 
      8 C8         -0.6698  -15.7497  -50.4479 C.3       23 UNK        -0.0205 
      9 C9         -2.0813  -16.2271  -50.1536 C.ar      23 UNK        -0.0193 
     10 C10        -3.0677  -16.1756  -51.1402 C.ar      23 UNK        -0.1150 
     11 C11        -4.3559  -16.6500  -50.8792 C.ar      23 UNK        -0.0193 
     12 C12        -4.6566  -17.1574  -49.6106 C.ar      23 UNK        -0.1150 
     13 C13        -3.6846  -17.2026  -48.6046 C.ar      23 UNK        -0.0193 
     14 C14        -2.3949  -16.7352  -48.8915 C.ar      23 UNK        -0.1150 
     15 C15        -4.0524  -17.8213  -47.2547 C.3       23 UNK        -0.0205 
     16 S16        -2.9064  -17.4319  -45.8814 S.3       23 UNK        -0.2404 
     17 C17        -2.9257  -18.9860  -44.9305 C.3       23 UNK        -0.0398 
     18 CA         -1.7667  -19.9387  -45.3295 C.3       11 UNK         0.1400 
     19 N          -1.2779  -20.7150  -44.1859 N.am      11 UNK        -0.5000 
     20 C          -0.2648  -21.5952  -44.2020 C.2       10 UNK         0.5000 
     21 O           0.3420  -21.9106  -45.2272 O.2       10 UNK        -0.5000 
     22 CA          0.1402  -22.2146  -42.8494 C.3       10 UNK         0.1400 
     23 CB          1.6662  -22.3791  -42.7413 C.3       10 UNK        -0.1800 
     24 N          -0.3119  -21.3749  -41.7414 N.am      10 UNK        -0.5000 
     25 C          -1.2166  -21.6903  -40.8079 C.2       9 UNK         0.5000 
     26 O          -1.8036  -22.7723  -40.7615 O.2       9 UNK        -0.5000 
     27 CA         -1.5161  -20.5870  -39.7678 C.3       9 UNK         0.1400 
     28 CB         -2.2312  -21.1125  -38.5057 C.3       9 UNK        -0.1800 
     29 N          -0.3236  -19.8045  -39.4205 N.am      9 UNK        -0.5000 
     30 C           0.7953  -20.2473  -38.8252 C.2       8 UNK         0.5000 
     31 O           0.9323  -21.3915  -38.3900 O.2       8 UNK        -0.5000 
     32 CA          1.9820  -19.2668  -38.7193 C.3       8 UNK         0.1400 
     33 CB          3.1402  -19.7443  -39.6107 C.3       8 UNK        -0.1800 
     34 N           1.6474  -17.8877  -39.0836 N.am      8 UNK        -0.5000 
     35 C           0.9763  -17.0269  -38.3063 C.2       7 UNK         0.5000 
     36 O           0.5959  -17.2910  -37.1654 O.2       7 UNK        -0.5000 
     37 CA          0.6450  -15.6512  -38.9194 C.3       7 UNK         0.1400 
     38 CB          1.8190  -14.6782  -38.7359 C.3       7 UNK        -0.1800 
     39 N           0.2917  -15.7215  -40.3396 N.am      7 UNK        -0.5000 
     40 C          -0.7742  -16.3679  -40.8336 C.2       6 UNK         0.5000 
     41 O          -1.5981  -16.9643  -40.1401 O.2       6 UNK        -0.5000 
     42 CA         -0.9038  -16.4147  -42.3659 C.3       6 UNK         0.1400 
     43 CB         -1.5057  -15.1153  -42.9211 C.3       6 UNK        -0.1800 
     44 N           0.3773  -16.6909  -43.0152 N.am      6 UNK        -0.5000 
     45 C           1.0422  -17.8486  -42.9005 C.2       5 UNK         0.5000 
     46 O           0.6214  -18.8172  -42.2702 O.2       5 UNK        -0.5000 
     47 CA          2.4284  -17.9199  -43.5585 C.3       5 UNK         0.1400 
     48 CB          2.2966  -18.2437  -45.0537 C.3       5 UNK        -0.1800 
     49 N           3.1847  -16.6801  -43.3707 N.am      5 UNK        -0.5000 
     50 C           3.6655  -16.2764  -42.1829 C.2       4 UNK         0.5000 
     51 O           3.5533  -16.9327  -41.1489 O.2       4 UNK        -0.5000 
     52 CA          4.3415  -14.8924  -42.1162 C.3       4 UNK         0.1400 
     53 CB          5.8431  -15.0133  -42.4141 C.3       4 UNK        -0.1800 
     54 N           3.7499  -13.9159  -43.0285 N.am      4 UNK        -0.5000 
     55 C           2.4676  -13.5257  -43.0216 C.2       3 UNK         0.5000 
     56 O           1.6592  -13.8678  -42.1585 O.2       3 UNK        -0.5000 
     57 CA          1.9942  -12.6575  -44.2064 C.3       3 UNK         0.1400 
     58 CB          1.8783  -11.1870  -43.7793 C.3       3 UNK        -0.1800 
     59 N           2.8475  -12.7455  -45.3998 N.am      3 UNK        -0.5000 
     60 C           3.1011  -13.8646  -46.0932 C.2       2 UNK         0.5000 
     61 O           2.6521  -14.9726  -45.7882 O.2       2 UNK        -0.5000 
     62 CA          4.0920  -13.7266  -47.2633 C.3       2 UNK         0.1400 
     63 CB          5.5351  -13.6878  -46.7344 C.3       2 UNK        -0.1800 
     64 N           3.9785  -14.8333  -48.2110 N.am      2 UNK        -0.5000 
     65 C           2.9691  -15.0045  -49.0752 C.2       1 UNK         0.5000 
     66 O           2.0496  -14.1949  -49.2053 O.2       1 UNK        -0.5000 
     67 C          -2.1650  -20.8323  -46.5201 C.2       11 UNK         0.5000 
     68 O          -1.7470  -20.5702  -47.6454 O.2       11 UNK        -0.5000 
     69 N          -2.9257  -21.9001  -46.2394 N.am      12 UNK        -0.5000 
     70 CA         -3.3871  -22.8655  -47.2378 C.3       12 UNK         0.1400 
     71 CB         -4.4369  -23.7909  -46.6069 C.3       12 UNK        -0.1800 
     72 C          -2.2486  -23.6894  -47.8652 C.2       12 UNK         0.5000 
     73 O          -2.3587  -24.0692  -49.0293 O.2       12 UNK        -0.5000 
     74 N          -1.1712  -23.9368  -47.1073 N.am      13 UNK        -0.5000 
     75 CA          0.0252  -24.6182  -47.6013 C.3       13 UNK         0.1400 
     76 CB          0.8855  -25.0987  -46.4221 C.3       13 UNK        -0.1800 
     77 C           0.8286  -23.7142  -48.5510 C.2       13 UNK         0.5000 
     78 O           1.2323  -24.1672  -49.6225 O.2       13 UNK        -0.5000 
     79 N           0.9989  -22.4413  -48.1649 N.am      14 UNK        -0.5000 
     80 CA          1.6533  -21.4090  -48.9718 C.3       14 UNK         0.1400 
     81 CB          1.8602  -20.1507  -48.1165 C.3       14 UNK        -0.1800 
     82 C           0.8778  -21.0768  -50.2613 C.2       14 UNK         0.5000 
     83 O           1.4888  -20.9200  -51.3184 O.2       14 UNK        -0.5000 
     84 N          -0.4548  -21.0174  -50.1528 N.am      15 UNK        -0.5000 
     85 CA         -1.3853  -20.7431  -51.2472 C.3       15 UNK         0.1400 
     86 CB         -2.6741  -20.1677  -50.6474 C.3       15 UNK        -0.1800 
     87 C          -1.6991  -21.9701  -52.1277 C.2       15 UNK         0.5000 
     88 O          -2.5040  -21.8412  -53.0494 O.2       15 UNK        -0.5000 
     89 N          -1.0950  -23.1314  -51.8293 N.am      16 UNK        -0.5000 
     90 CA         -1.2114  -24.4064  -52.5481 C.3       16 UNK         0.1400 
     91 CB         -0.5312  -24.3062  -53.9293 C.3       16 UNK        -0.1800 
     92 C          -2.6649  -24.9221  -52.6250 C.2       16 UNK         0.5000 
     93 O          -3.1664  -25.2145  -53.7103 O.2       16 UNK        -0.5000 
     94 N          -3.3078  -24.9930  -51.4521 N.am      17 UNK        -0.5000 
     95 CA         -4.7094  -25.3336  -51.1733 C.3       17 UNK         0.1400 
     96 CB         -5.1779  -26.6070  -51.9075 C.3       17 UNK        -0.1800 
     97 C          -5.6847  -24.1529  -51.3534 C.2       17 UNK         0.5000 
     98 O          -6.8634  -24.3021  -51.0273 O.2       17 UNK        -0.5000 
     99 N          -5.1757  -22.9964  -51.8026 N.am      18 UNK        -0.5000 
    100 CA        -5.8750  -21.7212  -51.9718 C.3       18 UNK         0.1400 
    101 CB        -6.3119  -21.1595  -50.5981 C.3       18 UNK        -0.1800 
    102 C         -7.0204  -21.7803  -53.0067 C.2       18 UNK         0.5000 
    103 O         -6.9991  -22.6268  -53.9043 O.2       18 UNK        -0.5000 
    104 N         -7.9763  -20.8454  -52.8949 N.am      19 UNK        -0.5000 
    105 CA        -9.1157  -20.6339  -53.7922 C.3       19 UNK         0.1400 
    106 CB       -10.1411  -21.7808  -53.6456 C.3       19 UNK        -0.1800 
    107 C         -8.6365  -20.3889  -55.2370 C.2       19 UNK         0.5000 
    108 O         -7.9564  -19.3913  -55.4819 O.2       19 UNK        -0.5000 
    109 N         -8.9365  -21.3154  -56.1558 N.am      20 UNK        -0.5000 
    110 CA        -8.5028  -21.2905  -57.5552 C.3       20 UNK         0.1400 
    111 CB        -9.1561  -22.4668  -58.2969 C.3       20 UNK        -0.1800 
    112 C         -6.9710  -21.3138  -57.7492 C.2       20 UNK         0.5000 
    113 O         -6.4956  -20.8834  -58.8007 O.2       20 UNK        -0.5000 
    114 N         -6.2251  -21.7948  -56.7437 N.am      21 UNK        -0.5000 
    115 CA        -4.7628  -21.8188  -56.7437 C.3       21 UNK         0.1400 
    116 CB        -4.2755  -22.9065  -55.7761 C.3       21 UNK        -0.1800 
    117 C         -4.1195  -20.4590  -56.4013 C.2       21 UNK         0.5000 
    118 O         -2.9178  -20.3105  -56.6301 O.2       21 UNK        -0.5000 
    119 N         -4.8938  -19.4968  -55.8757 N.am      22 UNK        -0.5000 
    120 CA        -4.3979  -18.1640  -55.4880 C.3       22 UNK         0.1400 
    121 C         -5.2690  -16.9703  -55.9717 C.2       22 UNK         0.5000 
    122 N         -6.5298  -17.1569  -56.3389 N.am      22 UNK        -0.7600 
    123 O         -4.7780  -15.8469  -56.0422 O.2       22 UNK        -0.5000 
    124 C124       -4.0589  -18.0857  -53.9774 C.3       23 UNK        -0.0398 
    125 S125       -5.5141  -18.1930  -52.8730 S.3       23 UNK        -0.2404 
    126 C126       -5.4230  -16.6172  -51.9647 C.3       23 UNK        -0.0205 
    127 H127        6.7876  -17.2570  -50.9801 H         1 UNK         0.0600 
    128 H128        7.2909  -15.5786  -51.1979 H         1 UNK         0.0600 
    129 H129        6.6841  -16.5054  -52.5744 H         1 UNK         0.0600 
    130 H130        4.8111  -17.4232  -49.9907 H         1 UNK         0.3000 
    131 H131        2.7886  -17.0984  -49.2632 H         1 UNK         0.0600 
    132 H132        1.8174  -15.3202  -51.5255 H         1 UNK         0.0800 
    133 H133        2.4246  -16.8815  -51.9552 H         1 UNK         0.0800 
    134 H134       -0.6556  -15.1170  -51.3365 H         1 UNK         0.0800 
    135 H135       -0.3219  -15.1337  -49.6188 H         1 UNK         0.0800 
    136 H136       -2.8264  -15.7757  -52.1143 H         1 UNK         0.1150 
    137 H137       -5.6501  -17.5344  -49.4118 H         1 UNK         0.1150 
    138 H138       -1.6112  -16.7869  -48.1504 H         1 UNK         0.1150 
    139 H139       -5.0520  -17.4954  -46.9634 H         1 UNK         0.0800 
    140 H140       -4.1111  -18.9001  -47.3978 H         1 UNK         0.0800 
    141 H141       -3.9044  -19.4646  -45.0029 H         1 UNK         0.0800 
    142 H142       -2.8295  -18.6988  -43.8839 H         1 UNK         0.0800 
    143 H143       -0.9154  -19.3354  -45.6535 H         1 UNK         0.0600 
    144 H144       -1.7035  -20.5202  -43.2927 H         1 UNK         0.3000 
    145 H145       -0.3208  -23.2025  -42.7963 H         1 UNK         0.0600 
    146 H146        1.9485  -22.8002  -41.7762 H         1 UNK         0.0600 
    147 H147        2.0473  -23.0506  -43.5117 H         1 UNK         0.0600 
    148 H148        2.1803  -21.4233  -42.8516 H         1 UNK         0.0600 
    149 H149        0.0822  -20.4339  -41.7336 H         1 UNK         0.3000 
    150 H150       -2.1959  -19.8894  -40.2589 H         1 UNK         0.0600 
    151 H151       -3.1956  -21.5536  -38.7599 H         1 UNK         0.0600 
    152 H152       -2.4210  -20.3065  -37.7968 H         1 UNK         0.0600 
    153 H153       -1.6482  -21.8791  -37.9950 H         1 UNK         0.0600 
    154 H154       -0.3297  -18.8453  -39.7431 H         1 UNK         0.3000 
    155 H155        2.3232  -19.2799  -37.6822 H         1 UNK         0.0600 
    156 H156        2.8612  -19.7414  -40.6650 H         1 UNK         0.0600 
    157 H157        3.4436  -20.7602  -39.3545 H         1 UNK         0.0600 
    158 H158        4.0167  -19.1071  -39.4933 H         1 UNK         0.0600 
    159 H159        1.9891  -17.5675  -39.9837 H         1 UNK         0.3000 
    160 H160       -0.2173  -15.2488  -38.3840 H         1 UNK         0.0600 
    161 H161        2.7165  -15.0321  -39.2431 H         1 UNK         0.0600 
    162 H162        2.0647  -14.5581  -37.6801 H         1 UNK         0.0600 
    163 H163        1.5793  -13.6902  -39.1297 H         1 UNK         0.0600 
    164 H164        0.8936  -15.2188  -40.9859 H         1 UNK         0.3000 
    165 H165       -1.5847  -17.2302  -42.6120 H         1 UNK         0.0600 
    166 H166       -1.6274  -15.1683  -44.0031 H         1 UNK         0.0600 
    167 H167       -2.4918  -14.9321  -42.4928 H         1 UNK         0.0600 
    168 H168       -0.8864  -14.2476  -42.6957 H         1 UNK         0.0600 
    169 H169        0.8101  -15.9306  -43.5186 H         1 UNK         0.3000 
    170 H170        2.9823  -18.7334  -43.0851 H         1 UNK         0.0600 
    171 H171        1.7842  -19.1961  -45.1956 H         1 UNK         0.0600 
    172 H172        1.7243  -17.4840  -45.5871 H         1 UNK         0.0600 
    173 H173        3.2738  -18.3241  -45.5299 H         1 UNK         0.0600 
    174 H174        3.2563  -16.0661  -44.1754 H         1 UNK         0.3000 
    175 H175        4.2223  -14.5122  -41.1000 H         1 UNK         0.0600 
    176 H176        6.0252  -15.3615  -43.4317 H         1 UNK         0.0600 
    177 H177        6.3487  -14.0554  -42.2907 H         1 UNK         0.0600 
    178 H178        6.3199  -15.7209  -41.7343 H         1 UNK         0.0600 
    179 H179        4.3411  -13.5774  -43.7721 H         1 UNK         0.3000 
    180 H180        1.0001  -13.0127  -44.4853 H         1 UNK         0.0600 
    181 H181        2.8494  -10.7676  -43.5137 H         1 UNK         0.0600 
    182 H182        1.2268  -11.0824  -42.9105 H         1 UNK         0.0600 
    183 H183        1.4536  -10.5763  -44.5762 H         1 UNK         0.0600 
    184 H184        3.2717  -11.8807  -45.7039 H         1 UNK         0.3000 
    185 H185        3.8827  -12.7932  -47.7903 H         1 UNK         0.0600 
    186 H186        5.6864  -12.8454  -46.0583 H         1 UNK         0.0600 
    187 H187        5.7890  -14.5972  -46.1879 H         1 UNK         0.0600 
    188 H188        6.2503  -13.5767  -47.5498 H         1 UNK         0.0600 
    189 H189        4.6897  -15.5467  -48.1565 H         1 UNK         0.3000 
    190 H190       -3.2049  -22.0641  -45.2832 H         1 UNK         0.3000 
    191 H191       -3.8687  -22.3093  -48.0449 H         1 UNK         0.0600 
    192 H192       -5.2901  -23.2236  -46.2346 H         1 UNK         0.0600 
    193 H193       -4.8181  -24.5045  -47.3388 H         1 UNK         0.0600 
    194 H194       -4.0230  -24.3623  -45.7751 H         1 UNK         0.0600 
    195 H195       -1.1215  -23.5396  -46.1804 H         1 UNK         0.3000 
    196 H196       -0.2894  -25.5000  -48.1641 H         1 UNK         0.0600 
    197 H197        1.7457  -25.6667  -46.7784 H         1 UNK         0.0600 
    198 H198        0.3173  -25.7518  -45.7597 H         1 UNK         0.0600 
    199 H199        1.2687  -24.2696  -45.8280 H         1 UNK         0.0600 
    200 H200        0.6438  -22.1574  -47.2574 H         1 UNK         0.3000 
    201 H201        2.6358  -21.7855  -49.2638 H         1 UNK         0.0600 
    202 H202        2.4777  -20.3687  -47.2454 H         1 UNK         0.0600 
    203 H203        0.9133  -19.7394  -47.7643 H         1 UNK         0.0600 
    204 H204        2.3653  -19.3720  -48.6876 H         1 UNK         0.0600 
    205 H205       -0.8686  -21.0840  -49.2257 H         1 UNK         0.3000 
    206 H206       -0.9465  -19.9813  -51.8949 H         1 UNK         0.0600 
    207 H207       -2.4554  -19.3047  -50.0220 H         1 UNK         0.0600 
    208 H208       -3.3614  -19.8332  -51.4227 H         1 UNK         0.0600 
    209 H209       -3.1907  -20.9038  -50.0325 H         1 UNK         0.0600 
    210 H210       -0.4802  -23.1412  -51.0265 H         1 UNK         0.3000 
    211 H211       -0.6564  -25.1400  -51.9614 H         1 UNK         0.0600 
    212 H212       -1.0413  -23.5977  -54.5826 H         1 UNK         0.0600 
    213 H213       -0.5275  -25.2729  -54.4342 H         1 UNK         0.0600 
    214 H214        0.5063  -23.9860  -53.8339 H         1 UNK         0.0600 
    215 H215       -2.7998  -24.6802  -50.6235 H         1 UNK         0.3000 
    216 H216       -4.7286  -25.5613  -50.1065 H         1 UNK         0.0600 
    217 H217       -6.1330  -26.9520  -51.5100 H         1 UNK         0.0600 
    218 H218       -4.4634  -27.4212  -51.7875 H         1 UNK         0.0600 
    219 H219       -5.3208  -26.4335  -52.9742 H         1 UNK         0.0600 
    220 H220       -4.2106  -22.9966  -52.1068 H         1 UNK         0.3000 
    221 H221       -5.1319  -21.0455  -52.3928 H         1 UNK         0.0600 
    222 H222       -7.1694  -21.6994  -50.1949 H         1 UNK         0.0600 
    223 H223       -5.5082  -21.2286  -49.8662 H         1 UNK         0.0600 
    224 H224       -6.5845  -20.1061  -50.6651 H         1 UNK         0.0600 
    225 H225       -7.8771  -20.1603  -52.1596 H         1 UNK         0.3000 
    226 H226       -9.6011  -19.7111  -53.4715 H         1 UNK         0.0600 
    227 H227      -10.4953  -21.8520  -52.6172 H         1 UNK         0.0600 
    228 H228      -11.0166  -21.6089  -54.2731 H         1 UNK         0.0600 
    229 H229       -9.7222  -22.7513  -53.9134 H         1 UNK         0.0600 
    230 H230       -9.4631  -22.1252  -55.8622 H         1 UNK         0.3000 
    231 H231       -8.8691  -20.3615  -57.9968 H         1 UNK         0.0600 
    232 H232       -8.8467  -23.4258  -57.8793 H         1 UNK         0.0600 
    233 H233       -8.8823  -22.4647  -59.3528 H         1 UNK         0.0600 
    234 H234      -10.2437  -22.4118  -58.2453 H         1 UNK         0.0600 
    235 H235       -6.6815  -22.1262  -55.8997 H         1 UNK         0.3000 
    236 H236       -4.4224  -22.0939  -57.7442 H         1 UNK         0.0600 
    237 H237       -4.7231  -23.8745  -56.0015 H         1 UNK         0.0600 
    238 H238       -3.1935  -23.0273  -55.8371 H         1 UNK         0.0600 
    239 H239       -4.5103  -22.6612  -54.7411 H         1 UNK         0.0600 
    240 H240       -5.8808  -19.6682  -55.7294 H         1 UNK         0.3000 
    241 H241       -3.4546  -17.9973  -56.0114 H         1 UNK         0.0600 
    242 H242       -7.0088  -18.0369  -56.1610 H         1 UNK         0.3800 
    243 H243       -7.0633  -16.3666  -56.6629 H         1 UNK         0.3800 
    244 H244       -3.5102  -17.1659  -53.7802 H         1 UNK         0.0800 
    245 H245       -3.3747  -18.8934  -53.7138 H         1 UNK         0.0800 
    246 H246       -6.3956  -16.4188  -51.5124 H         1 UNK         0.0800 
    247 H247       -5.2418  -15.7976  -52.6620 H         1 UNK         0.0800 
@<TRIPOS>BOND
     1    1    2 1    
     2    1  127 1    
     3    1  128 1    
     4    1  129 1    
     5    2    3 2    
     6    2    4 am   BACKBONE|DICT|INTERRES
     7    4    5 1    
     8    4  130 1    
     9    5    6 1    
    10    5   65 1    
    11    5  131 1    
    12    6    7 1    
    13    6  132 1    
    14    6  133 1    
    15    7    8 1    
    16    8    9 1    
    17    8  134 1    
    18    8  135 1    
    19    9   10 ar   
    20    9   14 ar   
    21   10   11 ar   
    22   10  136 1    
    23   11   12 ar   
    24   11  126 1    
    25   12   13 ar   
    26   12  137 1    
    27   13   14 ar   
    28   13   15 1    
    29   14  138 1    
    30   15   16 1    
    31   15  139 1    
    32   15  140 1    
    33   16   17 1    
    34   17   18 1    
    35   17  141 1    
    36   17  142 1    
    37   18   19 1    
    38   18   67 1    
    39   18  143 1    
    40   19   20 am   BACKBONE|DICT|INTERRES
    41   19  144 1    
    42   20   21 2    
    43   20   22 1    
    44   22   23 1    
    45   22   24 1    
    46   22  145 1    
    47   23  146 1    
    48   23  147 1    
    49   23  148 1    
    50   24   25 am   BACKBONE|DICT|INTERRES
    51   24  149 1    
    52   25   26 2    
    53   25   27 1    
    54   27   28 1    
    55   27   29 1    
    56   27  150 1    
    57   28  151 1    
    58   28  152 1    
    59   28  153 1    
    60   29   30 am   BACKBONE|DICT|INTERRES
    61   29  154 1    
    62   30   31 2    
    63   30   32 1    
    64   32   33 1    
    65   32   34 1    
    66   32  155 1    
    67   33  156 1    
    68   33  157 1    
    69   33  158 1    
    70   34   35 am   BACKBONE|DICT|INTERRES
    71   34  159 1    
    72   35   36 2    
    73   35   37 1    
    74   37   38 1    
    75   37   39 1    
    76   37  160 1    
    77   38  161 1    
    78   38  162 1    
    79   38  163 1    
    80   39   40 am   BACKBONE|DICT|INTERRES
    81   39  164 1    
    82   40   41 2    
    83   40   42 1    
    84   42   43 1    
    85   42   44 1    
    86   42  165 1    
    87   43  166 1    
    88   43  167 1    
    89   43  168 1    
    90   44   45 am   BACKBONE|DICT|INTERRES
    91   44  169 1    
    92   45   46 2    
    93   45   47 1    
    94   47   48 1    
    95   47   49 1    
    96   47  170 1    
    97   48  171 1    
    98   48  172 1    
    99   48  173 1    
   100   49   50 am   BACKBONE|DICT|INTERRES
   101   49  174 1    
   102   50   51 2    
   103   50   52 1    
   104   52   53 1    
   105   52   54 1    
   106   52  175 1    
   107   53  176 1    
   108   53  177 1    
   109   53  178 1    
   110   54   55 am   BACKBONE|DICT|INTERRES
   111   54  179 1    
   112   55   56 2    
   113   55   57 1    
   114   57   58 1    
   115   57   59 1    
   116   57  180 1    
   117   58  181 1    
   118   58  182 1    
   119   58  183 1    
   120   59   60 am   BACKBONE|DICT|INTERRES
   121   59  184 1    
   122   60   61 2    
   123   60   62 1    
   124   62   63 1    
   125   62   64 1    
   126   62  185 1    
   127   63  186 1    
   128   63  187 1    
   129   63  188 1    
   130   64   65 am   BACKBONE|DICT|INTERRES
   131   64  189 1    
   132   65   66 2    
   133   67   68 2    
   134   67   69 am   BACKBONE|DICT|INTERRES
   135   69   70 1    
   136   69  190 1    
   137   70   71 1    
   138   70   72 1    
   139   70  191 1    
   140   71  192 1    
   141   71  193 1    
   142   71  194 1    
   143   72   73 2    
   144   72   74 am   BACKBONE|DICT|INTERRES
   145   74   75 1    
   146   74  195 1    
   147   75   76 1    
   148   75   77 1    
   149   75  196 1    
   150   76  197 1    
   151   76  198 1    
   152   76  199 1    
   153   77   78 2    
   154   77   79 am   BACKBONE|DICT|INTERRES
   155   79   80 1    
   156   79  200 1    
   157   80   81 1    
   158   80   82 1    
   159   80  201 1    
   160   81  202 1    
   161   81  203 1    
   162   81  204 1    
   163   82   83 2    
   164   82   84 am   BACKBONE|DICT|INTERRES
   165   84   85 1    
   166   84  205 1    
   167   85   86 1    
   168   85   87 1    
   169   85  206 1    
   170   86  207 1    
   171   86  208 1    
   172   86  209 1    
   173   87   88 2    
   174   87   89 am   BACKBONE|DICT|INTERRES
   175   89   90 1    
   176   89  210 1    
   177   90   91 1    
   178   90   92 1    
   179   90  211 1    
   180   91  212 1    
   181   91  213 1    
   182   91  214 1    
   183   92   93 2    
   184   92   94 am   BACKBONE|DICT|INTERRES
   185   94   95 1    
   186   94  215 1    
   187   95   96 1    
   188   95   97 1    
   189   95  216 1    
   190   96  217 1    
   191   96  218 1    
   192   96  219 1    
   193   97   98 2    
   194   97   99 am   BACKBONE|DICT|INTERRES
   195   99  100 1    
   196   99  220 1    
   197  100  101 1    
   198  100  102 1    
   199  100  221 1    
   200  101  222 1    
   201  101  223 1    
   202  101  224 1    
   203  102  103 2    
   204  102  104 am   BACKBONE|DICT|INTERRES
   205  104  105 1    
   206  104  225 1    
   207  105  106 1    
   208  105  107 1    
   209  105  226 1    
   210  106  227 1    
   211  106  228 1    
   212  106  229 1    
   213  107  108 2    
   214  107  109 am   BACKBONE|DICT|INTERRES
   215  109  110 1    
   216  109  230 1    
   217  110  111 1    
   218  110  112 1    
   219  110  231 1    
   220  111  232 1    
   221  111  233 1    
   222  111  234 1    
   223  112  113 2    
   224  112  114 am   BACKBONE|DICT|INTERRES
   225  114  115 1    
   226  114  235 1    
   227  115  116 1    
   228  115  117 1    
   229  115  236 1    
   230  116  237 1    
   231  116  238 1    
   232  116  239 1    
   233  117  118 2    
   234  117  119 am   BACKBONE|DICT|INTERRES
   235  119  120 1    
   236  119  240 1    
   237  120  121 1    
   238  120  124 1    
   239  120  241 1    
   240  121  122 am   BACKBONE|DICT|INTERRES
   241  121  123 2    
   242  122  242 1    
   243  122  243 1    
   244  124  125 1    
   245  124  244 1    
   246  124  245 1    
   247  125  126 1    
   248  126  246 1    
   249  126  247 1    
@<TRIPOS>SUBSTRUCTURE
     1 UNK         1 GROUP             0       ****    0 ROOT    
