@<TRIPOS>MOLECULE
3R540
247   249    1
SMALL
USER_CHARGES


@<TRIPOS>ATOM
      1 CA          5.7792  -16.5695  -43.3309 C.3       0 UNK        -0.1800 
      2 C           5.6273  -15.8942  -44.6867 C.2       0 UNK         0.5000 
      3 O           6.6156  -15.7319  -45.4018 O.2       0 UNK        -0.5000 
      4 N           4.3921  -15.5091  -45.0357 N.am      1 UNK        -0.5000 
      5 CA          3.9976  -14.8450  -46.2831 C.3       1 UNK         0.1400 
      6 C6          4.0777  -15.7937  -47.5130 C.3       23 UNK        -0.0398 
      7 S7          3.3156  -15.1586  -49.0525 S.3       23 UNK        -0.2404 
      8 C8          1.5209  -15.2508  -48.7243 C.3       23 UNK        -0.0205 
      9 C9          0.8729  -16.6368  -48.7752 C.ar      23 UNK        -0.0193 
     10 C10        -0.4869  -16.7354  -48.4581 C.ar      23 UNK        -0.1150 
     11 C11        -1.1522  -17.9625  -48.5093 C.ar      23 UNK        -0.0193 
     12 C12        -0.4473  -19.1082  -48.8809 C.ar      23 UNK        -0.1150 
     13 C13         0.9072  -19.0305  -49.2117 C.ar      23 UNK        -0.0193 
     14 C14         1.5624  -17.7968  -49.1561 C.ar      23 UNK        -0.1150 
     15 C15         1.6512  -20.2781  -49.6560 C.3       23 UNK        -0.0205 
     16 S16         2.6369  -20.9779  -48.2986 S.3       23 UNK        -0.2404 
     17 C17         2.8579  -22.6905  -48.8819 C.3       23 UNK        -0.0398 
     18 CA          1.9993  -23.7379  -48.1328 C.3       11 UNK         0.1400 
     19 N           2.3365  -23.8586  -46.7133 N.am      11 UNK        -0.5000 
     20 C           2.0673  -24.9512  -45.9854 C.2       10 UNK         0.5000 
     21 O           1.5057  -25.9519  -46.4349 O.2       10 UNK        -0.5000 
     22 CA          2.4634  -24.9029  -44.5000 C.3       10 UNK         0.1400 
     23 CB          3.9890  -24.9798  -44.3326 C.3       10 UNK        -0.1800 
     24 N           1.9545  -23.7158  -43.8122 N.am      10 UNK        -0.5000 
     25 C           0.6548  -23.4376  -43.6424 C.2       9 UNK         0.5000 
     26 O          -0.2593  -24.1235  -44.0963 O.2       9 UNK        -0.5000 
     27 CA          0.3120  -22.1725  -42.8385 C.3       9 UNK         0.1400 
     28 CB          0.2782  -22.4851  -41.3349 C.3       9 UNK        -0.1800 
     29 N           1.2106  -21.0410  -43.0772 N.am      9 UNK        -0.5000 
     30 C           1.3767  -20.4391  -44.2610 C.2       8 UNK         0.5000 
     31 O           0.8942  -20.8507  -45.3177 O.2       8 UNK        -0.5000 
     32 CA          2.1615  -19.1239  -44.2538 C.3       8 UNK         0.1400 
     33 CB          3.4329  -19.2000  -45.1114 C.3       8 UNK        -0.1800 
     34 N           1.2592  -18.1050  -44.7694 N.am      8 UNK        -0.5000 
     35 C           1.2180  -16.8284  -44.3819 C.2       7 UNK         0.5000 
     36 O           2.0673  -16.3145  -43.6491 O.2       7 UNK        -0.5000 
     37 CA          0.0546  -15.9893  -44.9520 C.3       7 UNK         0.1400 
     38 CB         -1.3068  -16.7098  -44.8385 C.3       7 UNK        -0.1800 
     39 N          -0.0370  -14.6361  -44.3985 N.am      7 UNK        -0.5000 
     40 C          -0.2724  -14.2829  -43.1252 C.2       6 UNK         0.5000 
     41 O          -0.4404  -15.0735  -42.1955 O.2       6 UNK        -0.5000 
     42 CA         -0.3853  -12.7717  -42.8633 C.3       6 UNK         0.1400 
     43 CB          1.0004  -12.1039  -42.8520 C.3       6 UNK        -0.1800 
     44 N          -1.2385  -12.1304  -43.8649 N.am      6 UNK        -0.5000 
     45 C          -2.5792  -12.1801  -43.8559 C.2       5 UNK         0.5000 
     46 O          -3.2375  -12.7007  -42.9547 O.2       5 UNK        -0.5000 
     47 CA         -3.3145  -11.5378  -45.0487 C.3       5 UNK         0.1400 
     48 CB         -3.6810  -10.0801  -44.7299 C.3       5 UNK        -0.1800 
     49 N          -2.5340  -11.5712  -46.2856 N.am      5 UNK        -0.5000 
     50 C          -2.3213  -12.6679  -47.0271 C.2       4 UNK         0.5000 
     51 O          -2.8123  -13.7693  -46.7831 O.2       4 UNK        -0.5000 
     52 CA         -1.3659  -12.5093  -48.2269 C.3       4 UNK         0.1400 
     53 CB         -2.1475  -12.1594  -49.5014 C.3       4 UNK        -0.1800 
     54 N          -0.3191  -11.5048  -48.0048 N.am      4 UNK        -0.5000 
     55 C           0.6300  -11.6080  -47.0673 C.2       3 UNK         0.5000 
     56 O           0.7311  -12.5770  -46.3050 O.2       3 UNK        -0.5000 
     57 CA          1.5901  -10.4198  -46.9146 C.3       3 UNK         0.1400 
     58 CB          0.9181   -9.2606  -46.1577 C.3       3 UNK        -0.1800 
     59 N           2.7334  -10.9058  -46.1621 N.am      3 UNK        -0.5000 
     60 C           3.9706  -10.4033  -46.1194 C.2       2 UNK         0.5000 
     61 O           4.3079   -9.3484  -46.6574 O.2       2 UNK        -0.5000 
     62 CA          5.0102  -11.2556  -45.3602 C.3       2 UNK         0.1400 
     63 CB          5.1467  -10.7719  -43.9085 C.3       2 UNK        -0.1800 
     64 N           4.6508  -12.6784  -45.3570 N.am      2 UNK        -0.5000 
     65 C           4.6944  -13.4713  -46.4388 C.2       1 UNK         0.5000 
     66 O           5.2318  -13.1389  -47.4961 O.2       1 UNK        -0.5000 
     67 C           0.4847  -23.5436  -48.3436 C.2       11 UNK         0.5000 
     68 O          -0.0523  -24.0832  -49.3095 O.2       11 UNK        -0.5000 
     69 N          -0.1877  -22.8299  -47.4252 N.am      12 UNK        -0.5000 
     70 CA         -1.6400  -22.6514  -47.4307 C.3       12 UNK         0.1400 
     71 CB         -2.0555  -21.6474  -46.3463 C.3       12 UNK        -0.1800 
     72 C          -2.3961  -23.9804  -47.2660 C.2       12 UNK         0.5000 
     73 O          -3.3563  -24.2152  -47.9980 O.2       12 UNK        -0.5000 
     74 N          -1.9273  -24.8419  -46.3512 N.am      13 UNK        -0.5000 
     75 CA         -2.4548  -26.1900  -46.1387 C.3       13 UNK         0.1400 
     76 CB         -1.8389  -26.8010  -44.8714 C.3       13 UNK        -0.1800 
     77 C          -2.2285  -27.1098  -47.3503 C.2       13 UNK         0.5000 
     78 O          -3.1522  -27.8219  -47.7438 O.2       13 UNK        -0.5000 
     79 N          -1.0275  -27.0497  -47.9455 N.am      14 UNK        -0.5000 
     80 CA         -0.6641  -27.7968  -49.1539 C.3       14 UNK         0.1400 
     81 CB          0.8387  -27.6332  -49.4253 C.3       14 UNK        -0.1800 
     82 C          -1.4908  -27.3819  -50.3873 C.2       14 UNK         0.5000 
     83 O          -1.8904  -28.2405  -51.1741 O.2       14 UNK        -0.5000 
     84 N          -1.7604  -26.0763  -50.5089 N.am      15 UNK        -0.5000 
     85 CA         -2.6091  -25.4748  -51.5375 C.3       15 UNK         0.1400 
     86 CB         -2.2740  -23.9771  -51.6112 C.3       15 UNK        -0.1800 
     87 C          -4.1198  -25.6573  -51.2853 C.2       15 UNK         0.5000 
     88 O          -4.9169  -25.3235  -52.1651 O.2       15 UNK        -0.5000 
     89 N          -4.4868  -26.1152  -50.0772 N.am      16 UNK        -0.5000 
     90 CA         -5.8449  -26.2056  -49.5268 C.3       16 UNK         0.1400 
     91 CB         -6.6403  -27.3189  -50.2381 C.3       16 UNK        -0.1800 
     92 C          -6.5743  -24.8435  -49.5391 C.2       16 UNK         0.5000 
     93 O          -7.7785  -24.7865  -49.7951 O.2       16 UNK        -0.5000 
     94 N          -5.8020  -23.7656  -49.3311 N.am      17 UNK        -0.5000 
     95 CA         -6.1026  -22.3379  -49.4946 C.3       17 UNK         0.1400 
     96 CB         -7.1841  -21.8773  -48.5019 C.3       17 UNK        -0.1800 
     97 C          -6.4564  -21.9144  -50.9365 C.2       17 UNK         0.5000 
     98 O          -5.9789  -20.8758  -51.3944 O.2       17 UNK        -0.5000 
     99 N          -7.2786  -22.7155  -51.6226 N.am      18 UNK        -0.5000 
    100 CA        -7.8440  -22.4757  -52.9472 C.3       18 UNK         0.1400 
    101 CB        -8.7793  -23.6385  -53.3109 C.3       18 UNK        -0.1800 
    102 C         -6.7996  -22.2552  -54.0525 C.2       18 UNK         0.5000 
    103 O         -6.9346  -21.2998  -54.8173 O.2       18 UNK        -0.5000 
    104 N         -5.7626  -23.1049  -54.1083 N.am      19 UNK        -0.5000 
    105 CA        -4.7138  -23.0200  -55.1332 C.3       19 UNK         0.1400 
    106 CB        -3.9542  -24.3525  -55.2175 C.3       19 UNK        -0.1800 
    107 C         -3.7475  -21.8359  -54.9242 C.2       19 UNK         0.5000 
    108 O         -3.0829  -21.4239  -55.8753 O.2       19 UNK        -0.5000 
    109 N         -3.7069  -21.2950  -53.6992 N.am      20 UNK        -0.5000 
    110 CA        -2.9679  -20.0845  -53.3387 C.3       20 UNK         0.1400 
    111 CB        -2.4563  -20.2348  -51.8956 C.3       20 UNK        -0.1800 
    112 C         -3.8276  -18.8113  -53.4923 C.2       20 UNK         0.5000 
    113 O         -3.2953  -17.7104  -53.3507 O.2       20 UNK        -0.5000 
    114 N         -5.1306  -18.9826  -53.7732 N.am      21 UNK        -0.5000 
    115 CA        -6.1802  -17.9605  -53.8440 C.3       21 UNK         0.1400 
    116 CB        -5.9156  -16.9649  -54.9929 C.3       21 UNK        -0.1800 
    117 C         -6.4429  -17.2720  -52.4864 C.2       21 UNK         0.5000 
    118 O         -6.8243  -16.1004  -52.4515 O.2       21 UNK        -0.5000 
    119 N         -6.2451  -18.0195  -51.3938 N.am      22 UNK        -0.5000 
    120 CA        -6.4161  -17.5634  -50.0046 C.3       22 UNK         0.1400 
    121 C         -7.8243  -17.8733  -49.4187 C.2       22 UNK         0.5000 
    122 N         -8.7137  -18.5488  -50.1370 N.am      22 UNK        -0.7600 
    123 O         -8.1222  -17.4832  -48.2933 O.2       22 UNK        -0.5000 
    124 C124       -5.2964  -18.1157  -49.0841 C.3       23 UNK        -0.0398 
    125 S125       -3.6333  -17.6204  -49.6426 S.3       23 UNK        -0.2404 
    126 C126       -2.6356  -18.0468  -48.1871 C.3       23 UNK        -0.0205 
    127 H127        4.8209  -16.6731  -42.8207 H         1 UNK         0.0600 
    128 H128        6.2072  -17.5644  -43.4530 H         1 UNK         0.0600 
    129 H129        6.4433  -15.9863  -42.6932 H         1 UNK         0.0600 
    130 H130        3.6232  -15.7131  -44.3984 H         1 UNK         0.3000 
    131 H131        2.9434  -14.6067  -46.1399 H         1 UNK         0.0600 
    132 H132        5.1196  -16.0321  -47.7311 H         1 UNK         0.0800 
    133 H133        3.6010  -16.7445  -47.2710 H         1 UNK         0.0800 
    134 H134        1.0287  -14.6315  -49.4752 H         1 UNK         0.0800 
    135 H135        1.3102  -14.7795  -47.7661 H         1 UNK         0.0800 
    136 H136       -1.0412  -15.8500  -48.1797 H         1 UNK         0.1150 
    137 H137       -0.9580  -20.0586  -48.9328 H         1 UNK         0.1150 
    138 H138        2.6077  -17.7559  -49.4232 H         1 UNK         0.1150 
    139 H139        0.9392  -21.0208  -50.0196 H         1 UNK         0.0800 
    140 H140        2.3067  -20.0431  -50.4957 H         1 UNK         0.0800 
    141 H141        2.6646  -22.7432  -49.9548 H         1 UNK         0.0800 
    142 H142        3.9127  -22.9435  -48.7682 H         1 UNK         0.0800 
    143 H143        2.2429  -24.6972  -48.5948 H         1 UNK         0.0600 
    144 H144        2.7505  -23.0502  -46.2721 H         1 UNK         0.3000 
    145 H145        2.0268  -25.7793  -44.0161 H         1 UNK         0.0600 
    146 H146        4.2660  -25.0548  -43.2809 H         1 UNK         0.0600 
    147 H147        4.3929  -25.8589  -44.8368 H         1 UNK         0.0600 
    148 H148        4.4882  -24.1040  -44.7489 H         1 UNK         0.0600 
    149 H149        2.6362  -23.0857  -43.4163 H         1 UNK         0.3000 
    150 H150       -0.6905  -21.8609  -43.1385 H         1 UNK         0.0600 
    151 H151       -0.4002  -23.3129  -41.1230 H         1 UNK         0.0600 
    152 H152       -0.0711  -21.6269  -40.7605 H         1 UNK         0.0600 
    153 H153        1.2633  -22.7637  -40.9586 H         1 UNK         0.0600 
    154 H154        1.6407  -20.6349  -42.2588 H         1 UNK         0.3000 
    155 H155        2.4435  -18.8876  -43.2253 H         1 UNK         0.0600 
    156 H156        4.0688  -18.3349  -44.9421 H         1 UNK         0.0600 
    157 H157        3.1968  -19.2258  -46.1733 H         1 UNK         0.0600 
    158 H158        4.0207  -20.0878  -44.8753 H         1 UNK         0.0600 
    159 H159        0.5476  -18.4651  -45.3922 H         1 UNK         0.3000 
    160 H160        0.2745  -15.8521  -46.0070 H         1 UNK         0.0600 
    161 H161       -2.1117  -16.0866  -45.2288 H         1 UNK         0.0600 
    162 H162       -1.5492  -16.9578  -43.8048 H         1 UNK         0.0600 
    163 H163       -1.3196  -17.6390  -45.4082 H         1 UNK         0.0600 
    164 H164        0.1242  -13.8885  -45.0674 H         1 UNK         0.3000 
    165 H165       -0.8323  -12.6300  -41.8768 H         1 UNK         0.0600 
    166 H166        1.5257  -12.2326  -43.7972 H         1 UNK         0.0600 
    167 H167        0.9219  -11.0346  -42.6555 H         1 UNK         0.0600 
    168 H168        1.6292  -12.5328  -42.0709 H         1 UNK         0.0600 
    169 H169       -0.7757  -11.7275  -44.6653 H         1 UNK         0.3000 
    170 H170       -4.2398  -12.0959  -45.2080 H         1 UNK         0.0600 
    171 H171       -4.2859  -10.0188  -43.8243 H         1 UNK         0.0600 
    172 H172       -2.7932   -9.4659  -44.5738 H         1 UNK         0.0600 
    173 H173       -4.2614   -9.6336  -45.5375 H         1 UNK         0.0600 
    174 H174       -2.1047  -10.7054  -46.5759 H         1 UNK         0.3000 
    175 H175       -0.8784  -13.4723  -48.3831 H         1 UNK         0.0600 
    176 H176       -2.6422  -11.1909  -49.4182 H         1 UNK         0.0600 
    177 H177       -1.4906  -12.1289  -50.3708 H         1 UNK         0.0600 
    178 H178       -2.9172  -12.9057  -49.7038 H         1 UNK         0.0600 
    179 H179       -0.3469  -10.6845  -48.5937 H         1 UNK         0.3000 
    180 H180        1.9144  -10.0925  -47.9044 H         1 UNK         0.0600 
    181 H181        0.5821   -9.5681  -45.1664 H         1 UNK         0.0600 
    182 H182        0.0494   -8.8858  -46.7000 H         1 UNK         0.0600 
    183 H183        1.6037   -8.4227  -46.0305 H         1 UNK         0.0600 
    184 H184        2.5589  -11.8013  -45.7256 H         1 UNK         0.3000 
    185 H185        5.9746  -11.1366  -45.8585 H         1 UNK         0.0600 
    186 H186        5.4369   -9.7210  -43.8738 H         1 UNK         0.0600 
    187 H187        4.2091  -10.8716  -43.3598 H         1 UNK         0.0600 
    188 H188        5.9109  -11.3370  -43.3746 H         1 UNK         0.0600 
    189 H189        4.2531  -13.0451  -44.5044 H         1 UNK         0.3000 
    190 H190        0.3244  -22.3741  -46.6771 H         1 UNK         0.3000 
    191 H191       -1.9179  -22.2340  -48.4006 H         1 UNK         0.0600 
    192 H192       -3.1316  -21.4711  -46.3688 H         1 UNK         0.0600 
    193 H193       -1.5645  -20.6852  -46.4892 H         1 UNK         0.0600 
    194 H194       -1.8010  -22.0058  -45.3489 H         1 UNK         0.0600 
    195 H195       -1.1616  -24.5571  -45.7465 H         1 UNK         0.3000 
    196 H196       -3.5324  -26.1060  -45.9834 H         1 UNK         0.0600 
    197 H197       -2.2131  -27.8113  -44.7012 H         1 UNK         0.0600 
    198 H198       -2.0880  -26.2104  -43.9898 H         1 UNK         0.0600 
    199 H199       -0.7518  -26.8587  -44.9390 H         1 UNK         0.0600 
    200 H200       -0.3101  -26.4600  -47.5393 H         1 UNK         0.3000 
    201 H201       -0.8612  -28.8537  -48.9627 H         1 UNK         0.0600 
    202 H202        1.4328  -27.9654  -48.5737 H         1 UNK         0.0600 
    203 H203        1.0998  -26.5954  -49.6316 H         1 UNK         0.0600 
    204 H204        1.1456  -28.2258  -50.2880 H         1 UNK         0.0600 
    205 H205       -1.3237  -25.4285  -49.8584 H         1 UNK         0.3000 
    206 H206       -2.3763  -25.9339  -52.5001 H         1 UNK         0.0600 
    207 H207       -1.2317  -23.8175  -51.8875 H         1 UNK         0.0600 
    208 H208       -2.8868  -23.4702  -52.3525 H         1 UNK         0.0600 
    209 H209       -2.4479  -23.4796  -50.6564 H         1 UNK         0.0600 
    210 H210       -3.7470  -26.3378  -49.4241 H         1 UNK         0.3000 
    211 H211       -5.7352  -26.4870  -48.4787 H         1 UNK         0.0600 
    212 H212       -6.8326  -27.0741  -51.2833 H         1 UNK         0.0600 
    213 H213       -7.6052  -27.4800  -49.7563 H         1 UNK         0.0600 
    214 H214       -6.1016  -28.2660  -50.2090 H         1 UNK         0.0600 
    215 H215       -4.8387  -23.9593  -49.0629 H         1 UNK         0.3000 
    216 H216       -5.1788  -21.8166  -49.2386 H         1 UNK         0.0600 
    217 H217       -8.1462  -22.3517  -48.6969 H         1 UNK         0.0600 
    218 H218       -7.3363  -20.7996  -48.5628 H         1 UNK         0.0600 
    219 H219       -6.8986  -22.1072  -47.4754 H         1 UNK         0.0600 
    220 H220       -7.6040  -23.5480  -51.1374 H         1 UNK         0.3000 
    221 H221       -8.4446  -21.5664  -52.8798 H         1 UNK         0.0600 
    222 H222       -8.2462  -24.5901  -53.3350 H         1 UNK         0.0600 
    223 H223       -9.5921  -23.7300  -52.5901 H         1 UNK         0.0600 
    224 H224       -9.2308  -23.4876  -54.2924 H         1 UNK         0.0600 
    225 H225       -5.6881  -23.8581  -53.4307 H         1 UNK         0.3000 
    226 H226       -5.2011  -22.8643  -56.0983 H         1 UNK         0.0600 
    227 H227       -4.6359  -25.1853  -55.3911 H         1 UNK         0.0600 
    228 H228       -3.2398  -24.3405  -56.0415 H         1 UNK         0.0600 
    229 H229       -3.3953  -24.5626  -54.3085 H         1 UNK         0.0600 
    230 H230       -4.3139  -21.6753  -52.9862 H         1 UNK         0.3000 
    231 H231       -2.1006  -19.9720  -53.9923 H         1 UNK         0.0600 
    232 H232       -3.2745  -20.3653  -51.1868 H         1 UNK         0.0600 
    233 H233       -1.8938  -19.3527  -51.5869 H         1 UNK         0.0600 
    234 H234       -1.7873  -21.0894  -51.7995 H         1 UNK         0.0600 
    235 H235       -5.4612  -19.9316  -53.8907 H         1 UNK         0.3000 
    236 H236       -7.0987  -18.4968  -54.0861 H         1 UNK         0.0600 
    237 H237       -5.7321  -17.4870  -55.9320 H         1 UNK         0.0600 
    238 H238       -6.7751  -16.3120  -55.1488 H         1 UNK         0.0600 
    239 H239       -5.0557  -16.3267  -54.7888 H         1 UNK         0.0600 
    240 H240       -5.9680  -18.9911  -51.5068 H         1 UNK         0.3000 
    241 H241       -6.3321  -16.4753  -49.9847 H         1 UNK         0.0600 
    242 H242       -8.4852  -18.8636  -51.0655 H         1 UNK         0.3800 
    243 H243       -9.6262  -18.7342  -49.7514 H         1 UNK         0.3800 
    244 H244       -5.4305  -17.7578  -48.0617 H         1 UNK         0.0800 
    245 H245       -5.3373  -19.2049  -49.0416 H         1 UNK         0.0800 
    246 H246       -2.8930  -19.0521  -47.8510 H         1 UNK         0.0800 
    247 H247       -2.8836  -17.3686  -47.3696 H         1 UNK         0.0800 
@<TRIPOS>BOND
     1    1    2 1    
     2    1  127 1    
     3    1  128 1    
     4    1  129 1    
     5    2    3 2    
     6    2    4 am   BACKBONE|DICT|INTERRES
     7    4    5 1    
     8    4  130 1    
     9    5    6 1    
    10    5   65 1    
    11    5  131 1    
    12    6    7 1    
    13    6  132 1    
    14    6  133 1    
    15    7    8 1    
    16    8    9 1    
    17    8  134 1    
    18    8  135 1    
    19    9   10 ar   
    20    9   14 ar   
    21   10   11 ar   
    22   10  136 1    
    23   11   12 ar   
    24   11  126 1    
    25   12   13 ar   
    26   12  137 1    
    27   13   14 ar   
    28   13   15 1    
    29   14  138 1    
    30   15   16 1    
    31   15  139 1    
    32   15  140 1    
    33   16   17 1    
    34   17   18 1    
    35   17  141 1    
    36   17  142 1    
    37   18   19 1    
    38   18   67 1    
    39   18  143 1    
    40   19   20 am   BACKBONE|DICT|INTERRES
    41   19  144 1    
    42   20   21 2    
    43   20   22 1    
    44   22   23 1    
    45   22   24 1    
    46   22  145 1    
    47   23  146 1    
    48   23  147 1    
    49   23  148 1    
    50   24   25 am   BACKBONE|DICT|INTERRES
    51   24  149 1    
    52   25   26 2    
    53   25   27 1    
    54   27   28 1    
    55   27   29 1    
    56   27  150 1    
    57   28  151 1    
    58   28  152 1    
    59   28  153 1    
    60   29   30 am   BACKBONE|DICT|INTERRES
    61   29  154 1    
    62   30   31 2    
    63   30   32 1    
    64   32   33 1    
    65   32   34 1    
    66   32  155 1    
    67   33  156 1    
    68   33  157 1    
    69   33  158 1    
    70   34   35 am   BACKBONE|DICT|INTERRES
    71   34  159 1    
    72   35   36 2    
    73   35   37 1    
    74   37   38 1    
    75   37   39 1    
    76   37  160 1    
    77   38  161 1    
    78   38  162 1    
    79   38  163 1    
    80   39   40 am   BACKBONE|DICT|INTERRES
    81   39  164 1    
    82   40   41 2    
    83   40   42 1    
    84   42   43 1    
    85   42   44 1    
    86   42  165 1    
    87   43  166 1    
    88   43  167 1    
    89   43  168 1    
    90   44   45 am   BACKBONE|DICT|INTERRES
    91   44  169 1    
    92   45   46 2    
    93   45   47 1    
    94   47   48 1    
    95   47   49 1    
    96   47  170 1    
    97   48  171 1    
    98   48  172 1    
    99   48  173 1    
   100   49   50 am   BACKBONE|DICT|INTERRES
   101   49  174 1    
   102   50   51 2    
   103   50   52 1    
   104   52   53 1    
   105   52   54 1    
   106   52  175 1    
   107   53  176 1    
   108   53  177 1    
   109   53  178 1    
   110   54   55 am   BACKBONE|DICT|INTERRES
   111   54  179 1    
   112   55   56 2    
   113   55   57 1    
   114   57   58 1    
   115   57   59 1    
   116   57  180 1    
   117   58  181 1    
   118   58  182 1    
   119   58  183 1    
   120   59   60 am   BACKBONE|DICT|INTERRES
   121   59  184 1    
   122   60   61 2    
   123   60   62 1    
   124   62   63 1    
   125   62   64 1    
   126   62  185 1    
   127   63  186 1    
   128   63  187 1    
   129   63  188 1    
   130   64   65 am   BACKBONE|DICT|INTERRES
   131   64  189 1    
   132   65   66 2    
   133   67   68 2    
   134   67   69 am   BACKBONE|DICT|INTERRES
   135   69   70 1    
   136   69  190 1    
   137   70   71 1    
   138   70   72 1    
   139   70  191 1    
   140   71  192 1    
   141   71  193 1    
   142   71  194 1    
   143   72   73 2    
   144   72   74 am   BACKBONE|DICT|INTERRES
   145   74   75 1    
   146   74  195 1    
   147   75   76 1    
   148   75   77 1    
   149   75  196 1    
   150   76  197 1    
   151   76  198 1    
   152   76  199 1    
   153   77   78 2    
   154   77   79 am   BACKBONE|DICT|INTERRES
   155   79   80 1    
   156   79  200 1    
   157   80   81 1    
   158   80   82 1    
   159   80  201 1    
   160   81  202 1    
   161   81  203 1    
   162   81  204 1    
   163   82   83 2    
   164   82   84 am   BACKBONE|DICT|INTERRES
   165   84   85 1    
   166   84  205 1    
   167   85   86 1    
   168   85   87 1    
   169   85  206 1    
   170   86  207 1    
   171   86  208 1    
   172   86  209 1    
   173   87   88 2    
   174   87   89 am   BACKBONE|DICT|INTERRES
   175   89   90 1    
   176   89  210 1    
   177   90   91 1    
   178   90   92 1    
   179   90  211 1    
   180   91  212 1    
   181   91  213 1    
   182   91  214 1    
   183   92   93 2    
   184   92   94 am   BACKBONE|DICT|INTERRES
   185   94   95 1    
   186   94  215 1    
   187   95   96 1    
   188   95   97 1    
   189   95  216 1    
   190   96  217 1    
   191   96  218 1    
   192   96  219 1    
   193   97   98 2    
   194   97   99 am   BACKBONE|DICT|INTERRES
   195   99  100 1    
   196   99  220 1    
   197  100  101 1    
   198  100  102 1    
   199  100  221 1    
   200  101  222 1    
   201  101  223 1    
   202  101  224 1    
   203  102  103 2    
   204  102  104 am   BACKBONE|DICT|INTERRES
   205  104  105 1    
   206  104  225 1    
   207  105  106 1    
   208  105  107 1    
   209  105  226 1    
   210  106  227 1    
   211  106  228 1    
   212  106  229 1    
   213  107  108 2    
   214  107  109 am   BACKBONE|DICT|INTERRES
   215  109  110 1    
   216  109  230 1    
   217  110  111 1    
   218  110  112 1    
   219  110  231 1    
   220  111  232 1    
   221  111  233 1    
   222  111  234 1    
   223  112  113 2    
   224  112  114 am   BACKBONE|DICT|INTERRES
   225  114  115 1    
   226  114  235 1    
   227  115  116 1    
   228  115  117 1    
   229  115  236 1    
   230  116  237 1    
   231  116  238 1    
   232  116  239 1    
   233  117  118 2    
   234  117  119 am   BACKBONE|DICT|INTERRES
   235  119  120 1    
   236  119  240 1    
   237  120  121 1    
   238  120  124 1    
   239  120  241 1    
   240  121  122 am   BACKBONE|DICT|INTERRES
   241  121  123 2    
   242  122  242 1    
   243  122  243 1    
   244  124  125 1    
   245  124  244 1    
   246  124  245 1    
   247  125  126 1    
   248  126  246 1    
   249  126  247 1    
@<TRIPOS>SUBSTRUCTURE
     1 UNK         1 GROUP             0       ****    0 ROOT    
