@<TRIPOS>MOLECULE
3R540
247   249    1
SMALL
USER_CHARGES


@<TRIPOS>ATOM
      1 CA          1.9174   -9.2475  -47.4875 C.3       0 UNK        -0.1800 
      2 C           1.2267  -10.2474  -46.5732 C.2       0 UNK         0.5000 
      3 O           1.3295  -10.1370  -45.3520 O.2       0 UNK        -0.5000 
      4 N           0.4972  -11.2102  -47.1505 N.am      1 UNK        -0.5000 
      5 CA         -0.1701  -12.3213  -46.4481 C.3       1 UNK         0.1400 
      6 C6         -0.4878  -13.5075  -47.3921 C.3       23 UNK        -0.0398 
      7 S7          0.9984  -14.0668  -48.2977 S.3       23 UNK        -0.2404 
      8 C8          0.3923  -14.1458  -50.0108 C.3       23 UNK        -0.0205 
      9 C9         -0.1567  -15.5262  -50.3308 C.ar      23 UNK        -0.0193 
     10 C10         0.6703  -16.4785  -50.9294 C.ar      23 UNK        -0.1150 
     11 C11         0.1857  -17.7534  -51.2251 C.ar      23 UNK        -0.0193 
     12 C12        -1.1415  -18.0723  -50.9229 C.ar      23 UNK        -0.1150 
     13 C13        -1.9798  -17.1354  -50.3037 C.ar      23 UNK        -0.0193 
     14 C14        -1.4784  -15.8598  -50.0219 C.ar      23 UNK        -0.1150 
     15 C15        -3.4301  -17.4552  -49.9349 C.3       23 UNK        -0.0205 
     16 S16        -3.7799  -19.2080  -49.5502 S.3       23 UNK        -0.2404 
     17 C17        -2.7353  -19.4805  -48.0789 C.3       23 UNK        -0.0398 
     18 CA         -2.3965  -20.9825  -47.8914 C.3       11 UNK         0.1400 
     19 N          -0.9942  -21.1912  -47.5390 N.am      11 UNK        -0.5000 
     20 C          -0.3406  -22.3565  -47.6137 C.2       10 UNK         0.5000 
     21 O          -0.8784  -23.4047  -47.9709 O.2       10 UNK        -0.5000 
     22 CA          1.1386  -22.3676  -47.1753 C.3       10 UNK         0.1400 
     23 CB          2.0284  -23.1375  -48.1718 C.3       10 UNK        -0.1800 
     24 N           1.6810  -21.0339  -46.8790 N.am      10 UNK        -0.5000 
     25 C           1.9359  -20.0252  -47.7283 C.2       9 UNK         0.5000 
     26 O           1.8054  -20.1070  -48.9479 O.2       9 UNK        -0.5000 
     27 CA          2.3628  -18.6766  -47.1079 C.3       9 UNK         0.1400 
     28 CB          1.2088  -17.6667  -47.2031 C.3       9 UNK        -0.1800 
     29 N           2.7679  -18.7825  -45.7043 N.am      9 UNK        -0.5000 
     30 C           3.9087  -19.3375  -45.2722 C.2       8 UNK         0.5000 
     31 O           4.8011  -19.7418  -46.0174 O.2       8 UNK        -0.5000 
     32 CA          4.0447  -19.5183  -43.7493 C.3       8 UNK         0.1400 
     33 CB          4.6603  -18.2697  -43.0990 C.3       8 UNK        -0.1800 
     34 N           2.7571  -19.8230  -43.1176 N.am      8 UNK        -0.5000 
     35 C           2.1171  -20.9964  -43.2347 C.2       7 UNK         0.5000 
     36 O           2.5636  -21.9574  -43.8598 O.2       7 UNK        -0.5000 
     37 CA          0.7240  -21.1020  -42.5892 C.3       7 UNK         0.1400 
     38 CB          0.8368  -21.4844  -41.1065 C.3       7 UNK        -0.1800 
     39 N          -0.0414  -19.8617  -42.7124 N.am      7 UNK        -0.5000 
     40 C          -0.5708  -19.4018  -43.8545 C.2       6 UNK         0.5000 
     41 O          -0.5675  -20.0357  -44.9092 O.2       6 UNK        -0.5000 
     42 CA         -1.1937  -17.9930  -43.8231 C.3       6 UNK         0.1400 
     43 CB         -2.7200  -18.0782  -43.6836 C.3       6 UNK        -0.1800 
     44 N          -0.6520  -17.1464  -42.7567 N.am      6 UNK        -0.5000 
     45 C           0.6105  -16.7018  -42.7141 C.2       5 UNK         0.5000 
     46 O           1.4545  -16.9586  -43.5761 O.2       5 UNK        -0.5000 
     47 CA          1.0141  -15.9138  -41.4553 C.3       5 UNK         0.1400 
     48 CB          1.8213  -16.8112  -40.5037 C.3       5 UNK        -0.1800 
     49 N           1.7983  -14.7200  -41.7671 N.am      5 UNK        -0.5000 
     50 C           1.3181  -13.6505  -42.4120 C.2       4 UNK         0.5000 
     51 O           0.1657  -13.5739  -42.8424 O.2       4 UNK        -0.5000 
     52 CA          2.2910  -12.4714  -42.6004 C.3       4 UNK         0.1400 
     53 CB          3.1834  -12.6859  -43.8335 C.3       4 UNK        -0.1800 
     54 N           1.5731  -11.2038  -42.7397 N.am      4 UNK        -0.5000 
     55 C           0.9446  -10.5705  -41.7388 C.2       3 UNK         0.5000 
     56 O           0.9837  -10.9422  -40.5648 O.2       3 UNK        -0.5000 
     57 CA          0.1272   -9.3216  -42.1068 C.3       3 UNK         0.1400 
     58 CB          1.0538   -8.1181  -42.3443 C.3       3 UNK        -0.1800 
     59 N          -0.6751   -9.5543  -43.3072 N.am      3 UNK        -0.5000 
     60 C          -2.0080   -9.7041  -43.3316 C.2       2 UNK         0.5000 
     61 O          -2.7225   -9.6394  -42.3304 O.2       2 UNK        -0.5000 
     62 CA         -2.6646   -9.9609  -44.7052 C.3       2 UNK         0.1400 
     63 CB         -3.1691   -8.6433  -45.3135 C.3       2 UNK        -0.1800 
     64 N          -1.7408  -10.5931  -45.6453 N.am      2 UNK        -0.5000 
     65 C          -1.4102  -11.8913  -45.6278 C.2       1 UNK         0.5000 
     66 O          -2.0330  -12.7329  -44.9809 O.2       1 UNK        -0.5000 
     67 C          -3.3376  -21.6681  -46.8840 C.2       11 UNK         0.5000 
     68 O          -4.3594  -22.2186  -47.2905 O.2       11 UNK        -0.5000 
     69 N          -2.9566  -21.6758  -45.5973 N.am      12 UNK        -0.5000 
     70 CA         -3.6832  -22.3850  -44.5406 C.3       12 UNK         0.1400 
     71 CB         -3.1522  -21.9649  -43.1630 C.3       12 UNK        -0.1800 
     72 C          -3.6079  -23.9138  -44.7054 C.2       12 UNK         0.5000 
     73 O          -4.6087  -24.5969  -44.4904 O.2       12 UNK        -0.5000 
     74 N          -2.4374  -24.4151  -45.1266 N.am      13 UNK        -0.5000 
     75 CA         -2.1945  -25.8302  -45.4181 C.3       13 UNK         0.1400 
     76 CB         -0.6842  -26.0689  -45.5717 C.3       13 UNK        -0.1800 
     77 C          -2.9585  -26.3093  -46.6666 C.2       13 UNK         0.5000 
     78 O          -3.4672  -27.4303  -46.6791 O.2       13 UNK        -0.5000 
     79 N          -3.0591  -25.4325  -47.6742 N.am      14 UNK        -0.5000 
     80 CA         -3.8310  -25.6408  -48.8997 C.3       14 UNK         0.1400 
     81 CB         -3.3031  -24.6789  -49.9727 C.3       14 UNK        -0.1800 
     82 C          -5.3523  -25.4526  -48.7170 C.2       14 UNK         0.5000 
     83 O          -6.0985  -25.7133  -49.6595 O.2       14 UNK        -0.5000 
     84 N          -5.7880  -24.9844  -47.5376 N.am      15 UNK        -0.5000 
     85 CA         -7.1695  -24.6573  -47.1673 C.3       15 UNK         0.1400 
     86 CB         -8.0486  -25.9250  -47.1304 C.3       15 UNK        -0.1800 
     87 C          -7.7571  -23.5268  -48.0394 C.2       15 UNK         0.5000 
     88 O          -8.8689  -23.6464  -48.5563 O.2       15 UNK        -0.5000 
     89 N          -6.9697  -22.4526  -48.1875 N.am      16 UNK        -0.5000 
     90 CA         -7.2289  -21.2164  -48.9334 C.3       16 UNK         0.1400 
     91 CB         -8.5236  -20.5238  -48.4602 C.3       16 UNK        -0.1800 
     92 C          -7.1644  -21.3652  -50.4672 C.2       16 UNK         0.5000 
     93 O          -7.4615  -20.4020  -51.1767 O.2       16 UNK        -0.5000 
     94 N          -6.7472  -22.5358  -50.9691 N.am      17 UNK        -0.5000 
     95 CA         -6.4958  -22.7833  -52.3865 C.3       17 UNK         0.1400 
     96 CB         -6.6119  -24.2893  -52.6754 C.3       17 UNK        -0.1800 
     97 C          -5.1190  -22.2197  -52.7779 C.2       17 UNK         0.5000 
     98 O          -4.1349  -22.9601  -52.8205 O.2       17 UNK        -0.5000 
     99 N          -5.0669  -20.9096  -53.0516 N.am      18 UNK        -0.5000 
    100 CA        -3.8534  -20.1684  -53.4133 C.3       18 UNK         0.1400 
    101 CB        -4.2084  -18.6938  -53.6459 C.3       18 UNK        -0.1800 
    102 C         -3.1122  -20.7449  -54.6362 C.2       18 UNK         0.5000 
    103 O         -1.8815  -20.7346  -54.6665 O.2       18 UNK        -0.5000 
    104 N         -3.8743  -21.2926  -55.5932 N.am      19 UNK        -0.5000 
    105 CA        -3.3756  -21.9867  -56.7820 C.3       19 UNK         0.1400 
    106 CB        -4.5550  -22.2607  -57.7273 C.3       19 UNK        -0.1800 
    107 C         -2.6217  -23.2965  -56.4709 C.2       19 UNK         0.5000 
    108 O         -1.7526  -23.6857  -57.2512 O.2       19 UNK        -0.5000 
    109 N         -2.9569  -23.9477  -55.3485 N.am      20 UNK        -0.5000 
    110 CA        -2.2638  -25.1346  -54.8484 C.3       20 UNK         0.1400 
    111 CB        -3.2663  -26.0460  -54.1229 C.3       20 UNK        -0.1800 
    112 C         -1.1021  -24.7487  -53.9166 C.2       20 UNK         0.5000 
    113 O         -0.0676  -25.4164  -53.9346 O.2       20 UNK        -0.5000 
    114 N         -1.2900  -23.6809  -53.1272 N.am      21 UNK        -0.5000 
    115 CA        -0.3020  -23.1410  -52.1927 C.3       21 UNK         0.1400 
    116 CB        -0.9621  -22.0525  -51.3374 C.3       21 UNK        -0.1800 
    117 C          0.9476  -22.5771  -52.8933 C.2       21 UNK         0.5000 
    118 O          2.0647  -22.8533  -52.4542 O.2       21 UNK        -0.5000 
    119 N          0.7378  -21.8055  -53.9660 N.am      22 UNK        -0.5000 
    120 CA         1.8027  -21.1657  -54.7534 C.3       22 UNK         0.1400 
    121 C          1.4176  -20.8547  -56.2260 C.2       22 UNK         0.5000 
    122 N          0.1448  -20.7369  -56.5790 N.am      22 UNK        -0.7600 
    123 O          2.2973  -20.7363  -57.0750 O.2       22 UNK        -0.5000 
    124 C124        2.4212  -19.9311  -54.0425 C.3       23 UNK        -0.0398 
    125 S125        1.2126  -18.6153  -53.6454 S.3       23 UNK        -0.2404 
    126 C126        1.1133  -18.7878  -51.8396 C.3       23 UNK        -0.0205 
    127 H127        1.7249   -9.4597  -48.5393 H         1 UNK         0.0600 
    128 H128        2.9948   -9.2765  -47.3254 H         1 UNK         0.0600 
    129 H129        1.5662   -8.2383  -47.2724 H         1 UNK         0.0600 
    130 H130        0.4453  -11.2470  -48.1585 H         1 UNK         0.3000 
    131 H131        0.5360  -12.6972  -45.7067 H         1 UNK         0.0600 
    132 H132       -0.8682  -14.3593  -46.8252 H         1 UNK         0.0800 
    133 H133       -1.2763  -13.2304  -48.0927 H         1 UNK         0.0800 
    134 H134        1.2216  -13.9144  -50.6809 H         1 UNK         0.0800 
    135 H135       -0.3616  -13.3798  -50.1959 H         1 UNK         0.0800 
    136 H136        1.6973  -16.2312  -51.1588 H         1 UNK         0.1150 
    137 H137       -1.5128  -19.0576  -51.1565 H         1 UNK         0.1150 
    138 H138       -2.1165  -15.1244  -49.5529 H         1 UNK         0.1150 
    139 H139       -4.0696  -17.1460  -50.7614 H         1 UNK         0.0800 
    140 H140       -3.7338  -16.8570  -49.0743 H         1 UNK         0.0800 
    141 H141       -3.2235  -19.0489  -47.2029 H         1 UNK         0.0800 
    142 H142       -1.8184  -18.9050  -48.2101 H         1 UNK         0.0800 
    143 H143       -2.5436  -21.4938  -48.8436 H         1 UNK         0.0600 
    144 H144       -0.5045  -20.4086  -47.1285 H         1 UNK         0.3000 
    145 H145        1.1631  -22.9105  -46.2296 H         1 UNK         0.0600 
    146 H146        3.0718  -23.1301  -47.8569 H         1 UNK         0.0600 
    147 H147        1.7186  -24.1807  -48.2438 H         1 UNK         0.0600 
    148 H148        1.9757  -22.7169  -49.1765 H         1 UNK         0.0600 
    149 H149        1.8163  -20.8448  -45.8956 H         1 UNK         0.3000 
    150 H150        3.2064  -18.2946  -47.6862 H         1 UNK         0.0600 
    151 H151        0.9379  -17.4804  -48.2423 H         1 UNK         0.0600 
    152 H152        1.4824  -16.7083  -46.7615 H         1 UNK         0.0600 
    153 H153        0.3149  -18.0271  -46.6956 H         1 UNK         0.0600 
    154 H154        2.1296  -18.4027  -45.0148 H         1 UNK         0.3000 
    155 H155        4.7203  -20.3581  -43.5726 H         1 UNK         0.0600 
    156 H156        4.0447  -17.3835  -43.2534 H         1 UNK         0.0600 
    157 H157        5.6442  -18.0591  -43.5200 H         1 UNK         0.0600 
    158 H158        4.7901  -18.4072  -42.0256 H         1 UNK         0.0600 
    159 H159        2.3021  -19.0632  -42.6342 H         1 UNK         0.3000 
    160 H160        0.1858  -21.8981  -43.1067 H         1 UNK         0.0600 
    161 H161        1.3536  -20.7170  -40.5288 H         1 UNK         0.0600 
    162 H162        1.3907  -22.4163  -40.9849 H         1 UNK         0.0600 
    163 H163       -0.1480  -21.6329  -40.6631 H         1 UNK         0.0600 
    164 H164       -0.1228  -19.2920  -41.8839 H         1 UNK         0.3000 
    165 H165       -0.9692  -17.5155  -44.7784 H         1 UNK         0.0600 
    166 H166       -3.1777  -17.0934  -43.7795 H         1 UNK         0.0600 
    167 H167       -3.0145  -18.4909  -42.7182 H         1 UNK         0.0600 
    168 H168       -3.1518  -18.7112  -44.4603 H         1 UNK         0.0600 
    169 H169       -1.2883  -16.8958  -42.0134 H         1 UNK         0.3000 
    170 H170        0.1089  -15.5921  -40.9357 H         1 UNK         0.0600 
    171 H171        1.2596  -17.7070  -40.2357 H         1 UNK         0.0600 
    172 H172        2.7611  -17.1341  -40.9526 H         1 UNK         0.0600 
    173 H173        2.0566  -16.2895  -39.5759 H         1 UNK         0.0600 
    174 H174        2.7645  -14.7277  -41.4754 H         1 UNK         0.3000 
    175 H175        2.9319  -12.4070  -41.7185 H         1 UNK         0.0600 
    176 H176        2.6008  -12.7625  -44.7505 H         1 UNK         0.0600 
    177 H177        3.8889  -11.8639  -43.9560 H         1 UNK         0.0600 
    178 H178        3.7663  -13.6031  -43.7406 H         1 UNK         0.0600 
    179 H179        1.4916  -10.8342  -43.6835 H         1 UNK         0.3000 
    180 H180       -0.5163   -9.0846  -41.2570 H         1 UNK         0.0600 
    181 H181        1.7241   -8.2825  -43.1890 H         1 UNK         0.0600 
    182 H182        1.6713   -7.9215  -41.4670 H         1 UNK         0.0600 
    183 H183        0.4784   -7.2145  -42.5462 H         1 UNK         0.0600 
    184 H184       -0.1524   -9.6683  -44.1689 H         1 UNK         0.3000 
    185 H185       -3.5237  -10.6172  -44.5503 H         1 UNK         0.0600 
    186 H186       -3.6780   -8.8162  -46.2619 H         1 UNK         0.0600 
    187 H187       -3.8813   -8.1539  -44.6478 H         1 UNK         0.0600 
    188 H188       -2.3524   -7.9427  -45.4926 H         1 UNK         0.0600 
    189 H189       -1.1952   -9.9773  -46.2301 H         1 UNK         0.3000 
    190 H190       -2.0957  -21.2025  -45.3408 H         1 UNK         0.3000 
    191 H191       -4.7348  -22.0956  -44.5996 H         1 UNK         0.0600 
    192 H192       -3.7039  -22.4637  -42.3652 H         1 UNK         0.0600 
    193 H193       -3.2613  -20.8931  -43.0068 H         1 UNK         0.0600 
    194 H194       -2.1010  -22.2207  -43.0403 H         1 UNK         0.0600 
    195 H195       -1.6786  -23.7774  -45.3109 H         1 UNK         0.3000 
    196 H196       -2.5463  -26.4169  -44.5668 H         1 UNK         0.0600 
    197 H197       -0.2672  -25.5112  -46.4104 H         1 UNK         0.0600 
    198 H198       -0.1443  -25.7752  -44.6714 H         1 UNK         0.0600 
    199 H199       -0.4742  -27.1249  -45.7459 H         1 UNK         0.0600 
    200 H200       -2.5413  -24.5623  -47.6131 H         1 UNK         0.3000 
    201 H201       -3.6652  -26.6628  -49.2462 H         1 UNK         0.0600 
    202 H202       -3.5116  -23.6408  -49.7128 H         1 UNK         0.0600 
    203 H203       -3.7699  -24.8751  -50.9370 H         1 UNK         0.0600 
    204 H204       -2.2269  -24.7860  -50.1091 H         1 UNK         0.0600 
    205 H205       -5.0918  -24.7793  -46.8339 H         1 UNK         0.3000 
    206 H206       -7.1242  -24.2636  -46.1508 H         1 UNK         0.0600 
    207 H207       -7.6085  -26.6900  -46.4907 H         1 UNK         0.0600 
    208 H208       -9.0388  -25.6999  -46.7328 H         1 UNK         0.0600 
    209 H209       -8.1867  -26.3558  -48.1224 H         1 UNK         0.0600 
    210 H210       -6.0437  -22.4849  -47.7596 H         1 UNK         0.3000 
    211 H211       -6.4025  -20.5537  -48.6742 H         1 UNK         0.0600 
    212 H212       -8.6056  -19.5216  -48.8823 H         1 UNK         0.0600 
    213 H213       -8.5422  -20.4192  -47.3755 H         1 UNK         0.0600 
    214 H214       -9.4146  -21.0746  -48.7621 H         1 UNK         0.0600 
    215 H215       -6.5183  -23.2848  -50.3307 H         1 UNK         0.3000 
    216 H216       -7.2566  -22.2769  -52.9843 H         1 UNK         0.0600 
    217 H217       -5.8680  -24.8685  -52.1300 H         1 UNK         0.0600 
    218 H218       -6.4673  -24.4936  -53.7369 H         1 UNK         0.0600 
    219 H219       -7.5959  -24.6690  -52.4003 H         1 UNK         0.0600 
    220 H220       -5.9108  -20.3653  -52.9269 H         1 UNK         0.3000 
    221 H221       -3.1795  -20.2214  -52.5585 H         1 UNK         0.0600 
    222 H222       -3.3107  -18.1025  -53.8324 H         1 UNK         0.0600 
    223 H223       -4.8716  -18.5687  -54.5027 H         1 UNK         0.0600 
    224 H224       -4.7038  -18.2660  -52.7750 H         1 UNK         0.0600 
    225 H225       -4.8765  -21.2581  -55.4784 H         1 UNK         0.3000 
    226 H226       -2.6786  -21.3191  -57.2921 H         1 UNK         0.0600 
    227 H227       -5.3012  -22.9067  -57.2630 H         1 UNK         0.0600 
    228 H228       -5.0482  -21.3344  -58.0226 H         1 UNK         0.0600 
    229 H229       -4.2177  -22.7527  -58.6407 H         1 UNK         0.0600 
    230 H230       -3.6454  -23.5394  -54.7280 H         1 UNK         0.3000 
    231 H231       -1.8488  -25.6994  -55.6860 H         1 UNK         0.0600 
    232 H232       -3.7094  -25.5553  -53.2572 H         1 UNK         0.0600 
    233 H233       -2.7795  -26.9554  -53.7689 H         1 UNK         0.0600 
    234 H234       -4.0765  -26.3473  -54.7869 H         1 UNK         0.0600 
    235 H235       -2.2023  -23.2373  -53.1305 H         1 UNK         0.3000 
    236 H236        0.0117  -23.9518  -51.5319 H         1 UNK         0.0600 
    237 H237       -1.8748  -22.4123  -50.8686 H         1 UNK         0.0600 
    238 H238       -0.2919  -21.7182  -50.5450 H         1 UNK         0.0600 
    239 H239       -1.2194  -21.1831  -51.9386 H         1 UNK         0.0600 
    240 H240       -0.2146  -21.5974  -54.2471 H         1 UNK         0.3000 
    241 H241        2.6003  -21.9059  -54.8448 H         1 UNK         0.0600 
    242 H242       -0.0735  -20.5451  -57.5429 H         1 UNK         0.3800 
    243 H243       -0.5985  -20.7372  -55.8847 H         1 UNK         0.3800 
    244 H244        2.9201  -20.2514  -53.1272 H         1 UNK         0.0800 
    245 H245        3.2102  -19.4945  -54.6571 H         1 UNK         0.0800 
    246 H246        2.1101  -18.6827  -51.4086 H         1 UNK         0.0800 
    247 H247        0.7795  -19.7928  -51.5858 H         1 UNK         0.0800 
@<TRIPOS>BOND
     1    1    2 1    
     2    1  127 1    
     3    1  128 1    
     4    1  129 1    
     5    2    3 2    
     6    2    4 am   BACKBONE|DICT|INTERRES
     7    4    5 1    
     8    4  130 1    
     9    5    6 1    
    10    5   65 1    
    11    5  131 1    
    12    6    7 1    
    13    6  132 1    
    14    6  133 1    
    15    7    8 1    
    16    8    9 1    
    17    8  134 1    
    18    8  135 1    
    19    9   10 ar   
    20    9   14 ar   
    21   10   11 ar   
    22   10  136 1    
    23   11   12 ar   
    24   11  126 1    
    25   12   13 ar   
    26   12  137 1    
    27   13   14 ar   
    28   13   15 1    
    29   14  138 1    
    30   15   16 1    
    31   15  139 1    
    32   15  140 1    
    33   16   17 1    
    34   17   18 1    
    35   17  141 1    
    36   17  142 1    
    37   18   19 1    
    38   18   67 1    
    39   18  143 1    
    40   19   20 am   BACKBONE|DICT|INTERRES
    41   19  144 1    
    42   20   21 2    
    43   20   22 1    
    44   22   23 1    
    45   22   24 1    
    46   22  145 1    
    47   23  146 1    
    48   23  147 1    
    49   23  148 1    
    50   24   25 am   BACKBONE|DICT|INTERRES
    51   24  149 1    
    52   25   26 2    
    53   25   27 1    
    54   27   28 1    
    55   27   29 1    
    56   27  150 1    
    57   28  151 1    
    58   28  152 1    
    59   28  153 1    
    60   29   30 am   BACKBONE|DICT|INTERRES
    61   29  154 1    
    62   30   31 2    
    63   30   32 1    
    64   32   33 1    
    65   32   34 1    
    66   32  155 1    
    67   33  156 1    
    68   33  157 1    
    69   33  158 1    
    70   34   35 am   BACKBONE|DICT|INTERRES
    71   34  159 1    
    72   35   36 2    
    73   35   37 1    
    74   37   38 1    
    75   37   39 1    
    76   37  160 1    
    77   38  161 1    
    78   38  162 1    
    79   38  163 1    
    80   39   40 am   BACKBONE|DICT|INTERRES
    81   39  164 1    
    82   40   41 2    
    83   40   42 1    
    84   42   43 1    
    85   42   44 1    
    86   42  165 1    
    87   43  166 1    
    88   43  167 1    
    89   43  168 1    
    90   44   45 am   BACKBONE|DICT|INTERRES
    91   44  169 1    
    92   45   46 2    
    93   45   47 1    
    94   47   48 1    
    95   47   49 1    
    96   47  170 1    
    97   48  171 1    
    98   48  172 1    
    99   48  173 1    
   100   49   50 am   BACKBONE|DICT|INTERRES
   101   49  174 1    
   102   50   51 2    
   103   50   52 1    
   104   52   53 1    
   105   52   54 1    
   106   52  175 1    
   107   53  176 1    
   108   53  177 1    
   109   53  178 1    
   110   54   55 am   BACKBONE|DICT|INTERRES
   111   54  179 1    
   112   55   56 2    
   113   55   57 1    
   114   57   58 1    
   115   57   59 1    
   116   57  180 1    
   117   58  181 1    
   118   58  182 1    
   119   58  183 1    
   120   59   60 am   BACKBONE|DICT|INTERRES
   121   59  184 1    
   122   60   61 2    
   123   60   62 1    
   124   62   63 1    
   125   62   64 1    
   126   62  185 1    
   127   63  186 1    
   128   63  187 1    
   129   63  188 1    
   130   64   65 am   BACKBONE|DICT|INTERRES
   131   64  189 1    
   132   65   66 2    
   133   67   68 2    
   134   67   69 am   BACKBONE|DICT|INTERRES
   135   69   70 1    
   136   69  190 1    
   137   70   71 1    
   138   70   72 1    
   139   70  191 1    
   140   71  192 1    
   141   71  193 1    
   142   71  194 1    
   143   72   73 2    
   144   72   74 am   BACKBONE|DICT|INTERRES
   145   74   75 1    
   146   74  195 1    
   147   75   76 1    
   148   75   77 1    
   149   75  196 1    
   150   76  197 1    
   151   76  198 1    
   152   76  199 1    
   153   77   78 2    
   154   77   79 am   BACKBONE|DICT|INTERRES
   155   79   80 1    
   156   79  200 1    
   157   80   81 1    
   158   80   82 1    
   159   80  201 1    
   160   81  202 1    
   161   81  203 1    
   162   81  204 1    
   163   82   83 2    
   164   82   84 am   BACKBONE|DICT|INTERRES
   165   84   85 1    
   166   84  205 1    
   167   85   86 1    
   168   85   87 1    
   169   85  206 1    
   170   86  207 1    
   171   86  208 1    
   172   86  209 1    
   173   87   88 2    
   174   87   89 am   BACKBONE|DICT|INTERRES
   175   89   90 1    
   176   89  210 1    
   177   90   91 1    
   178   90   92 1    
   179   90  211 1    
   180   91  212 1    
   181   91  213 1    
   182   91  214 1    
   183   92   93 2    
   184   92   94 am   BACKBONE|DICT|INTERRES
   185   94   95 1    
   186   94  215 1    
   187   95   96 1    
   188   95   97 1    
   189   95  216 1    
   190   96  217 1    
   191   96  218 1    
   192   96  219 1    
   193   97   98 2    
   194   97   99 am   BACKBONE|DICT|INTERRES
   195   99  100 1    
   196   99  220 1    
   197  100  101 1    
   198  100  102 1    
   199  100  221 1    
   200  101  222 1    
   201  101  223 1    
   202  101  224 1    
   203  102  103 2    
   204  102  104 am   BACKBONE|DICT|INTERRES
   205  104  105 1    
   206  104  225 1    
   207  105  106 1    
   208  105  107 1    
   209  105  226 1    
   210  106  227 1    
   211  106  228 1    
   212  106  229 1    
   213  107  108 2    
   214  107  109 am   BACKBONE|DICT|INTERRES
   215  109  110 1    
   216  109  230 1    
   217  110  111 1    
   218  110  112 1    
   219  110  231 1    
   220  111  232 1    
   221  111  233 1    
   222  111  234 1    
   223  112  113 2    
   224  112  114 am   BACKBONE|DICT|INTERRES
   225  114  115 1    
   226  114  235 1    
   227  115  116 1    
   228  115  117 1    
   229  115  236 1    
   230  116  237 1    
   231  116  238 1    
   232  116  239 1    
   233  117  118 2    
   234  117  119 am   BACKBONE|DICT|INTERRES
   235  119  120 1    
   236  119  240 1    
   237  120  121 1    
   238  120  124 1    
   239  120  241 1    
   240  121  122 am   BACKBONE|DICT|INTERRES
   241  121  123 2    
   242  122  242 1    
   243  122  243 1    
   244  124  125 1    
   245  124  244 1    
   246  124  245 1    
   247  125  126 1    
   248  126  246 1    
   249  126  247 1    
@<TRIPOS>SUBSTRUCTURE
     1 UNK         1 GROUP             0       ****    0 ROOT    
