@<TRIPOS>MOLECULE
3R540
247   249    1
SMALL
USER_CHARGES


@<TRIPOS>ATOM
      1 CA         -5.1672  -19.2975  -44.3334 C.3       0 UNK        -0.1800 
      2 C          -5.3236  -18.2813  -45.4561 C.2       0 UNK         0.5000 
      3 O          -6.4461  -17.9838  -45.8653 O.2       0 UNK        -0.5000 
      4 N          -4.2004  -17.7532  -45.9560 N.am      1 UNK        -0.5000 
      5 CA         -4.1560  -16.7214  -46.9950 C.3       1 UNK         0.1400 
      6 C6         -2.7607  -16.6159  -47.6525 C.3       23 UNK        -0.0398 
      7 S7         -2.2790  -18.1183  -48.5583 S.3       23 UNK        -0.2404 
      8 C8         -0.4687  -18.0638  -48.3942 C.3       23 UNK        -0.0205 
      9 C9          0.1792  -19.2149  -49.1483 C.ar      23 UNK        -0.0193 
     10 C10         0.7669  -19.0134  -50.4009 C.ar      23 UNK        -0.1150 
     11 C11         1.3476  -20.0833  -51.0916 C.ar      23 UNK        -0.0193 
     12 C12         1.3384  -21.3596  -50.5192 C.ar      23 UNK        -0.1150 
     13 C13         0.7464  -21.5741  -49.2725 C.ar      23 UNK        -0.0193 
     14 C14         0.1799  -20.4948  -48.5909 C.ar      23 UNK        -0.1150 
     15 C15         0.6687  -22.9736  -48.6822 C.3       23 UNK        -0.0205 
     16 S16         2.0316  -23.3093  -47.5197 S.3       23 UNK        -0.2404 
     17 C17         1.1058  -24.1410  -46.1888 C.3       23 UNK        -0.0398 
     18 CA          1.9758  -24.7036  -45.0359 C.3       11 UNK         0.1400 
     19 N           2.7002  -23.6504  -44.3109 N.am      11 UNK        -0.5000 
     20 C           3.6769  -23.8625  -43.4166 C.2       10 UNK         0.5000 
     21 O           4.1264  -24.9780  -43.1516 O.2       10 UNK        -0.5000 
     22 CA          4.2163  -22.6321  -42.6597 C.3       10 UNK         0.1400 
     23 CB          5.3019  -21.9109  -43.4734 C.3       10 UNK        -0.1800 
     24 N           3.1604  -21.6853  -42.2910 N.am      10 UNK        -0.5000 
     25 C           2.2220  -21.9196  -41.3612 C.2       9 UNK         0.5000 
     26 O           2.1734  -22.9463  -40.6840 O.2       9 UNK        -0.5000 
     27 CA          1.1213  -20.8532  -41.1905 C.3       9 UNK         0.1400 
     28 CB          1.5932  -19.7131  -40.2762 C.3       9 UNK        -0.1800 
     29 N           0.6686  -20.3034  -42.4678 N.am      9 UNK        -0.5000 
     30 C           0.0717  -21.0200  -43.4287 C.2       8 UNK         0.5000 
     31 O          -0.2401  -22.2037  -43.3079 O.2       8 UNK        -0.5000 
     32 CA         -0.1573  -20.3261  -44.7790 C.3       8 UNK         0.1400 
     33 CB         -1.5022  -19.5908  -44.8079 C.3       8 UNK        -0.1800 
     34 N           0.9329  -19.4193  -45.1473 N.am      8 UNK        -0.5000 
     35 C           2.1862  -19.8275  -45.3972 C.2       7 UNK         0.5000 
     36 O           2.5354  -21.0029  -45.3477 O.2       7 UNK        -0.5000 
     37 CA          3.2421  -18.7440  -45.6629 C.3       7 UNK         0.1400 
     38 CB          3.2042  -18.2746  -47.1249 C.3       7 UNK        -0.1800 
     39 N           3.0752  -17.6106  -44.7542 N.am      7 UNK        -0.5000 
     40 C           3.3632  -17.6678  -43.4438 C.2       6 UNK         0.5000 
     41 O           3.8712  -18.6511  -42.9042 O.2       6 UNK        -0.5000 
     42 CA          2.9820  -16.4490  -42.5789 C.3       6 UNK         0.1400 
     43 CB          4.1503  -15.4551  -42.5054 C.3       6 UNK        -0.1800 
     44 N           1.7872  -15.7520  -43.0574 N.am      6 UNK        -0.5000 
     45 C           0.5633  -16.2931  -43.1387 C.2       5 UNK         0.5000 
     46 O           0.2939  -17.4205  -42.7262 O.2       5 UNK        -0.5000 
     47 CA         -0.5277  -15.4665  -43.8508 C.3       5 UNK         0.1400 
     48 CB         -1.4403  -14.7800  -42.8251 C.3       5 UNK        -0.1800 
     49 N          -0.0092  -14.4588  -44.7837 N.am      5 UNK        -0.5000 
     50 C           0.7397  -14.7144  -45.8672 C.2       4 UNK         0.5000 
     51 O           1.1007  -15.8489  -46.1826 O.2       4 UNK        -0.5000 
     52 CA          1.1595  -13.4890  -46.7083 C.3       4 UNK         0.1400 
     53 CB          1.8126  -13.8759  -48.0532 C.3       4 UNK        -0.1800 
     54 N           0.0507  -12.5414  -46.8939 N.am      4 UNK        -0.5000 
     55 C          -1.0938  -12.7900  -47.5441 C.2       3 UNK         0.5000 
     56 O          -1.3134  -13.8191  -48.1851 O.2       3 UNK        -0.5000 
     57 CA         -2.1910  -11.7223  -47.4558 C.3       3 UNK         0.1400 
     58 CB         -2.0898  -10.7208  -48.6168 C.3       3 UNK        -0.1800 
     59 N          -3.4656  -12.4246  -47.5239 N.am      3 UNK        -0.5000 
     60 C          -4.5542  -12.1706  -46.7924 C.2       2 UNK         0.5000 
     61 O          -4.6676  -11.1987  -46.0445 O.2       2 UNK        -0.5000 
     62 CA         -5.7085  -13.1880  -46.9042 C.3       2 UNK         0.1400 
     63 CB         -6.7314  -12.7236  -47.9529 C.3       2 UNK        -0.1800 
     64 N          -5.2619  -14.5448  -47.2435 N.am      2 UNK        -0.5000 
     65 C          -4.5725  -15.3500  -46.4222 C.2       1 UNK         0.5000 
     66 O          -4.2372  -15.0365  -45.2776 O.2       1 UNK        -0.5000 
     67 C           1.0650  -25.5486  -44.1149 C.2       11 UNK         0.5000 
     68 O           0.6841  -26.6520  -44.5043 O.2       11 UNK        -0.5000 
     69 N           0.6779  -24.9952  -42.9549 N.am      12 UNK        -0.5000 
     70 CA         -0.3824  -25.4684  -42.0568 C.3       12 UNK         0.1400 
     71 CB         -0.0257  -26.8318  -41.4290 C.3       12 UNK        -0.1800 
     72 C          -1.7587  -25.4507  -42.7586 C.2       12 UNK         0.5000 
     73 O          -2.5304  -26.4047  -42.6544 O.2       12 UNK        -0.5000 
     74 N          -2.0040  -24.3609  -43.5018 N.am      13 UNK        -0.5000 
     75 CA         -3.1733  -24.0317  -44.3261 C.3       13 UNK         0.1400 
     76 CB         -4.4535  -23.9690  -43.4707 C.3       13 UNK        -0.1800 
     77 C          -3.3714  -24.9047  -45.5853 C.2       13 UNK         0.5000 
     78 O          -4.2669  -24.6056  -46.3773 O.2       13 UNK        -0.5000 
     79 N          -2.5467  -25.9435  -45.7786 N.am      14 UNK        -0.5000 
     80 CA         -2.6053  -26.8615  -46.9154 C.3       14 UNK         0.1400 
     81 CB         -1.6596  -28.0459  -46.6619 C.3       14 UNK        -0.1800 
     82 C          -2.2618  -26.1435  -48.2324 C.2       14 UNK         0.5000 
     83 O          -1.1139  -25.7431  -48.4231 O.2       14 UNK        -0.5000 
     84 N          -3.2718  -25.9762  -49.0966 N.am      15 UNK        -0.5000 
     85 CA         -3.2185  -25.2690  -50.3818 C.3       15 UNK         0.1400 
     86 CB         -2.2867  -25.9941  -51.3765 C.3       15 UNK        -0.1800 
     87 C          -2.9017  -23.7622  -50.2473 C.2       15 UNK         0.5000 
     88 O          -2.3012  -23.1797  -51.1515 O.2       15 UNK        -0.5000 
     89 N          -3.3296  -23.1491  -49.1329 N.am      16 UNK        -0.5000 
     90 CA         -3.2743  -21.7055  -48.9052 C.3       16 UNK         0.1400 
     91 CB         -3.5611  -21.4178  -47.4223 C.3       16 UNK        -0.1800 
     92 C          -4.2574  -20.9803  -49.8428 C.2       16 UNK         0.5000 
     93 O          -5.4700  -21.0779  -49.6433 O.2       16 UNK        -0.5000 
     94 N          -3.7204  -20.3319  -50.8840 N.am      17 UNK        -0.5000 
     95 CA         -4.4859  -19.8373  -52.0267 C.3       17 UNK         0.1400 
     96 CB         -4.7544  -21.0124  -52.9910 C.3       17 UNK        -0.1800 
     97 C          -3.7828  -18.6544  -52.7186 C.2       17 UNK         0.5000 
     98 O          -3.8118  -18.5650  -53.9492 O.2       17 UNK        -0.5000 
     99 N          -3.1484  -17.7630  -51.9397 N.am      18 UNK        -0.5000 
    100 CA        -2.3965  -16.6044  -52.4466 C.3       18 UNK         0.1400 
    101 CB        -1.7361  -15.8368  -51.2956 C.3       18 UNK        -0.1800 
    102 C         -3.2254  -15.6430  -53.3117 C.2       18 UNK         0.5000 
    103 O         -2.7789  -15.2593  -54.3935 O.2       18 UNK        -0.5000 
    104 N         -4.4285  -15.3077  -52.8302 N.am      19 UNK        -0.5000 
    105 CA        -5.3684  -14.4164  -53.5109 C.3       19 UNK         0.1400 
    106 CB        -6.4617  -13.9951  -52.5164 C.3       19 UNK        -0.1800 
    107 C         -5.9944  -15.0408  -54.7730 C.2       19 UNK         0.5000 
    108 O         -6.4229  -14.3026  -55.6610 O.2       19 UNK        -0.5000 
    109 N         -6.0466  -16.3785  -54.8253 N.am      20 UNK        -0.5000 
    110 CA        -6.6012  -17.1350  -55.9423 C.3       20 UNK         0.1400 
    111 CB        -7.1518  -18.4747  -55.4335 C.3       20 UNK        -0.1800 
    112 C         -5.5679  -17.3546  -57.0583 C.2       20 UNK         0.5000 
    113 O         -5.9008  -17.1371  -58.2247 O.2       20 UNK        -0.5000 
    114 N         -4.3484  -17.7865  -56.7002 N.am      21 UNK        -0.5000 
    115 CA        -3.3153  -18.1474  -57.6755 C.3       21 UNK         0.1400 
    116 CB        -3.6256  -19.5315  -58.2800 C.3       21 UNK        -0.1800 
    117 C         -1.8770  -18.1289  -57.1319 C.2       21 UNK         0.5000 
    118 O         -0.9614  -17.8896  -57.9210 O.2       21 UNK        -0.5000 
    119 N         -1.6727  -18.4209  -55.8387 N.am      22 UNK        -0.5000 
    120 CA        -0.3275  -18.6171  -55.2594 C.3       22 UNK         0.1400 
    121 C          0.5252  -17.3219  -55.0891 C.2       22 UNK         0.5000 
    122 N         -0.0495  -16.1268  -55.1479 N.am      22 UNK        -0.7600 
    123 O          1.7387  -17.3980  -54.9243 O.2       22 UNK        -0.5000 
    124 C124       -0.3735  -19.4772  -53.9632 C.3       23 UNK        -0.0398 
    125 S125        1.0422  -20.6187  -53.8078 S.3       23 UNK        -0.2404 
    126 C126        1.9988  -19.8658  -52.4501 C.3       23 UNK        -0.0205 
    127 H127       -4.2933  -19.0785  -43.7201 H         1 UNK         0.0600 
    128 H128       -5.0622  -20.3016  -44.7447 H         1 UNK         0.0600 
    129 H129       -6.0419  -19.2842  -43.6830 H         1 UNK         0.0600 
    130 H130       -3.3107  -18.0151  -45.5621 H         1 UNK         0.3000 
    131 H131       -4.8741  -16.9971  -47.7709 H         1 UNK         0.0600 
    132 H132       -2.7613  -15.8089  -48.3812 H         1 UNK         0.0800 
    133 H133       -1.9973  -16.3666  -46.9128 H         1 UNK         0.0800 
    134 H134       -0.0890  -17.1051  -48.7501 H         1 UNK         0.0800 
    135 H135       -0.1996  -18.1173  -47.3403 H         1 UNK         0.0800 
    136 H136        0.7733  -18.0255  -50.8384 H         1 UNK         0.1150 
    137 H137        1.7770  -22.1896  -51.0551 H         1 UNK         0.1150 
    138 H138       -0.2950  -20.6559  -47.6376 H         1 UNK         0.1150 
    139 H139       -0.2942  -23.0914  -48.1828 H         1 UNK         0.0800 
    140 H140        0.6831  -23.7231  -49.4751 H         1 UNK         0.0800 
    141 H141        0.3631  -23.4440  -45.7986 H         1 UNK         0.0800 
    142 H142        0.5458  -24.9510  -46.6573 H         1 UNK         0.0800 
    143 H143        2.7152  -25.3821  -45.4662 H         1 UNK         0.0600 
    144 H144        2.4664  -22.6902  -44.5550 H         1 UNK         0.3000 
    145 H145        4.6780  -22.9905  -41.7372 H         1 UNK         0.0600 
    146 H146        5.7102  -21.0638  -42.9219 H         1 UNK         0.0600 
    147 H147        4.9200  -21.5376  -44.4230 H         1 UNK         0.0600 
    148 H148        6.1302  -22.5840  -43.6975 H         1 UNK         0.0600 
    149 H149        3.1404  -20.8078  -42.7956 H         1 UNK         0.3000 
    150 H150        0.2637  -21.3345  -40.7157 H         1 UNK         0.0600 
    151 H151        1.8722  -20.0934  -39.2929 H         1 UNK         0.0600 
    152 H152        0.8057  -18.9736  -40.1289 H         1 UNK         0.0600 
    153 H153        2.4619  -19.1990  -40.6863 H         1 UNK         0.0600 
    154 H154        0.8166  -19.3111  -42.6247 H         1 UNK         0.3000 
    155 H155       -0.1970  -21.1203  -45.5242 H         1 UNK         0.0600 
    156 H156       -2.3160  -20.2748  -44.5650 H         1 UNK         0.0600 
    157 H157       -1.7037  -19.1882  -45.7984 H         1 UNK         0.0600 
    158 H158       -1.5356  -18.7709  -44.0909 H         1 UNK         0.0600 
    159 H159        0.7370  -18.4293  -45.1461 H         1 UNK         0.3000 
    160 H160        4.2246  -19.1863  -45.4838 H         1 UNK         0.0600 
    161 H161        2.2491  -17.8222  -47.3850 H         1 UNK         0.0600 
    162 H162        3.3594  -19.1130  -47.8055 H         1 UNK         0.0600 
    163 H163        3.9860  -17.5420  -47.3245 H         1 UNK         0.0600 
    164 H164        2.6043  -16.7952  -45.1303 H         1 UNK         0.3000 
    165 H165        2.7757  -16.8116  -41.5698 H         1 UNK         0.0600 
    166 H166        3.9233  -14.6278  -41.8328 H         1 UNK         0.0600 
    167 H167        5.0519  -15.9403  -42.1289 H         1 UNK         0.0600 
    168 H168        4.3866  -15.0380  -43.4851 H         1 UNK         0.0600 
    169 H169        1.9191  -14.8173  -43.4133 H         1 UNK         0.3000 
    170 H170       -1.1344  -16.1662  -44.4292 H         1 UNK         0.0600 
    171 H171       -0.8972  -14.0434  -42.2319 H         1 UNK         0.0600 
    172 H172       -2.2718  -14.2726  -43.3150 H         1 UNK         0.0600 
    173 H173       -1.8690  -15.5078  -42.1347 H         1 UNK         0.0600 
    174 H174       -0.2637  -13.5010  -44.5928 H         1 UNK         0.3000 
    175 H175        1.9148  -12.9647  -46.1214 H         1 UNK         0.0600 
    176 H176        2.7254  -14.4500  -47.8894 H         1 UNK         0.0600 
    177 H177        1.1544  -14.4897  -48.6687 H         1 UNK         0.0600 
    178 H178        2.0841  -12.9917  -48.6295 H         1 UNK         0.0600 
    179 H179        0.1496  -11.6565  -46.4155 H         1 UNK         0.3000 
    180 H180       -2.0981  -11.1963  -46.5032 H         1 UNK         0.0600 
    181 H181       -1.1397  -10.1861  -48.5901 H         1 UNK         0.0600 
    182 H182       -2.8847   -9.9767  -48.5640 H         1 UNK         0.0600 
    183 H183       -2.1613  -11.2189  -49.5847 H         1 UNK         0.0600 
    184 H184       -3.4301  -13.2760  -48.0683 H         1 UNK         0.3000 
    185 H185       -6.2076  -13.2270  -45.9336 H         1 UNK         0.0600 
    186 H186       -7.1066  -11.7267  -47.7175 H         1 UNK         0.0600 
    187 H187       -6.2947  -12.6820  -48.9517 H         1 UNK         0.0600 
    188 H188       -7.5916  -13.3923  -47.9891 H         1 UNK         0.0600 
    189 H189       -5.5117  -14.8764  -48.1638 H         1 UNK         0.3000 
    190 H190        1.0251  -24.0665  -42.7526 H         1 UNK         0.3000 
    191 H191       -0.4419  -24.7393  -41.2474 H         1 UNK         0.0600 
    192 H192       -0.7483  -27.1046  -40.6592 H         1 UNK         0.0600 
    193 H193        0.9562  -26.8019  -40.9567 H         1 UNK         0.0600 
    194 H194       -0.0194  -27.6346  -42.1665 H         1 UNK         0.0600 
    195 H195       -1.2906  -23.6325  -43.4824 H         1 UNK         0.3000 
    196 H196       -2.9851  -23.0229  -44.6947 H         1 UNK         0.0600 
    197 H197       -4.7426  -24.9522  -43.0989 H         1 UNK         0.0600 
    198 H198       -4.3225  -23.3092  -42.6129 H         1 UNK         0.0600 
    199 H199       -5.2922  -23.5817  -44.0505 H         1 UNK         0.0600 
    200 H200       -1.8311  -26.1259  -45.0895 H         1 UNK         0.3000 
    201 H201       -3.6223  -27.2545  -46.9774 H         1 UNK         0.0600 
    202 H202       -1.7266  -28.7759  -47.4693 H         1 UNK         0.0600 
    203 H203       -1.9096  -28.5608  -45.7341 H         1 UNK         0.0600 
    204 H204       -0.6192  -27.7259  -46.5970 H         1 UNK         0.0600 
    205 H205       -4.1862  -26.3121  -48.8270 H         1 UNK         0.3000 
    206 H206       -4.2282  -25.3199  -50.7915 H         1 UNK         0.0600 
    207 H207       -2.5364  -27.0523  -51.4527 H         1 UNK         0.0600 
    208 H208       -2.3762  -25.5685  -52.3766 H         1 UNK         0.0600 
    209 H209       -1.2395  -25.9156  -51.0834 H         1 UNK         0.0600 
    210 H210       -3.8149  -23.6967  -48.4332 H         1 UNK         0.3000 
    211 H211       -2.2670  -21.3593  -49.1305 H         1 UNK         0.0600 
    212 H212       -4.5122  -21.8456  -47.1032 H         1 UNK         0.0600 
    213 H213       -3.6071  -20.3470  -47.2296 H         1 UNK         0.0600 
    214 H214       -2.7755  -21.8283  -46.7889 H         1 UNK         0.0600 
    215 H215       -2.7142  -20.3176  -50.9840 H         1 UNK         0.3000 
    216 H216       -5.4453  -19.4505  -51.6779 H         1 UNK         0.0600 
    217 H217       -5.2997  -21.8161  -52.4962 H         1 UNK         0.0600 
    218 H218       -3.8230  -21.4314  -53.3741 H         1 UNK         0.0600 
    219 H219       -5.3526  -20.7068  -53.8471 H         1 UNK         0.0600 
    220 H220       -3.1506  -17.9025  -50.9380 H         1 UNK         0.3000 
    221 H221       -1.6007  -16.9862  -53.0792 H         1 UNK         0.0600 
    222 H222       -1.0449  -16.4707  -50.7467 H         1 UNK         0.0600 
    223 H223       -1.1595  -14.9897  -51.6698 H         1 UNK         0.0600 
    224 H224       -2.4735  -15.4429  -50.5977 H         1 UNK         0.0600 
    225 H225       -4.7174  -15.6833  -51.9394 H         1 UNK         0.3000 
    226 H226       -4.8264  -13.5207  -53.8222 H         1 UNK         0.0600 
    227 H227       -6.0347  -13.4860  -51.6520 H         1 UNK         0.0600 
    228 H228       -7.1678  -13.3057  -52.9811 H         1 UNK         0.0600 
    229 H229       -7.0304  -14.8530  -52.1554 H         1 UNK         0.0600 
    230 H230       -5.6286  -16.9086  -54.0757 H         1 UNK         0.3000 
    231 H231       -7.4398  -16.5792  -56.3679 H         1 UNK         0.0600 
    232 H232       -7.6016  -19.0455  -56.2467 H         1 UNK         0.0600 
    233 H233       -7.9211  -18.3243  -54.6759 H         1 UNK         0.0600 
    234 H234       -6.3666  -19.0890  -54.9982 H         1 UNK         0.0600 
    235 H235       -4.1428  -17.9420  -55.7181 H         1 UNK         0.3000 
    236 H236       -3.3352  -17.4110  -58.4821 H         1 UNK         0.0600 
    237 H237       -2.8529  -19.8353  -58.9875 H         1 UNK         0.0600 
    238 H238       -3.6839  -20.2988  -57.5071 H         1 UNK         0.0600 
    239 H239       -4.5712  -19.5304  -58.8220 H         1 UNK         0.0600 
    240 H240       -2.4623  -18.5895  -55.2236 H         1 UNK         0.3000 
    241 H241        0.2156  -19.2056  -56.0021 H         1 UNK         0.0600 
    242 H242       -1.0510  -16.0207  -55.2537 H         1 UNK         0.3800 
    243 H243        0.5257  -15.3049  -55.0576 H         1 UNK         0.3800 
    244 H244       -0.4521  -18.8643  -53.0668 H         1 UNK         0.0800 
    245 H245       -1.2639  -20.1074  -53.9634 H         1 UNK         0.0800 
    246 H246        2.1441  -18.8029  -52.6471 H         1 UNK         0.0800 
    247 H247        2.9952  -20.3095  -52.4381 H         1 UNK         0.0800 
@<TRIPOS>BOND
     1    1    2 1    
     2    1  127 1    
     3    1  128 1    
     4    1  129 1    
     5    2    3 2    
     6    2    4 am   BACKBONE|DICT|INTERRES
     7    4    5 1    
     8    4  130 1    
     9    5    6 1    
    10    5   65 1    
    11    5  131 1    
    12    6    7 1    
    13    6  132 1    
    14    6  133 1    
    15    7    8 1    
    16    8    9 1    
    17    8  134 1    
    18    8  135 1    
    19    9   10 ar   
    20    9   14 ar   
    21   10   11 ar   
    22   10  136 1    
    23   11   12 ar   
    24   11  126 1    
    25   12   13 ar   
    26   12  137 1    
    27   13   14 ar   
    28   13   15 1    
    29   14  138 1    
    30   15   16 1    
    31   15  139 1    
    32   15  140 1    
    33   16   17 1    
    34   17   18 1    
    35   17  141 1    
    36   17  142 1    
    37   18   19 1    
    38   18   67 1    
    39   18  143 1    
    40   19   20 am   BACKBONE|DICT|INTERRES
    41   19  144 1    
    42   20   21 2    
    43   20   22 1    
    44   22   23 1    
    45   22   24 1    
    46   22  145 1    
    47   23  146 1    
    48   23  147 1    
    49   23  148 1    
    50   24   25 am   BACKBONE|DICT|INTERRES
    51   24  149 1    
    52   25   26 2    
    53   25   27 1    
    54   27   28 1    
    55   27   29 1    
    56   27  150 1    
    57   28  151 1    
    58   28  152 1    
    59   28  153 1    
    60   29   30 am   BACKBONE|DICT|INTERRES
    61   29  154 1    
    62   30   31 2    
    63   30   32 1    
    64   32   33 1    
    65   32   34 1    
    66   32  155 1    
    67   33  156 1    
    68   33  157 1    
    69   33  158 1    
    70   34   35 am   BACKBONE|DICT|INTERRES
    71   34  159 1    
    72   35   36 2    
    73   35   37 1    
    74   37   38 1    
    75   37   39 1    
    76   37  160 1    
    77   38  161 1    
    78   38  162 1    
    79   38  163 1    
    80   39   40 am   BACKBONE|DICT|INTERRES
    81   39  164 1    
    82   40   41 2    
    83   40   42 1    
    84   42   43 1    
    85   42   44 1    
    86   42  165 1    
    87   43  166 1    
    88   43  167 1    
    89   43  168 1    
    90   44   45 am   BACKBONE|DICT|INTERRES
    91   44  169 1    
    92   45   46 2    
    93   45   47 1    
    94   47   48 1    
    95   47   49 1    
    96   47  170 1    
    97   48  171 1    
    98   48  172 1    
    99   48  173 1    
   100   49   50 am   BACKBONE|DICT|INTERRES
   101   49  174 1    
   102   50   51 2    
   103   50   52 1    
   104   52   53 1    
   105   52   54 1    
   106   52  175 1    
   107   53  176 1    
   108   53  177 1    
   109   53  178 1    
   110   54   55 am   BACKBONE|DICT|INTERRES
   111   54  179 1    
   112   55   56 2    
   113   55   57 1    
   114   57   58 1    
   115   57   59 1    
   116   57  180 1    
   117   58  181 1    
   118   58  182 1    
   119   58  183 1    
   120   59   60 am   BACKBONE|DICT|INTERRES
   121   59  184 1    
   122   60   61 2    
   123   60   62 1    
   124   62   63 1    
   125   62   64 1    
   126   62  185 1    
   127   63  186 1    
   128   63  187 1    
   129   63  188 1    
   130   64   65 am   BACKBONE|DICT|INTERRES
   131   64  189 1    
   132   65   66 2    
   133   67   68 2    
   134   67   69 am   BACKBONE|DICT|INTERRES
   135   69   70 1    
   136   69  190 1    
   137   70   71 1    
   138   70   72 1    
   139   70  191 1    
   140   71  192 1    
   141   71  193 1    
   142   71  194 1    
   143   72   73 2    
   144   72   74 am   BACKBONE|DICT|INTERRES
   145   74   75 1    
   146   74  195 1    
   147   75   76 1    
   148   75   77 1    
   149   75  196 1    
   150   76  197 1    
   151   76  198 1    
   152   76  199 1    
   153   77   78 2    
   154   77   79 am   BACKBONE|DICT|INTERRES
   155   79   80 1    
   156   79  200 1    
   157   80   81 1    
   158   80   82 1    
   159   80  201 1    
   160   81  202 1    
   161   81  203 1    
   162   81  204 1    
   163   82   83 2    
   164   82   84 am   BACKBONE|DICT|INTERRES
   165   84   85 1    
   166   84  205 1    
   167   85   86 1    
   168   85   87 1    
   169   85  206 1    
   170   86  207 1    
   171   86  208 1    
   172   86  209 1    
   173   87   88 2    
   174   87   89 am   BACKBONE|DICT|INTERRES
   175   89   90 1    
   176   89  210 1    
   177   90   91 1    
   178   90   92 1    
   179   90  211 1    
   180   91  212 1    
   181   91  213 1    
   182   91  214 1    
   183   92   93 2    
   184   92   94 am   BACKBONE|DICT|INTERRES
   185   94   95 1    
   186   94  215 1    
   187   95   96 1    
   188   95   97 1    
   189   95  216 1    
   190   96  217 1    
   191   96  218 1    
   192   96  219 1    
   193   97   98 2    
   194   97   99 am   BACKBONE|DICT|INTERRES
   195   99  100 1    
   196   99  220 1    
   197  100  101 1    
   198  100  102 1    
   199  100  221 1    
   200  101  222 1    
   201  101  223 1    
   202  101  224 1    
   203  102  103 2    
   204  102  104 am   BACKBONE|DICT|INTERRES
   205  104  105 1    
   206  104  225 1    
   207  105  106 1    
   208  105  107 1    
   209  105  226 1    
   210  106  227 1    
   211  106  228 1    
   212  106  229 1    
   213  107  108 2    
   214  107  109 am   BACKBONE|DICT|INTERRES
   215  109  110 1    
   216  109  230 1    
   217  110  111 1    
   218  110  112 1    
   219  110  231 1    
   220  111  232 1    
   221  111  233 1    
   222  111  234 1    
   223  112  113 2    
   224  112  114 am   BACKBONE|DICT|INTERRES
   225  114  115 1    
   226  114  235 1    
   227  115  116 1    
   228  115  117 1    
   229  115  236 1    
   230  116  237 1    
   231  116  238 1    
   232  116  239 1    
   233  117  118 2    
   234  117  119 am   BACKBONE|DICT|INTERRES
   235  119  120 1    
   236  119  240 1    
   237  120  121 1    
   238  120  124 1    
   239  120  241 1    
   240  121  122 am   BACKBONE|DICT|INTERRES
   241  121  123 2    
   242  122  242 1    
   243  122  243 1    
   244  124  125 1    
   245  124  244 1    
   246  124  245 1    
   247  125  126 1    
   248  126  246 1    
   249  126  247 1    
@<TRIPOS>SUBSTRUCTURE
     1 UNK         1 GROUP             0       ****    0 ROOT    
