@<TRIPOS>MOLECULE
3R540
247   249    1
SMALL
USER_CHARGES


@<TRIPOS>ATOM
      1 CA          4.0556  -11.7350  -48.8491 C.3       0 UNK        -0.1800 
      2 C           3.3648  -12.5582  -49.9273 C.2       0 UNK         0.5000 
      3 O           3.2000  -12.0822  -51.0500 O.2       0 UNK        -0.5000 
      4 N           2.9550  -13.7853  -49.5793 N.am      1 UNK        -0.5000 
      5 CA          2.2651  -14.7623  -50.4368 C.3       1 UNK         0.1400 
      6 C6          3.1335  -15.2925  -51.6126 C.3       23 UNK        -0.0398 
      7 S7          4.4871  -16.3722  -51.0411 S.3       23 UNK        -0.2404 
      8 C8          3.7731  -18.0229  -51.3507 C.3       23 UNK        -0.0205 
      9 C9          2.7752  -18.4173  -50.2715 C.ar      23 UNK        -0.0193 
     10 C10         1.4184  -18.0961  -50.3954 C.ar      23 UNK        -0.1150 
     11 C11         0.5181  -18.4177  -49.3751 C.ar      23 UNK        -0.0193 
     12 C12         0.9767  -19.0997  -48.2448 C.ar      23 UNK        -0.1150 
     13 C13         2.3220  -19.4628  -48.1292 C.ar      23 UNK        -0.0193 
     14 C14         3.2173  -19.1076  -49.1402 C.ar      23 UNK        -0.1150 
     15 C15         2.8173  -20.2162  -46.9034 C.3       23 UNK        -0.0205 
     16 S16         3.1683  -21.9724  -47.2411 S.3       23 UNK        -0.2404 
     17 C17         1.5196  -22.5924  -47.7131 C.3       23 UNK        -0.0398 
     18 CA          0.9084  -23.6174  -46.7277 C.3       11 UNK         0.1400 
     19 N           0.9194  -23.1632  -45.3268 N.am      11 UNK        -0.5000 
     20 C           0.4929  -23.8890  -44.2809 C.2       10 UNK         0.5000 
     21 O           0.0236  -25.0226  -44.3946 O.2       10 UNK        -0.5000 
     22 CA          0.5464  -23.2230  -42.8909 C.3       10 UNK         0.1400 
     23 CB          0.5689  -24.2443  -41.7339 C.3       10 UNK        -0.1800 
     24 N           1.6096  -22.2240  -42.7364 N.am      10 UNK        -0.5000 
     25 C           2.9367  -22.4294  -42.7141 C.2       9 UNK         0.5000 
     26 O           3.4580  -23.5274  -42.9103 O.2       9 UNK        -0.5000 
     27 CA          3.8451  -21.2135  -42.4140 C.3       9 UNK         0.1400 
     28 CB          4.7719  -20.9127  -43.6005 C.3       9 UNK        -0.1800 
     29 N           3.1041  -19.9950  -42.0745 N.am      9 UNK        -0.5000 
     30 C           2.5427  -19.7462  -40.8805 C.2       8 UNK         0.5000 
     31 O           2.6776  -20.4797  -39.9008 O.2       8 UNK        -0.5000 
     32 CA          1.6444  -18.4936  -40.7668 C.3       8 UNK         0.1400 
     33 CB          2.4299  -17.3224  -40.1579 C.3       8 UNK        -0.1800 
     34 N           1.0670  -18.0625  -42.0431 N.am      8 UNK        -0.5000 
     35 C           0.2777  -18.8056  -42.8310 C.2       7 UNK         0.5000 
     36 O          -0.1542  -19.9109  -42.5055 O.2       7 UNK        -0.5000 
     37 CA         -0.0289  -18.2746  -44.2448 C.3       7 UNK         0.1400 
     38 CB         -1.5097  -17.8965  -44.3733 C.3       7 UNK        -0.1800 
     39 N           0.8047  -17.1525  -44.6944 N.am      7 UNK        -0.5000 
     40 C           2.1365  -17.1777  -44.8596 C.2       6 UNK         0.5000 
     41 O           2.8399  -18.1306  -44.5226 O.2       6 UNK        -0.5000 
     42 CA          2.7976  -15.9418  -45.4974 C.3       6 UNK         0.1400 
     43 CB          3.2559  -16.2629  -46.9271 C.3       6 UNK        -0.1800 
     44 N           1.9044  -14.7801  -45.5400 N.am      6 UNK        -0.5000 
     45 C           1.8953  -13.7995  -44.6265 C.2       5 UNK         0.5000 
     46 O           2.6456  -13.7613  -43.6510 O.2       5 UNK        -0.5000 
     47 CA          0.8593  -12.6781  -44.8334 C.3       5 UNK         0.1400 
     48 CB          1.4046  -11.6189  -45.8039 C.3       5 UNK        -0.1800 
     49 N          -0.4337  -13.1700  -45.3202 N.am      5 UNK        -0.5000 
     50 C          -1.2607  -13.9496  -44.6046 C.2       4 UNK         0.5000 
     51 O          -0.9932  -14.3470  -43.4704 O.2       4 UNK        -0.5000 
     52 CA         -2.5777  -14.4055  -45.2697 C.3       4 UNK         0.1400 
     53 CB         -3.7248  -14.6115  -44.2569 C.3       4 UNK        -0.1800 
     54 N          -2.9979  -13.5709  -46.3986 N.am      4 UNK        -0.5000 
     55 C          -3.4206  -12.2980  -46.3688 C.2       3 UNK         0.5000 
     56 O          -3.5890  -11.6534  -45.3332 O.2       3 UNK        -0.5000 
     57 CA         -3.6903  -11.6400  -47.7421 C.3       3 UNK         0.1400 
     58 CB         -3.4397  -10.1179  -47.7185 C.3       3 UNK        -0.1800 
     59 N          -2.9626  -12.2534  -48.8647 N.am      3 UNK        -0.5000 
     60 C          -1.6338  -12.3739  -48.9884 C.2       2 UNK         0.5000 
     61 O          -0.8281  -12.0832  -48.0996 O.2       2 UNK        -0.5000 
     62 CA         -1.1236  -12.9293  -50.3208 C.3       2 UNK         0.1400 
     63 CB         -1.1655  -11.8571  -51.4240 C.3       2 UNK        -0.1800 
     64 N           0.2378  -13.4042  -50.1290 N.am      2 UNK        -0.5000 
     65 C           0.8571  -14.3104  -50.8900 C.2       1 UNK         0.5000 
     66 O           0.3412  -14.8110  -51.8897 O.2       1 UNK        -0.5000 
     67 C          -0.5090  -23.9726  -47.2224 C.2       11 UNK         0.5000 
     68 O          -0.6717  -24.9230  -47.9873 O.2       11 UNK        -0.5000 
     69 N          -1.5100  -23.2073  -46.7615 N.am      12 UNK        -0.5000 
     70 CA         -2.9194  -23.3427  -47.1294 C.3       12 UNK         0.1400 
     71 CB         -3.7164  -22.1846  -46.5115 C.3       12 UNK        -0.1800 
     72 C          -3.5415  -24.6996  -46.7537 C.2       12 UNK         0.5000 
     73 O          -4.4588  -25.1436  -47.4421 O.2       12 UNK        -0.5000 
     74 N          -3.0125  -25.3541  -45.7101 N.am      13 UNK        -0.5000 
     75 CA         -3.4232  -26.6952  -45.2911 C.3       13 UNK         0.1400 
     76 CB         -2.8539  -26.9868  -43.8943 C.3       13 UNK        -0.1800 
     77 C          -2.9978  -27.7890  -46.2904 C.2       13 UNK         0.5000 
     78 O          -3.6952  -28.7963  -46.4146 O.2       13 UNK        -0.5000 
     79 N          -1.8752  -27.5685  -46.9880 N.am      14 UNK        -0.5000 
     80 CA         -1.3624  -28.4537  -48.0313 C.3       14 UNK         0.1400 
     81 CB          0.1735  -28.3942  -48.0371 C.3       14 UNK        -0.1800 
     82 C          -1.9271  -28.0759  -49.4106 C.2       14 UNK         0.5000 
     83 O          -2.3100  -28.9634  -50.1736 O.2       14 UNK        -0.5000 
     84 N          -1.9641  -26.7689  -49.7074 N.am      15 UNK        -0.5000 
     85 CA         -2.4031  -26.2192  -50.9907 C.3       15 UNK         0.1400 
     86 CB         -1.9435  -24.7559  -51.0962 C.3       15 UNK        -0.1800 
     87 C          -3.9216  -26.3137  -51.2207 C.2       15 UNK         0.5000 
     88 O          -4.3470  -26.3707  -52.3748 O.2       15 UNK        -0.5000 
     89 N          -4.7091  -26.2820  -50.1343 N.am      16 UNK        -0.5000 
     90 CA         -6.1778  -26.3033  -50.0462 C.3       16 UNK         0.1400 
     91 CB         -6.7658  -27.5784  -50.6792 C.3       16 UNK        -0.1800 
     92 C          -6.8659  -25.0353  -50.5932 C.2       16 UNK         0.5000 
     93 O          -7.7794  -24.5148  -49.9530 O.2       16 UNK        -0.5000 
     94 N          -6.4026  -24.5448  -51.7480 N.am      17 UNK        -0.5000 
     95 CA         -6.8707  -23.3316  -52.4197 C.3       17 UNK         0.1400 
     96 CB         -6.5457  -23.4529  -53.9176 C.3       17 UNK        -0.1800 
     97 C          -6.2596  -22.0376  -51.8451 C.2       17 UNK         0.5000 
     98 O          -6.6412  -20.9526  -52.2855 O.2       17 UNK        -0.5000 
     99 N          -5.2955  -22.1622  -50.9166 N.am      18 UNK        -0.5000 
    100 CA        -4.5625  -21.0713  -50.2540 C.3       18 UNK         0.1400 
    101 CB        -5.5135  -20.2836  -49.3315 C.3       18 UNK        -0.1800 
    102 C         -3.8003  -20.1741  -51.2564 C.2       18 UNK         0.5000 
    103 O         -3.7557  -18.9494  -51.1065 O.2       18 UNK        -0.5000 
    104 N         -3.2756  -20.8197  -52.3109 N.am      19 UNK        -0.5000 
    105 CA        -2.6217  -20.2491  -53.4973 C.3       19 UNK         0.1400 
    106 CB        -1.3043  -19.5510  -53.1027 C.3       19 UNK        -0.1800 
    107 C         -3.5273  -19.3171  -54.3362 C.2       19 UNK         0.5000 
    108 O         -3.0215  -18.6334  -55.2270 O.2       19 UNK        -0.5000 
    109 N         -4.8341  -19.2825  -54.0234 N.am      20 UNK        -0.5000 
    110 CA        -5.8424  -18.3293  -54.4954 C.3       20 UNK         0.1400 
    111 CB        -6.1553  -18.5609  -55.9882 C.3       20 UNK        -0.1800 
    112 C         -5.4782  -16.8614  -54.1706 C.2       20 UNK         0.5000 
    113 O         -5.8512  -15.9599  -54.9242 O.2       20 UNK        -0.5000 
    114 N         -4.7398  -16.6483  -53.0707 N.am      21 UNK        -0.5000 
    115 CA        -4.1631  -15.3545  -52.7061 C.3       21 UNK         0.1400 
    116 CB        -2.7221  -15.2734  -53.2341 C.3       21 UNK        -0.1800 
    117 C         -4.2050  -15.0893  -51.1953 C.2       21 UNK         0.5000 
    118 O         -4.4174  -13.9405  -50.7995 O.2       21 UNK        -0.5000 
    119 N         -3.9899  -16.1216  -50.3696 N.am      22 UNK        -0.5000 
    120 CA        -4.1238  -16.0251  -48.9101 C.3       22 UNK         0.1400 
    121 C         -5.6048  -16.1677  -48.4616 C.2       22 UNK         0.5000 
    122 N         -5.9833  -15.5501  -47.3507 N.am      22 UNK        -0.7600 
    123 O         -6.4085  -16.8519  -49.0900 O.2       22 UNK        -0.5000 
    124 C124       -3.2176  -17.0405  -48.1738 C.3       23 UNK        -0.0398 
    125 S125       -1.4319  -16.7037  -48.3790 S.3       23 UNK        -0.2404 
    126 C126       -0.9557  -18.0632  -49.4952 C.3       23 UNK        -0.0205 
    127 H127        5.0560  -11.4517  -49.1764 H         1 UNK         0.0600 
    128 H128        3.4891  -10.8247  -48.6523 H         1 UNK         0.0600 
    129 H129        4.1479  -12.2860  -47.9126 H         1 UNK         0.0600 
    130 H130        3.1481  -14.1070  -48.6428 H         1 UNK         0.3000 
    131 H131        2.0612  -15.6010  -49.7743 H         1 UNK         0.0600 
    132 H132        3.5612  -14.4664  -52.1810 H         1 UNK         0.0800 
    133 H133        2.5426  -15.8589  -52.3329 H         1 UNK         0.0800 
    134 H134        4.5853  -18.7509  -51.3810 H         1 UNK         0.0800 
    135 H135        3.3060  -18.0584  -52.3359 H         1 UNK         0.0800 
    136 H136        1.0667  -17.5762  -51.2754 H         1 UNK         0.1150 
    137 H137        0.2792  -19.3523  -47.4590 H         1 UNK         0.1150 
    138 H138        4.2620  -19.3678  -49.0427 H         1 UNK         0.1150 
    139 H139        2.0960  -20.1475  -46.0893 H         1 UNK         0.0800 
    140 H140        3.7306  -19.7375  -46.5488 H         1 UNK         0.0800 
    141 H141        1.6194  -23.0433  -48.7024 H         1 UNK         0.0800 
    142 H142        0.8402  -21.7515  -47.8448 H         1 UNK         0.0800 
    143 H143        1.5070  -24.5296  -46.7721 H         1 UNK         0.0600 
    144 H144        1.3267  -22.2581  -45.1484 H         1 UNK         0.3000 
    145 H145       -0.3885  -22.6682  -42.8036 H         1 UNK         0.0600 
    146 H146        0.5878  -23.7429  -40.7661 H         1 UNK         0.0600 
    147 H147       -0.3196  -24.8767  -41.7518 H         1 UNK         0.0600 
    148 H148        1.4367  -24.9019  -41.7892 H         1 UNK         0.0600 
    149 H149        1.2699  -21.2832  -42.5658 H         1 UNK         0.3000 
    150 H150        4.4722  -21.4871  -41.5630 H         1 UNK         0.0600 
    151 H151        5.3810  -21.7803  -43.8571 H         1 UNK         0.0600 
    152 H152        5.4529  -20.0925  -43.3730 H         1 UNK         0.0600 
    153 H153        4.2026  -20.6387  -44.4857 H         1 UNK         0.0600 
    154 H154        2.9637  -19.3305  -42.8291 H         1 UNK         0.3000 
    155 H155        0.8193  -18.7423  -40.0964 H         1 UNK         0.0600 
    156 H156        3.2536  -17.0132  -40.8027 H         1 UNK         0.0600 
    157 H157        2.8542  -17.5965  -39.1910 H         1 UNK         0.0600 
    158 H158        1.7868  -16.4573  -39.9955 H         1 UNK         0.0600 
    159 H159        1.3780  -17.1708  -42.3994 H         1 UNK         0.3000 
    160 H160        0.1586  -19.1041  -44.9287 H         1 UNK         0.0600 
    161 H161       -1.7614  -17.6492  -45.4032 H         1 UNK         0.0600 
    162 H162       -1.7594  -17.0459  -43.7399 H         1 UNK         0.0600 
    163 H163       -2.1551  -18.7248  -44.0774 H         1 UNK         0.0600 
    164 H164        0.3185  -16.3039  -44.9363 H         1 UNK         0.3000 
    165 H165        3.6868  -15.7120  -44.9066 H         1 UNK         0.0600 
    166 H166        3.8079  -15.4301  -47.3606 H         1 UNK         0.0600 
    167 H167        3.9227  -17.1259  -46.9401 H         1 UNK         0.0600 
    168 H168        2.4118  -16.4914  -47.5782 H         1 UNK         0.0600 
    169 H169        1.2499  -14.7310  -46.3066 H         1 UNK         0.3000 
    170 H170        0.6925  -12.1975  -43.8670 H         1 UNK         0.0600 
    171 H171        2.3435  -11.2003  -45.4393 H         1 UNK         0.0600 
    172 H172        1.5944  -12.0365  -46.7931 H         1 UNK         0.0600 
    173 H173        0.7032  -10.7923  -45.9201 H         1 UNK         0.0600 
    174 H174       -0.7153  -12.8557  -46.2437 H         1 UNK         0.3000 
    175 H175       -2.3534  -15.3794  -45.7006 H         1 UNK         0.0600 
    176 H176       -4.6319  -14.9620  -44.7471 H         1 UNK         0.0600 
    177 H177       -3.4603  -15.3572  -43.5069 H         1 UNK         0.0600 
    178 H178       -3.9654  -13.6929  -43.7218 H         1 UNK         0.0600 
    179 H179       -2.8268  -13.9609  -47.3131 H         1 UNK         0.3000 
    180 H180       -4.7503  -11.7976  -47.9464 H         1 UNK         0.0600 
    181 H181       -2.4073   -9.8831  -47.4569 H         1 UNK         0.0600 
    182 H182       -4.0828   -9.6234  -46.9896 H         1 UNK         0.0600 
    183 H183       -3.6498   -9.6689  -48.6893 H         1 UNK         0.0600 
    184 H184       -3.5454  -12.5894  -49.6279 H         1 UNK         0.3000 
    185 H185       -1.7487  -13.7767  -50.5997 H         1 UNK         0.0600 
    186 H186       -0.5466  -10.9962  -51.1681 H         1 UNK         0.0600 
    187 H187       -0.8106  -12.2515  -52.3761 H         1 UNK         0.0600 
    188 H188       -2.1829  -11.4979  -51.5833 H         1 UNK         0.0600 
    189 H189        0.6931  -13.0389  -49.3025 H         1 UNK         0.3000 
    190 H190       -1.2838  -22.4639  -46.1179 H         1 UNK         0.3000 
    191 H191       -2.9821  -23.2556  -48.2143 H         1 UNK         0.0600 
    192 H192       -3.6616  -22.1951  -45.4222 H         1 UNK         0.0600 
    193 H193       -4.7701  -22.2440  -46.7876 H         1 UNK         0.0600 
    194 H194       -3.3458  -21.2195  -46.8579 H         1 UNK         0.0600 
    195 H195       -2.2299  -24.9447  -45.2180 H         1 UNK         0.3000 
    196 H196       -4.5131  -26.7125  -45.2241 H         1 UNK         0.0600 
    197 H197       -3.1941  -27.9571  -43.5303 H         1 UNK         0.0600 
    198 H198       -3.1756  -26.2373  -43.1711 H         1 UNK         0.0600 
    199 H199       -1.7635  -27.0035  -43.8986 H         1 UNK         0.0600 
    200 H200       -1.3821  -26.6955  -46.8536 H         1 UNK         0.3000 
    201 H201       -1.6550  -29.4840  -47.8170 H         1 UNK         0.0600 
    202 H202        0.5820  -28.7084  -47.0766 H         1 UNK         0.0600 
    203 H203        0.5416  -27.3886  -48.2434 H         1 UNK         0.0600 
    204 H204        0.5861  -29.0572  -48.7985 H         1 UNK         0.0600 
    205 H205       -1.5750  -26.1066  -49.0400 H         1 UNK         0.3000 
    206 H206       -1.9149  -26.7857  -51.7866 H         1 UNK         0.0600 
    207 H207       -0.8612  -24.6746  -50.9924 H         1 UNK         0.0600 
    208 H208       -2.2090  -24.3304  -52.0648 H         1 UNK         0.0600 
    209 H209       -2.3994  -24.1334  -50.3270 H         1 UNK         0.0600 
    210 H210       -4.2548  -26.1653  -49.2353 H         1 UNK         0.3000 
    211 H211       -6.4035  -26.3410  -48.9793 H         1 UNK         0.0600 
    212 H212       -6.6159  -27.6082  -51.7586 H         1 UNK         0.0600 
    213 H213       -7.8399  -27.6395  -50.4999 H         1 UNK         0.0600 
    214 H214       -6.3132  -28.4735  -50.2525 H         1 UNK         0.0600 
    215 H215       -5.6630  -25.0710  -52.2076 H         1 UNK         0.3000 
    216 H216       -7.9543  -23.2589  -52.3073 H         1 UNK         0.0600 
    217 H217       -6.9101  -22.5871  -54.4724 H         1 UNK         0.0600 
    218 H218       -7.0162  -24.3351  -54.3520 H         1 UNK         0.0600 
    219 H219       -5.4714  -23.5264  -54.0915 H         1 UNK         0.0600 
    220 H220       -5.0592  -23.0995  -50.6262 H         1 UNK         0.3000 
    221 H221       -3.8035  -21.5391  -49.6276 H         1 UNK         0.0600 
    222 H222       -6.2041  -19.6582  -49.8986 H         1 UNK         0.0600 
    223 H223       -6.1059  -20.9549  -48.7099 H         1 UNK         0.0600 
    224 H224       -4.9619  -19.6334  -48.6567 H         1 UNK         0.0600 
    225 H225       -3.4021  -21.8210  -52.3397 H         1 UNK         0.3000 
    226 H226       -2.3721  -21.0939  -54.1407 H         1 UNK         0.0600 
    227 H227       -0.7071  -20.1683  -52.4315 H         1 UNK         0.0600 
    228 H228       -0.6945  -19.3441  -53.9827 H         1 UNK         0.0600 
    229 H229       -1.4903  -18.5971  -52.6111 H         1 UNK         0.0600 
    230 H230       -5.1619  -19.8998  -53.2886 H         1 UNK         0.3000 
    231 H231       -6.7504  -18.5459  -53.9309 H         1 UNK         0.0600 
    232 H232       -6.4092  -19.6036  -56.1795 H         1 UNK         0.0600 
    233 H233       -5.3104  -18.2984  -56.6253 H         1 UNK         0.0600 
    234 H234       -7.0057  -17.9578  -56.3082 H         1 UNK         0.0600 
    235 H235       -4.4949  -17.4415  -52.4902 H         1 UNK         0.3000 
    236 H236       -4.7393  -14.5515  -53.1706 H         1 UNK         0.0600 
    237 H237       -2.2758  -14.3042  -53.0104 H         1 UNK         0.0600 
    238 H238       -2.0872  -16.0399  -52.7878 H         1 UNK         0.0600 
    239 H239       -2.6895  -15.4027  -54.3160 H         1 UNK         0.0600 
    240 H240       -3.8455  -17.0578  -50.7336 H         1 UNK         0.3000 
    241 H241       -3.7986  -15.0301  -48.6076 H         1 UNK         0.0600 
    242 H242       -6.9412  -15.6488  -47.0512 H         1 UNK         0.3800 
    243 H243       -5.3564  -14.9802  -46.8082 H         1 UNK         0.3800 
    244 H244       -3.4424  -18.0528  -48.5011 H         1 UNK         0.0800 
    245 H245       -3.4254  -17.0283  -47.1032 H         1 UNK         0.0800 
    246 H246       -1.5380  -18.9590  -49.2775 H         1 UNK         0.0800 
    247 H247       -1.2047  -17.7709  -50.5148 H         1 UNK         0.0800 
@<TRIPOS>BOND
     1    1    2 1    
     2    1  127 1    
     3    1  128 1    
     4    1  129 1    
     5    2    3 2    
     6    2    4 am   BACKBONE|DICT|INTERRES
     7    4    5 1    
     8    4  130 1    
     9    5    6 1    
    10    5   65 1    
    11    5  131 1    
    12    6    7 1    
    13    6  132 1    
    14    6  133 1    
    15    7    8 1    
    16    8    9 1    
    17    8  134 1    
    18    8  135 1    
    19    9   10 ar   
    20    9   14 ar   
    21   10   11 ar   
    22   10  136 1    
    23   11   12 ar   
    24   11  126 1    
    25   12   13 ar   
    26   12  137 1    
    27   13   14 ar   
    28   13   15 1    
    29   14  138 1    
    30   15   16 1    
    31   15  139 1    
    32   15  140 1    
    33   16   17 1    
    34   17   18 1    
    35   17  141 1    
    36   17  142 1    
    37   18   19 1    
    38   18   67 1    
    39   18  143 1    
    40   19   20 am   BACKBONE|DICT|INTERRES
    41   19  144 1    
    42   20   21 2    
    43   20   22 1    
    44   22   23 1    
    45   22   24 1    
    46   22  145 1    
    47   23  146 1    
    48   23  147 1    
    49   23  148 1    
    50   24   25 am   BACKBONE|DICT|INTERRES
    51   24  149 1    
    52   25   26 2    
    53   25   27 1    
    54   27   28 1    
    55   27   29 1    
    56   27  150 1    
    57   28  151 1    
    58   28  152 1    
    59   28  153 1    
    60   29   30 am   BACKBONE|DICT|INTERRES
    61   29  154 1    
    62   30   31 2    
    63   30   32 1    
    64   32   33 1    
    65   32   34 1    
    66   32  155 1    
    67   33  156 1    
    68   33  157 1    
    69   33  158 1    
    70   34   35 am   BACKBONE|DICT|INTERRES
    71   34  159 1    
    72   35   36 2    
    73   35   37 1    
    74   37   38 1    
    75   37   39 1    
    76   37  160 1    
    77   38  161 1    
    78   38  162 1    
    79   38  163 1    
    80   39   40 am   BACKBONE|DICT|INTERRES
    81   39  164 1    
    82   40   41 2    
    83   40   42 1    
    84   42   43 1    
    85   42   44 1    
    86   42  165 1    
    87   43  166 1    
    88   43  167 1    
    89   43  168 1    
    90   44   45 am   BACKBONE|DICT|INTERRES
    91   44  169 1    
    92   45   46 2    
    93   45   47 1    
    94   47   48 1    
    95   47   49 1    
    96   47  170 1    
    97   48  171 1    
    98   48  172 1    
    99   48  173 1    
   100   49   50 am   BACKBONE|DICT|INTERRES
   101   49  174 1    
   102   50   51 2    
   103   50   52 1    
   104   52   53 1    
   105   52   54 1    
   106   52  175 1    
   107   53  176 1    
   108   53  177 1    
   109   53  178 1    
   110   54   55 am   BACKBONE|DICT|INTERRES
   111   54  179 1    
   112   55   56 2    
   113   55   57 1    
   114   57   58 1    
   115   57   59 1    
   116   57  180 1    
   117   58  181 1    
   118   58  182 1    
   119   58  183 1    
   120   59   60 am   BACKBONE|DICT|INTERRES
   121   59  184 1    
   122   60   61 2    
   123   60   62 1    
   124   62   63 1    
   125   62   64 1    
   126   62  185 1    
   127   63  186 1    
   128   63  187 1    
   129   63  188 1    
   130   64   65 am   BACKBONE|DICT|INTERRES
   131   64  189 1    
   132   65   66 2    
   133   67   68 2    
   134   67   69 am   BACKBONE|DICT|INTERRES
   135   69   70 1    
   136   69  190 1    
   137   70   71 1    
   138   70   72 1    
   139   70  191 1    
   140   71  192 1    
   141   71  193 1    
   142   71  194 1    
   143   72   73 2    
   144   72   74 am   BACKBONE|DICT|INTERRES
   145   74   75 1    
   146   74  195 1    
   147   75   76 1    
   148   75   77 1    
   149   75  196 1    
   150   76  197 1    
   151   76  198 1    
   152   76  199 1    
   153   77   78 2    
   154   77   79 am   BACKBONE|DICT|INTERRES
   155   79   80 1    
   156   79  200 1    
   157   80   81 1    
   158   80   82 1    
   159   80  201 1    
   160   81  202 1    
   161   81  203 1    
   162   81  204 1    
   163   82   83 2    
   164   82   84 am   BACKBONE|DICT|INTERRES
   165   84   85 1    
   166   84  205 1    
   167   85   86 1    
   168   85   87 1    
   169   85  206 1    
   170   86  207 1    
   171   86  208 1    
   172   86  209 1    
   173   87   88 2    
   174   87   89 am   BACKBONE|DICT|INTERRES
   175   89   90 1    
   176   89  210 1    
   177   90   91 1    
   178   90   92 1    
   179   90  211 1    
   180   91  212 1    
   181   91  213 1    
   182   91  214 1    
   183   92   93 2    
   184   92   94 am   BACKBONE|DICT|INTERRES
   185   94   95 1    
   186   94  215 1    
   187   95   96 1    
   188   95   97 1    
   189   95  216 1    
   190   96  217 1    
   191   96  218 1    
   192   96  219 1    
   193   97   98 2    
   194   97   99 am   BACKBONE|DICT|INTERRES
   195   99  100 1    
   196   99  220 1    
   197  100  101 1    
   198  100  102 1    
   199  100  221 1    
   200  101  222 1    
   201  101  223 1    
   202  101  224 1    
   203  102  103 2    
   204  102  104 am   BACKBONE|DICT|INTERRES
   205  104  105 1    
   206  104  225 1    
   207  105  106 1    
   208  105  107 1    
   209  105  226 1    
   210  106  227 1    
   211  106  228 1    
   212  106  229 1    
   213  107  108 2    
   214  107  109 am   BACKBONE|DICT|INTERRES
   215  109  110 1    
   216  109  230 1    
   217  110  111 1    
   218  110  112 1    
   219  110  231 1    
   220  111  232 1    
   221  111  233 1    
   222  111  234 1    
   223  112  113 2    
   224  112  114 am   BACKBONE|DICT|INTERRES
   225  114  115 1    
   226  114  235 1    
   227  115  116 1    
   228  115  117 1    
   229  115  236 1    
   230  116  237 1    
   231  116  238 1    
   232  116  239 1    
   233  117  118 2    
   234  117  119 am   BACKBONE|DICT|INTERRES
   235  119  120 1    
   236  119  240 1    
   237  120  121 1    
   238  120  124 1    
   239  120  241 1    
   240  121  122 am   BACKBONE|DICT|INTERRES
   241  121  123 2    
   242  122  242 1    
   243  122  243 1    
   244  124  125 1    
   245  124  244 1    
   246  124  245 1    
   247  125  126 1    
   248  126  246 1    
   249  126  247 1    
@<TRIPOS>SUBSTRUCTURE
     1 UNK         1 GROUP             0       ****    0 ROOT    
