@<TRIPOS>MOLECULE
3R540
247   249    1
SMALL
USER_CHARGES


@<TRIPOS>ATOM
      1 CA          8.5169  -11.5404  -47.7987 C.3       0 UNK        -0.1800 
      2 C           7.4721  -12.5820  -48.1737 C.2       0 UNK         0.5000 
      3 O           7.8136  -13.7476  -48.3753 O.2       0 UNK        -0.5000 
      4 N           6.2035  -12.1661  -48.2746 N.am      1 UNK        -0.5000 
      5 CA          5.0540  -13.0334  -48.5400 C.3       1 UNK         0.1400 
      6 C6          3.8175  -12.1946  -48.9654 C.3       23 UNK        -0.0398 
      7 S7          2.2479  -13.1203  -49.0912 S.3       23 UNK        -0.2404 
      8 C8          2.4477  -13.9467  -50.6961 C.3       23 UNK        -0.0205 
      9 C9          1.5436  -15.1645  -50.7927 C.ar      23 UNK        -0.0193 
     10 C10         0.3483  -15.1096  -51.5147 C.ar      23 UNK        -0.1150 
     11 C11        -0.4728  -16.2363  -51.6316 C.ar      23 UNK        -0.0193 
     12 C12        -0.0778  -17.4272  -51.0053 C.ar      23 UNK        -0.1150 
     13 C13         1.1023  -17.4891  -50.2600 C.ar      23 UNK        -0.0193 
     14 C14         1.9129  -16.3563  -50.1649 C.ar      23 UNK        -0.1150 
     15 C15         1.5115  -18.7782  -49.5642 C.3       23 UNK        -0.0205 
     16 S16         0.8225  -18.8758  -47.8809 S.3       23 UNK        -0.2404 
     17 C17        -0.8149  -19.6228  -48.1894 C.3       23 UNK        -0.0398 
     18 CA         -0.8969  -21.0529  -47.6079 C.3       11 UNK         0.1400 
     19 N          -0.8057  -21.0564  -46.1449 N.am      11 UNK        -0.5000 
     20 C          -0.6166  -22.1457  -45.3893 C.2       10 UNK         0.5000 
     21 O          -0.4758  -23.2798  -45.8438 O.2       10 UNK        -0.5000 
     22 CA         -0.6491  -21.9338  -43.8667 C.3       10 UNK         0.1400 
     23 CB          0.6860  -21.3637  -43.3630 C.3       10 UNK        -0.1800 
     24 N          -1.7490  -21.0533  -43.4698 N.am      10 UNK        -0.5000 
     25 C          -3.0442  -21.3981  -43.5472 C.2       9 UNK         0.5000 
     26 O          -3.4310  -22.5047  -43.9204 O.2       9 UNK        -0.5000 
     27 CA         -4.0890  -20.3224  -43.1920 C.3       9 UNK         0.1400 
     28 CB         -4.4179  -20.3702  -41.6927 C.3       9 UNK        -0.1800 
     29 N          -3.6731  -18.9666  -43.5465 N.am      9 UNK        -0.5000 
     30 C          -3.3581  -18.5442  -44.7794 C.2       8 UNK         0.5000 
     31 O          -3.4475  -19.2449  -45.7864 O.2       8 UNK        -0.5000 
     32 CA         -2.7885  -17.1180  -44.8960 C.3       8 UNK         0.1400 
     33 CB         -3.8905  -16.1296  -45.2985 C.3       8 UNK        -0.1800 
     34 N          -2.1432  -16.6418  -43.6681 N.am      8 UNK        -0.5000 
     35 C          -1.0675  -17.2030  -43.1029 C.2       7 UNK         0.5000 
     36 O          -0.4963  -18.1990  -43.5547 O.2       7 UNK        -0.5000 
     37 CA         -0.5864  -16.5849  -41.7880 C.3       7 UNK         0.1400 
     38 CB         -1.3149  -17.2267  -40.5928 C.3       7 UNK        -0.1800 
     39 N           0.8486  -16.8058  -41.6816 N.am      7 UNK        -0.5000 
     40 C           1.6865  -16.1061  -40.9123 C.2       6 UNK         0.5000 
     41 O           1.3245  -15.2051  -40.1539 O.2       6 UNK        -0.5000 
     42 CA          3.1813  -16.4473  -41.0121 C.3       6 UNK         0.1400 
     43 CB          3.4692  -17.8649  -41.5489 C.3       6 UNK        -0.1800 
     44 N           3.8020  -15.4590  -41.8868 N.am      6 UNK        -0.5000 
     45 C           4.5475  -14.4280  -41.4709 C.2       5 UNK         0.5000 
     46 O           4.8875  -14.2511  -40.2999 O.2       5 UNK        -0.5000 
     47 CA          4.9859  -13.4132  -42.5418 C.3       5 UNK         0.1400 
     48 CB          6.2054  -13.9338  -43.3180 C.3       5 UNK        -0.1800 
     49 N           3.9211  -13.0685  -43.4847 N.am      5 UNK        -0.5000 
     50 C           2.8235  -12.3607  -43.1799 C.2       4 UNK         0.5000 
     51 O           2.5678  -11.9450  -42.0496 O.2       4 UNK        -0.5000 
     52 CA          1.8550  -12.0511  -44.3348 C.3       4 UNK         0.1400 
     53 CB          2.3674  -10.8712  -45.1764 C.3       4 UNK        -0.1800 
     54 N           1.6685  -13.2137  -45.1989 N.am      4 UNK        -0.5000 
     55 C           0.7307  -14.1525  -45.0130 C.2       3 UNK         0.5000 
     56 O          -0.1292  -14.0941  -44.1344 O.2       3 UNK        -0.5000 
     57 CA          0.7603  -15.3701  -45.9591 C.3       3 UNK         0.1400 
     58 CB         -0.2370  -15.1857  -47.1141 C.3       3 UNK        -0.1800 
     59 N           2.0932  -15.6481  -46.4970 N.am      3 UNK        -0.5000 
     60 C           3.1250  -16.0785  -45.7565 C.2       2 UNK         0.5000 
     61 O           3.0547  -16.2876  -44.5463 O.2       2 UNK        -0.5000 
     62 CA          4.4799  -16.2443  -46.4691 C.3       2 UNK         0.1400 
     63 CB          4.6086  -17.6535  -47.0625 C.3       2 UNK        -0.1800 
     64 N           4.7256  -15.2470  -47.5150 N.am      2 UNK        -0.5000 
     65 C           4.7825  -13.9237  -47.3090 C.2       1 UNK         0.5000 
     66 O           4.5969  -13.3946  -46.2118 O.2       1 UNK        -0.5000 
     67 C          -2.1587  -21.7896  -48.1023 C.2       11 UNK         0.5000 
     68 O          -2.0864  -22.5143  -49.0957 O.2       11 UNK        -0.5000 
     69 N          -3.2758  -21.6281  -47.3803 N.am      12 UNK        -0.5000 
     70 CA         -4.5311  -22.3367  -47.6194 C.3       12 UNK         0.1400 
     71 CB         -5.6367  -21.7342  -46.7400 C.3       12 UNK        -0.1800 
     72 C          -4.4082  -23.8517  -47.3823 C.2       12 UNK         0.5000 
     73 O          -4.8642  -24.6305  -48.2202 O.2       12 UNK        -0.5000 
     74 N          -3.7667  -24.2402  -46.2696 N.am      13 UNK        -0.5000 
     75 CA         -3.4919  -25.6325  -45.9045 C.3       13 UNK         0.1400 
     76 CB         -2.9736  -25.6939  -44.4599 C.3       13 UNK        -0.1800 
     77 C          -2.5042  -26.3211  -46.8638 C.2       13 UNK         0.5000 
     78 O          -2.6917  -27.4936  -47.1900 O.2       13 UNK        -0.5000 
     79 N          -1.4927  -25.5727  -47.3253 N.am      14 UNK        -0.5000 
     80 CA         -0.5299  -26.0002  -48.3434 C.3       14 UNK         0.1400 
     81 CB          0.6657  -25.0347  -48.3345 C.3       14 UNK        -0.1800 
     82 C          -1.1310  -26.0881  -49.7614 C.2       14 UNK         0.5000 
     83 O          -0.5075  -26.6899  -50.6366 O.2       14 UNK        -0.5000 
     84 N          -2.3119  -25.4834  -49.9597 N.am      15 UNK        -0.5000 
     85 CA         -3.0520  -25.3468  -51.2142 C.3       15 UNK         0.1400 
     86 CB         -3.5528  -26.7176  -51.7158 C.3       15 UNK        -0.1800 
     87 C          -2.2513  -24.5573  -52.2681 C.2       15 UNK         0.5000 
     88 O          -2.0697  -25.0240  -53.3951 O.2       15 UNK        -0.5000 
     89 N          -1.7675  -23.3741  -51.8631 N.am      16 UNK        -0.5000 
     90 CA         -1.0770  -22.4077  -52.7152 C.3       16 UNK         0.1400 
     91 CB         -0.6005  -21.2312  -51.8509 C.3       16 UNK        -0.1800 
     92 C          -1.9946  -21.9218  -53.8524 C.2       16 UNK         0.5000 
     93 O          -3.0413  -21.3361  -53.5763 O.2       16 UNK        -0.5000 
     94 N          -1.6049  -22.2197  -55.0989 N.am      17 UNK        -0.5000 
     95 CA         -2.3377  -22.0297  -56.3594 C.3       17 UNK         0.1400 
     96 CB         -2.7538  -20.5616  -56.5802 C.3       17 UNK        -0.1800 
     97 C          -3.5320  -22.9911  -56.5371 C.2       17 UNK         0.5000 
     98 O          -3.6713  -23.5793  -57.6105 O.2       17 UNK        -0.5000 
     99 N          -4.3493  -23.1607  -55.4942 N.am      18 UNK        -0.5000 
    100 CA        -5.4760  -24.0852  -55.4119 C.3       18 UNK         0.1400 
    101 CB        -6.6716  -23.5452  -56.2230 C.3       18 UNK        -0.1800 
    102 C         -5.8373  -24.2953  -53.9324 C.2       18 UNK         0.5000 
    103 O         -5.2598  -23.6443  -53.0596 O.2       18 UNK        -0.5000 
    104 N         -6.7892  -25.1976  -53.6627 N.am      19 UNK        -0.5000 
    105 CA        -7.3442  -25.4253  -52.3266 C.3       19 UNK         0.1400 
    106 CB        -8.2873  -26.6367  -52.3690 C.3       19 UNK        -0.1800 
    107 C         -8.0804  -24.1753  -51.8054 C.2       19 UNK         0.5000 
    108 O         -8.8425  -23.5633  -52.5588 O.2       19 UNK        -0.5000 
    109 N         -7.8286  -23.8254  -50.5366 N.am      20 UNK        -0.5000 
    110 CA        -8.2531  -22.6071  -49.8370 C.3       20 UNK         0.1400 
    111 CB        -9.7880  -22.4775  -49.7534 C.3       20 UNK        -0.1800 
    112 C         -7.5759  -21.3460  -50.4073 C.2       20 UNK         0.5000 
    113 O         -6.6914  -20.8015  -49.7479 O.2       20 UNK        -0.5000 
    114 N         -7.9823  -20.9416  -51.6204 N.am      21 UNK        -0.5000 
    115 CA        -7.4185  -19.8960  -52.4837 C.3       21 UNK         0.1400 
    116 CB        -6.2732  -20.4983  -53.3195 C.3       21 UNK        -0.1800 
    117 C         -7.0072  -18.6041  -51.7457 C.2       21 UNK         0.5000 
    118 O         -7.8616  -17.7561  -51.4833 O.2       21 UNK        -0.5000 
    119 N         -5.7104  -18.4882  -51.4349 N.am      22 UNK        -0.5000 
    120 CA        -5.0836  -17.3826  -50.6962 C.3       22 UNK         0.1400 
    121 C         -5.5636  -17.2208  -49.2245 C.2       22 UNK         0.5000 
    122 N         -6.1366  -18.2382  -48.5931 N.am      22 UNK        -0.7600 
    123 O         -5.4170  -16.1453  -48.6518 O.2       22 UNK        -0.5000 
    124 C124       -3.5374  -17.4889  -50.7376 C.3       23 UNK        -0.0398 
    125 S125       -2.8747  -17.5563  -52.4397 S.3       23 UNK        -0.2404 
    126 C126       -1.7553  -16.1117  -52.4603 C.3       23 UNK        -0.0205 
    127 H127        9.0100  -11.8226  -46.8685 H         1 UNK         0.0600 
    128 H128        8.0751  -10.5529  -47.6630 H         1 UNK         0.0600 
    129 H129        9.2740  -11.4697  -48.5797 H         1 UNK         0.0600 
    130 H130        5.9868  -11.2017  -48.0678 H         1 UNK         0.3000 
    131 H131        5.3178  -13.6814  -49.3782 H         1 UNK         0.0600 
    132 H132        3.6509  -11.3914  -48.2457 H         1 UNK         0.0800 
    133 H133        4.0121  -11.7026  -49.9194 H         1 UNK         0.0800 
    134 H134        3.4828  -14.2608  -50.8338 H         1 UNK         0.0800 
    135 H135        2.2320  -13.2374  -51.4967 H         1 UNK         0.0800 
    136 H136        0.0602  -14.1864  -51.9981 H         1 UNK         0.1150 
    137 H137       -0.6812  -18.3162  -51.0919 H         1 UNK         0.1150 
    138 H138        2.8337  -16.4022  -49.6026 H         1 UNK         0.1150 
    139 H139        1.2056  -19.6449  -50.1497 H         1 UNK         0.0800 
    140 H140        2.5985  -18.8359  -49.5057 H         1 UNK         0.0800 
    141 H141       -1.0113  -19.6350  -49.2605 H         1 UNK         0.0800 
    142 H142       -1.5795  -18.9791  -47.7521 H         1 UNK         0.0800 
    143 H143       -0.0422  -21.6162  -47.9889 H         1 UNK         0.0600 
    144 H144       -0.9256  -20.1655  -45.6850 H         1 UNK         0.3000 
    145 H145       -0.8023  -22.9063  -43.3937 H         1 UNK         0.0600 
    146 H146        0.6675  -21.2054  -42.2846 H         1 UNK         0.0600 
    147 H147        1.5053  -22.0508  -43.5775 H         1 UNK         0.0600 
    148 H148        0.9279  -20.4123  -43.8376 H         1 UNK         0.0600 
    149 H149       -1.5011  -20.1058  -43.2128 H         1 UNK         0.3000 
    150 H150       -5.0004  -20.5448  -43.7493 H         1 UNK         0.0600 
    151 H151       -4.7521  -21.3660  -41.3981 H         1 UNK         0.0600 
    152 H152       -5.2176  -19.6733  -41.4412 H         1 UNK         0.0600 
    153 H153       -3.5494  -20.1208  -41.0815 H         1 UNK         0.0600 
    154 H154       -3.5700  -18.3138  -42.7845 H         1 UNK         0.3000 
    155 H155       -2.0355  -17.1379  -45.6860 H         1 UNK         0.0600 
    156 H156       -4.6578  -16.0449  -44.5281 H         1 UNK         0.0600 
    157 H157       -3.4837  -15.1348  -45.4806 H         1 UNK         0.0600 
    158 H158       -4.3826  -16.4514  -46.2163 H         1 UNK         0.0600 
    159 H159       -2.5445  -15.8184  -43.2422 H         1 UNK         0.3000 
    160 H160       -0.7850  -15.5112  -41.8102 H         1 UNK         0.0600 
    161 H161       -1.1278  -18.3001  -40.5387 H         1 UNK         0.0600 
    162 H162       -2.3935  -17.0835  -40.6670 H         1 UNK         0.0600 
    163 H163       -0.9964  -16.7847  -39.6488 H         1 UNK         0.0600 
    164 H164        1.2102  -17.5037  -42.3203 H         1 UNK         0.3000 
    165 H165        3.5933  -16.3884  -40.0027 H         1 UNK         0.0600 
    166 H166        4.5390  -18.0732  -41.5325 H         1 UNK         0.0600 
    167 H167        2.9846  -18.6220  -40.9311 H         1 UNK         0.0600 
    168 H168        3.1264  -18.0046  -42.5740 H         1 UNK         0.0600 
    169 H169        3.5545  -15.5298  -42.8707 H         1 UNK         0.3000 
    170 H170        5.2827  -12.4968  -42.0274 H         1 UNK         0.0600 
    171 H171        7.0333  -14.1533  -42.6429 H         1 UNK         0.0600 
    172 H172        5.9738  -14.8492  -43.8619 H         1 UNK         0.0600 
    173 H173        6.5592  -13.1965  -44.0391 H         1 UNK         0.0600 
    174 H174        4.0869  -13.3130  -44.4581 H         1 UNK         0.3000 
    175 H175        0.8959  -11.7586  -43.9018 H         1 UNK         0.0600 
    176 H176        1.6722  -10.6308  -45.9810 H         1 UNK         0.0600 
    177 H177        3.3381  -11.0818  -45.6259 H         1 UNK         0.0600 
    178 H178        2.4783   -9.9761  -44.5633 H         1 UNK         0.0600 
    179 H179        2.3630  -13.3569  -45.9195 H         1 UNK         0.3000 
    180 H180        0.4509  -16.2445  -45.3854 H         1 UNK         0.0600 
    181 H181        0.0063  -14.3187  -47.7265 H         1 UNK         0.0600 
    182 H182       -1.2479  -15.0360  -46.7348 H         1 UNK         0.0600 
    183 H183       -0.2610  -16.0588  -47.7657 H         1 UNK         0.0600 
    184 H184        2.2316  -15.4750  -47.4815 H         1 UNK         0.3000 
    185 H185        5.2606  -16.1272  -45.7158 H         1 UNK         0.0600 
    186 H186        4.4458  -18.4156  -46.2990 H         1 UNK         0.0600 
    187 H187        3.8789  -17.8226  -47.8525 H         1 UNK         0.0600 
    188 H188        5.6021  -17.8188  -47.4796 H         1 UNK         0.0600 
    189 H189        4.9139  -15.6057  -48.4393 H         1 UNK         0.3000 
    190 H190       -3.2737  -20.9468  -46.6261 H         1 UNK         0.3000 
    191 H191       -4.7991  -22.1884  -48.6665 H         1 UNK         0.0600 
    192 H192       -5.4163  -21.8500  -45.6799 H         1 UNK         0.0600 
    193 H193       -6.5945  -22.2191  -46.9258 H         1 UNK         0.0600 
    194 H194       -5.7643  -20.6709  -46.9419 H         1 UNK         0.0600 
    195 H195       -3.4662  -23.5346  -45.6037 H         1 UNK         0.3000 
    196 H196       -4.4344  -26.1820  -45.9503 H         1 UNK         0.0600 
    197 H197       -2.7647  -26.7220  -44.1616 H         1 UNK         0.0600 
    198 H198       -3.7093  -25.2962  -43.7608 H         1 UNK         0.0600 
    199 H199       -2.0532  -25.1217  -44.3382 H         1 UNK         0.0600 
    200 H200       -1.3590  -24.6413  -46.9417 H         1 UNK         0.3000 
    201 H201       -0.1682  -26.9956  -48.0776 H         1 UNK         0.0600 
    202 H202        1.1434  -25.0061  -47.3551 H         1 UNK         0.0600 
    203 H203        0.3612  -24.0192  -48.5899 H         1 UNK         0.0600 
    204 H204        1.4241  -25.3412  -49.0560 H         1 UNK         0.0600 
    205 H205       -2.7190  -24.9987  -49.1709 H         1 UNK         0.3000 
    206 H206       -3.9302  -24.7432  -50.9810 H         1 UNK         0.0600 
    207 H207       -4.1854  -26.6017  -52.5962 H         1 UNK         0.0600 
    208 H208       -2.7300  -27.3773  -51.9916 H         1 UNK         0.0600 
    209 H209       -4.1468  -27.2211  -50.9532 H         1 UNK         0.0600 
    210 H210       -1.9559  -23.0762  -50.9092 H         1 UNK         0.3000 
    211 H211       -0.2000  -22.8999  -53.1401 H         1 UNK         0.0600 
    212 H212       -1.4416  -20.7057  -51.3970 H         1 UNK         0.0600 
    213 H213       -0.0432  -20.5076  -52.4470 H         1 UNK         0.0600 
    214 H214        0.0541  -21.5737  -51.0495 H         1 UNK         0.0600 
    215 H215       -0.7462  -22.7433  -55.1978 H         1 UNK         0.3000 
    216 H216       -1.6221  -22.2787  -57.1446 H         1 UNK         0.0600 
    217 H217       -3.1546  -20.4222  -57.5848 H         1 UNK         0.0600 
    218 H218       -1.9029  -19.8890  -56.4726 H         1 UNK         0.0600 
    219 H219       -3.5258  -20.2418  -55.8799 H         1 UNK         0.0600 
    220 H220       -4.1486  -22.6650  -54.6276 H         1 UNK         0.3000 
    221 H221       -5.1672  -25.0512  -55.8163 H         1 UNK         0.0600 
    222 H222       -6.9969  -22.5699  -55.8624 H         1 UNK         0.0600 
    223 H223       -6.4214  -23.4405  -57.2786 H         1 UNK         0.0600 
    224 H224       -7.5282  -24.2173  -56.1661 H         1 UNK         0.0600 
    225 H225       -7.2427  -25.6786  -54.4252 H         1 UNK         0.3000 
    226 H226       -6.5165  -25.6569  -51.6528 H         1 UNK         0.0600 
    227 H227       -7.7624  -27.5346  -52.6958 H         1 UNK         0.0600 
    228 H228       -8.7004  -26.8437  -51.3809 H         1 UNK         0.0600 
    229 H229       -9.1255  -26.4707  -53.0469 H         1 UNK         0.0600 
    230 H230       -7.1711  -24.3925  -50.0185 H         1 UNK         0.3000 
    231 H231       -7.8921  -22.7193  -48.8146 H         1 UNK         0.0600 
    232 H232      -10.0682  -21.6097  -49.1552 H         1 UNK         0.0600 
    233 H233      -10.2285  -23.3540  -49.2784 H         1 UNK         0.0600 
    234 H234      -10.2557  -22.3595  -50.7305 H         1 UNK         0.0600 
    235 H235       -8.6830  -21.5254  -52.0626 H         1 UNK         0.3000 
    236 H236       -8.2106  -19.6095  -53.1770 H         1 UNK         0.0600 
    237 H237       -6.6458  -21.2886  -53.9681 H         1 UNK         0.0600 
    238 H238       -5.8022  -19.7509  -53.9596 H         1 UNK         0.0600 
    239 H239       -5.4998  -20.9351  -52.6873 H         1 UNK         0.0600 
    240 H240       -5.0937  -19.2451  -51.6921 H         1 UNK         0.3000 
    241 H241       -5.3671  -16.4623  -51.2100 H         1 UNK         0.0600 
    242 H242       -6.2755  -19.1311  -49.0623 H         1 UNK         0.3800 
    243 H243       -6.4455  -18.1194  -47.6431 H         1 UNK         0.3800 
    244 H244       -3.0839  -16.6475  -50.2101 H         1 UNK         0.0800 
    245 H245       -3.2070  -18.3865  -50.2119 H         1 UNK         0.0800 
    246 H246       -1.4711  -15.9258  -53.4968 H         1 UNK         0.0800 
    247 H247       -2.3135  -15.2330  -52.1336 H         1 UNK         0.0800 
@<TRIPOS>BOND
     1    1    2 1    
     2    1  127 1    
     3    1  128 1    
     4    1  129 1    
     5    2    3 2    
     6    2    4 am   BACKBONE|DICT|INTERRES
     7    4    5 1    
     8    4  130 1    
     9    5    6 1    
    10    5   65 1    
    11    5  131 1    
    12    6    7 1    
    13    6  132 1    
    14    6  133 1    
    15    7    8 1    
    16    8    9 1    
    17    8  134 1    
    18    8  135 1    
    19    9   10 ar   
    20    9   14 ar   
    21   10   11 ar   
    22   10  136 1    
    23   11   12 ar   
    24   11  126 1    
    25   12   13 ar   
    26   12  137 1    
    27   13   14 ar   
    28   13   15 1    
    29   14  138 1    
    30   15   16 1    
    31   15  139 1    
    32   15  140 1    
    33   16   17 1    
    34   17   18 1    
    35   17  141 1    
    36   17  142 1    
    37   18   19 1    
    38   18   67 1    
    39   18  143 1    
    40   19   20 am   BACKBONE|DICT|INTERRES
    41   19  144 1    
    42   20   21 2    
    43   20   22 1    
    44   22   23 1    
    45   22   24 1    
    46   22  145 1    
    47   23  146 1    
    48   23  147 1    
    49   23  148 1    
    50   24   25 am   BACKBONE|DICT|INTERRES
    51   24  149 1    
    52   25   26 2    
    53   25   27 1    
    54   27   28 1    
    55   27   29 1    
    56   27  150 1    
    57   28  151 1    
    58   28  152 1    
    59   28  153 1    
    60   29   30 am   BACKBONE|DICT|INTERRES
    61   29  154 1    
    62   30   31 2    
    63   30   32 1    
    64   32   33 1    
    65   32   34 1    
    66   32  155 1    
    67   33  156 1    
    68   33  157 1    
    69   33  158 1    
    70   34   35 am   BACKBONE|DICT|INTERRES
    71   34  159 1    
    72   35   36 2    
    73   35   37 1    
    74   37   38 1    
    75   37   39 1    
    76   37  160 1    
    77   38  161 1    
    78   38  162 1    
    79   38  163 1    
    80   39   40 am   BACKBONE|DICT|INTERRES
    81   39  164 1    
    82   40   41 2    
    83   40   42 1    
    84   42   43 1    
    85   42   44 1    
    86   42  165 1    
    87   43  166 1    
    88   43  167 1    
    89   43  168 1    
    90   44   45 am   BACKBONE|DICT|INTERRES
    91   44  169 1    
    92   45   46 2    
    93   45   47 1    
    94   47   48 1    
    95   47   49 1    
    96   47  170 1    
    97   48  171 1    
    98   48  172 1    
    99   48  173 1    
   100   49   50 am   BACKBONE|DICT|INTERRES
   101   49  174 1    
   102   50   51 2    
   103   50   52 1    
   104   52   53 1    
   105   52   54 1    
   106   52  175 1    
   107   53  176 1    
   108   53  177 1    
   109   53  178 1    
   110   54   55 am   BACKBONE|DICT|INTERRES
   111   54  179 1    
   112   55   56 2    
   113   55   57 1    
   114   57   58 1    
   115   57   59 1    
   116   57  180 1    
   117   58  181 1    
   118   58  182 1    
   119   58  183 1    
   120   59   60 am   BACKBONE|DICT|INTERRES
   121   59  184 1    
   122   60   61 2    
   123   60   62 1    
   124   62   63 1    
   125   62   64 1    
   126   62  185 1    
   127   63  186 1    
   128   63  187 1    
   129   63  188 1    
   130   64   65 am   BACKBONE|DICT|INTERRES
   131   64  189 1    
   132   65   66 2    
   133   67   68 2    
   134   67   69 am   BACKBONE|DICT|INTERRES
   135   69   70 1    
   136   69  190 1    
   137   70   71 1    
   138   70   72 1    
   139   70  191 1    
   140   71  192 1    
   141   71  193 1    
   142   71  194 1    
   143   72   73 2    
   144   72   74 am   BACKBONE|DICT|INTERRES
   145   74   75 1    
   146   74  195 1    
   147   75   76 1    
   148   75   77 1    
   149   75  196 1    
   150   76  197 1    
   151   76  198 1    
   152   76  199 1    
   153   77   78 2    
   154   77   79 am   BACKBONE|DICT|INTERRES
   155   79   80 1    
   156   79  200 1    
   157   80   81 1    
   158   80   82 1    
   159   80  201 1    
   160   81  202 1    
   161   81  203 1    
   162   81  204 1    
   163   82   83 2    
   164   82   84 am   BACKBONE|DICT|INTERRES
   165   84   85 1    
   166   84  205 1    
   167   85   86 1    
   168   85   87 1    
   169   85  206 1    
   170   86  207 1    
   171   86  208 1    
   172   86  209 1    
   173   87   88 2    
   174   87   89 am   BACKBONE|DICT|INTERRES
   175   89   90 1    
   176   89  210 1    
   177   90   91 1    
   178   90   92 1    
   179   90  211 1    
   180   91  212 1    
   181   91  213 1    
   182   91  214 1    
   183   92   93 2    
   184   92   94 am   BACKBONE|DICT|INTERRES
   185   94   95 1    
   186   94  215 1    
   187   95   96 1    
   188   95   97 1    
   189   95  216 1    
   190   96  217 1    
   191   96  218 1    
   192   96  219 1    
   193   97   98 2    
   194   97   99 am   BACKBONE|DICT|INTERRES
   195   99  100 1    
   196   99  220 1    
   197  100  101 1    
   198  100  102 1    
   199  100  221 1    
   200  101  222 1    
   201  101  223 1    
   202  101  224 1    
   203  102  103 2    
   204  102  104 am   BACKBONE|DICT|INTERRES
   205  104  105 1    
   206  104  225 1    
   207  105  106 1    
   208  105  107 1    
   209  105  226 1    
   210  106  227 1    
   211  106  228 1    
   212  106  229 1    
   213  107  108 2    
   214  107  109 am   BACKBONE|DICT|INTERRES
   215  109  110 1    
   216  109  230 1    
   217  110  111 1    
   218  110  112 1    
   219  110  231 1    
   220  111  232 1    
   221  111  233 1    
   222  111  234 1    
   223  112  113 2    
   224  112  114 am   BACKBONE|DICT|INTERRES
   225  114  115 1    
   226  114  235 1    
   227  115  116 1    
   228  115  117 1    
   229  115  236 1    
   230  116  237 1    
   231  116  238 1    
   232  116  239 1    
   233  117  118 2    
   234  117  119 am   BACKBONE|DICT|INTERRES
   235  119  120 1    
   236  119  240 1    
   237  120  121 1    
   238  120  124 1    
   239  120  241 1    
   240  121  122 am   BACKBONE|DICT|INTERRES
   241  121  123 2    
   242  122  242 1    
   243  122  243 1    
   244  124  125 1    
   245  124  244 1    
   246  124  245 1    
   247  125  126 1    
   248  126  246 1    
   249  126  247 1    
@<TRIPOS>SUBSTRUCTURE
     1 UNK         1 GROUP             0       ****    0 ROOT    
