@<TRIPOS>MOLECULE
3R540
247   249    1
SMALL
USER_CHARGES


@<TRIPOS>ATOM
      1 CA         -1.4650  -16.1850  -47.2126 C.3       0 UNK        -0.1800 
      2 C          -1.5406  -14.9069  -48.0339 C.2       0 UNK         0.5000 
      3 O          -2.5386  -14.1911  -47.9596 O.2       0 UNK        -0.5000 
      4 N          -0.4960  -14.6262  -48.8245 N.am      1 UNK        -0.5000 
      5 CA         -0.3829  -13.4096  -49.6433 C.3       1 UNK         0.1400 
      6 C6          0.6385  -13.5597  -50.7982 C.3       23 UNK        -0.0398 
      7 S7          0.2701  -14.9745  -51.8918 S.3       23 UNK        -0.2404 
      8 C8          1.6917  -16.0518  -51.5330 C.3       23 UNK        -0.0205 
      9 C9          1.5417  -17.4309  -52.1572 C.ar      23 UNK        -0.0193 
     10 C10         1.7346  -17.6076  -53.5311 C.ar      23 UNK        -0.1150 
     11 C11         1.6563  -18.8816  -54.1021 C.ar      23 UNK        -0.0193 
     12 C12         1.4049  -19.9846  -53.2815 C.ar      23 UNK        -0.1150 
     13 C13         1.1700  -19.8170  -51.9148 C.ar      23 UNK        -0.0193 
     14 C14         1.2422  -18.5380  -51.3565 C.ar      23 UNK        -0.1150 
     15 C15         0.8389  -21.0217  -51.0500 C.3       23 UNK        -0.0205 
     16 S16         2.3036  -21.5862  -50.1312 S.3       23 UNK        -0.2404 
     17 C17         1.9440  -20.9864  -48.4438 C.3       23 UNK        -0.0398 
     18 CA          1.5252  -22.1462  -47.5064 C.3       11 UNK         0.1400 
     19 N           1.7253  -21.8134  -46.0957 N.am      11 UNK        -0.5000 
     20 C           2.2357  -22.6722  -45.2012 C.2       10 UNK         0.5000 
     21 O           2.4178  -23.8686  -45.4259 O.2       10 UNK        -0.5000 
     22 CA          2.6640  -22.0939  -43.8424 C.3       10 UNK         0.1400 
     23 CB          3.8015  -21.0730  -44.0116 C.3       10 UNK        -0.1800 
     24 N           1.5515  -21.4803  -43.1279 N.am      10 UNK        -0.5000 
     25 C           0.5852  -22.1632  -42.5005 C.2       9 UNK         0.5000 
     26 O           0.5686  -23.3899  -42.3993 O.2       9 UNK        -0.5000 
     27 CA         -0.5653  -21.3375  -41.8920 C.3       9 UNK         0.1400 
     28 CB         -0.2170  -20.8886  -40.4653 C.3       9 UNK        -0.1800 
     29 N          -0.9136  -20.1651  -42.6954 N.am      9 UNK        -0.5000 
     30 C          -1.3890  -20.2179  -43.9468 C.2       8 UNK         0.5000 
     31 O          -1.6236  -21.2652  -44.5474 O.2       8 UNK        -0.5000 
     32 CA         -1.5831  -18.8745  -44.6664 C.3       8 UNK         0.1400 
     33 CB         -2.9026  -18.2073  -44.2502 C.3       8 UNK        -0.1800 
     34 N          -0.4626  -17.9693  -44.4211 N.am      8 UNK        -0.5000 
     35 C           0.7564  -18.1203  -44.9574 C.2       7 UNK         0.5000 
     36 O           1.0505  -19.0209  -45.7457 O.2       7 UNK        -0.5000 
     37 CA          1.8315  -17.1125  -44.5118 C.3       7 UNK         0.1400 
     38 CB          1.7576  -15.8297  -45.3539 C.3       7 UNK        -0.1800 
     39 N           1.7249  -16.7706  -43.0917 N.am      7 UNK        -0.5000 
     40 C           1.9726  -17.6317  -42.0929 C.2       6 UNK         0.5000 
     41 O           2.3449  -18.7895  -42.2712 O.2       6 UNK        -0.5000 
     42 CA          1.7175  -17.1396  -40.6557 C.3       6 UNK         0.1400 
     43 CB          2.9733  -16.4598  -40.0905 C.3       6 UNK        -0.1800 
     44 N           0.5846  -16.2209  -40.5446 N.am      6 UNK        -0.5000 
     45 C          -0.6770  -16.4869  -40.9127 C.2       5 UNK         0.5000 
     46 O          -1.0399  -17.5764  -41.3567 O.2       5 UNK        -0.5000 
     47 CA         -1.6973  -15.3366  -40.8010 C.3       5 UNK         0.1400 
     48 CB         -2.6117  -15.5496  -39.5856 C.3       5 UNK        -0.1800 
     49 N          -1.0847  -14.0058  -40.7127 N.am      5 UNK        -0.5000 
     50 C          -0.3904  -13.4134  -41.6933 C.2       4 UNK         0.5000 
     51 O          -0.1658  -13.9356  -42.7880 O.2       4 UNK        -0.5000 
     52 CA          0.2152  -12.0383  -41.3649 C.3       4 UNK         0.1400 
     53 CB          1.7240  -12.1705  -41.1038 C.3       4 UNK        -0.1800 
     54 N           0.0029  -11.0957  -42.4587 N.am      4 UNK        -0.5000 
     55 C          -1.1643  -10.5013  -42.7420 C.2       3 UNK         0.5000 
     56 O          -2.1785  -10.6256  -42.0539 O.2       3 UNK        -0.5000 
     57 CA         -1.2063   -9.6133  -44.0034 C.3       3 UNK         0.1400 
     58 CB         -1.0040   -8.1368  -43.6290 C.3       3 UNK        -0.1800 
     59 N          -0.2072   -9.9929  -45.0071 N.am      3 UNK        -0.5000 
     60 C          -0.2651  -11.1147  -45.7357 C.2       2 UNK         0.5000 
     61 O          -1.1997  -11.9168  -45.6784 O.2       2 UNK        -0.5000 
     62 CA          0.9525  -11.4007  -46.6336 C.3       2 UNK         0.1400 
     63 CB          2.1276  -11.9142  -45.7844 C.3       2 UNK        -0.1800 
     64 N           0.6399  -12.4052  -47.6471 N.am      2 UNK        -0.5000 
     65 C          -0.0362  -12.1751  -48.7812 C.2       1 UNK         0.5000 
     66 O          -0.3804  -11.0531  -49.1562 O.2       1 UNK        -0.5000 
     67 C           0.0954  -22.6376  -47.7898 C.2       11 UNK         0.5000 
     68 O          -0.0664  -23.7621  -48.2620 O.2       11 UNK        -0.5000 
     69 N          -0.9165  -21.7982  -47.5250 N.am      12 UNK        -0.5000 
     70 CA         -2.3120  -22.0501  -47.9134 C.3       12 UNK         0.1400 
     71 CB         -3.1730  -20.8123  -47.6170 C.3       12 UNK        -0.1800 
     72 C          -2.9151  -23.3078  -47.2605 C.2       12 UNK         0.5000 
     73 O          -3.5992  -24.0812  -47.9311 O.2       12 UNK        -0.5000 
     74 N          -2.6053  -23.5179  -45.9755 N.am      13 UNK        -0.5000 
     75 CA         -3.0095  -24.6937  -45.2056 C.3       13 UNK         0.1400 
     76 CB         -2.6992  -24.4525  -43.7218 C.3       13 UNK        -0.1800 
     77 C          -2.3503  -25.9991  -45.6937 C.2       13 UNK         0.5000 
     78 O          -2.9731  -27.0571  -45.5998 O.2       13 UNK        -0.5000 
     79 N          -1.1191  -25.9060  -46.2164 N.am      14 UNK        -0.5000 
     80 CA         -0.3861  -27.0298  -46.8012 C.3       14 UNK         0.1400 
     81 CB          1.1210  -26.7346  -46.7748 C.3       14 UNK        -0.1800 
     82 C          -0.8619  -27.3367  -48.2318 C.2       14 UNK         0.5000 
     83 O          -0.9967  -28.5074  -48.5896 O.2       14 UNK        -0.5000 
     84 N          -1.1272  -26.2814  -49.0147 N.am      15 UNK        -0.5000 
     85 CA         -1.6731  -26.3533  -50.3713 C.3       15 UNK         0.1400 
     86 CB         -1.5691  -24.9656  -51.0262 C.3       15 UNK        -0.1800 
     87 C          -3.1307  -26.8514  -50.4115 C.2       15 UNK         0.5000 
     88 O          -3.5387  -27.4376  -51.4147 O.2       15 UNK        -0.5000 
     89 N          -3.8781  -26.5962  -49.3267 N.am      16 UNK        -0.5000 
     90 CA         -5.3081  -26.8579  -49.1384 C.3       16 UNK         0.1400 
     91 CB         -5.6091  -28.3709  -49.1645 C.3       16 UNK        -0.1800 
     92 C          -6.1791  -26.0386  -50.1137 C.2       16 UNK         0.5000 
     93 O          -7.1990  -26.5264  -50.6047 O.2       16 UNK        -0.5000 
     94 N          -5.7489  -24.8006  -50.3762 N.am      17 UNK        -0.5000 
     95 CA         -6.3662  -23.8413  -51.2820 C.3       17 UNK         0.1400 
     96 CB         -6.0196  -24.1943  -52.7401 C.3       17 UNK        -0.1800 
     97 C          -5.8546  -22.4428  -50.9165 C.2       17 UNK         0.5000 
     98 O          -4.8000  -22.3246  -50.2882 O.2       17 UNK        -0.5000 
     99 N          -6.6041  -21.4095  -51.3188 N.am      18 UNK        -0.5000 
    100 CA        -6.2743  -20.0036  -51.0840 C.3       18 UNK         0.1400 
    101 CB        -7.4234  -19.1252  -51.6021 C.3       18 UNK        -0.1800 
    102 C         -4.9544  -19.5962  -51.7601 C.2       18 UNK         0.5000 
    103 O         -4.7157  -19.9749  -52.9096 O.2       18 UNK        -0.5000 
    104 N         -4.1436  -18.7971  -51.0559 N.am      19 UNK        -0.5000 
    105 CA        -2.8405  -18.3079  -51.5170 C.3       19 UNK         0.1400 
    106 CB        -2.1605  -17.5554  -50.3685 C.3       19 UNK        -0.1800 
    107 C         -2.9211  -17.4240  -52.7770 C.2       19 UNK         0.5000 
    108 O         -1.9953  -17.4364  -53.5846 O.2       19 UNK        -0.5000 
    109 N         -4.0577  -16.7381  -52.9674 N.am      20 UNK        -0.5000 
    110 CA        -4.3841  -15.9691  -54.1723 C.3       20 UNK         0.1400 
    111 CB        -5.6828  -15.1869  -53.9242 C.3       20 UNK        -0.1800 
    112 C         -4.5112  -16.8345  -55.4456 C.2       20 UNK         0.5000 
    113 O         -4.3024  -16.3230  -56.5460 O.2       20 UNK        -0.5000 
    114 N         -4.8306  -18.1238  -55.2717 N.am      21 UNK        -0.5000 
    115 CA        -4.8650  -19.1452  -56.3196 C.3       21 UNK         0.1400 
    116 CB        -6.1733  -19.9412  -56.1697 C.3       21 UNK        -0.1800 
    117 C         -3.6392  -20.0812  -56.2401 C.2       21 UNK         0.5000 
    118 O         -3.5844  -21.0671  -56.9765 O.2       21 UNK        -0.5000 
    119 N         -2.6933  -19.7722  -55.3426 N.am      22 UNK        -0.5000 
    120 CA        -1.5167  -20.5745  -54.9793 C.3       22 UNK         0.1400 
    121 C         -1.8477  -21.9537  -54.3311 C.2       22 UNK         0.5000 
    122 N         -2.9815  -22.1033  -53.6584 N.am      22 UNK        -0.7600 
    123 O         -1.0605  -22.8931  -54.4035 O.2       22 UNK        -0.5000 
    124 C124       -0.4521  -20.6532  -56.1106 C.3       23 UNK        -0.0398 
    125 S125        0.2650  -19.0197  -56.5093 S.3       23 UNK        -0.2404 
    126 C126        1.8481  -19.0674  -55.6014 C.3       23 UNK        -0.0205 
    127 H127       -0.5974  -16.7898  -47.4769 H         1 UNK         0.0600 
    128 H128       -2.3593  -16.7885  -47.3667 H         1 UNK         0.0600 
    129 H129       -1.4029  -15.9346  -46.1543 H         1 UNK         0.0600 
    130 H130        0.2796  -15.2688  -48.8786 H         1 UNK         0.3000 
    131 H131       -1.3588  -13.2173  -50.0951 H         1 UNK         0.0600 
    132 H132        0.6371  -12.6613  -51.4182 H         1 UNK         0.0800 
    133 H133        1.6535  -13.6505  -50.4069 H         1 UNK         0.0800 
    134 H134        1.8161  -16.1422  -50.4531 H         1 UNK         0.0800 
    135 H135        2.6018  -15.5819  -51.9087 H         1 UNK         0.0800 
    136 H136        1.9454  -16.7504  -54.1551 H         1 UNK         0.1150 
    137 H137        1.3612  -20.9749  -53.7120 H         1 UNK         0.1150 
    138 H138        1.0808  -18.4089  -50.2959 H         1 UNK         0.1150 
    139 H139        0.0161  -20.7835  -50.3746 H         1 UNK         0.0800 
    140 H140        0.4817  -21.8448  -51.6716 H         1 UNK         0.0800 
    141 H141        1.2085  -20.1806  -48.4554 H         1 UNK         0.0800 
    142 H142        2.8646  -20.5330  -48.0733 H         1 UNK         0.0800 
    143 H143        2.1864  -22.9827  -47.7461 H         1 UNK         0.0600 
    144 H144        1.5629  -20.8450  -45.8315 H         1 UNK         0.3000 
    145 H145        3.0502  -22.9175  -43.2377 H         1 UNK         0.0600 
    146 H146        4.1878  -20.7540  -43.0435 H         1 UNK         0.0600 
    147 H147        4.6354  -21.5040  -44.5670 H         1 UNK         0.0600 
    148 H148        3.4736  -20.1820  -44.5480 H         1 UNK         0.0600 
    149 H149        1.5394  -20.4672  -43.0882 H         1 UNK         0.3000 
    150 H150       -1.4463  -21.9808  -41.8437 H         1 UNK         0.0600 
    151 H151       -0.0135  -21.7478  -39.8251 H         1 UNK         0.0600 
    152 H152       -1.0385  -20.3319  -40.0139 H         1 UNK         0.0600 
    153 H153        0.6675  -20.2519  -40.4508 H         1 UNK         0.0600 
    154 H154       -0.7938  -19.2554  -42.2582 H         1 UNK         0.3000 
    155 H155       -1.6297  -19.0697  -45.7391 H         1 UNK         0.0600 
    156 H156       -2.9300  -17.9867  -43.1831 H         1 UNK         0.0600 
    157 H157       -3.7507  -18.8567  -44.4706 H         1 UNK         0.0600 
    158 H158       -3.0619  -17.2734  -44.7885 H         1 UNK         0.0600 
    159 H159       -0.6060  -17.2416  -43.7359 H         1 UNK         0.3000 
    160 H160        2.8063  -17.5748  -44.6807 H         1 UNK         0.0600 
    161 H161        0.8306  -15.2824  -45.1777 H         1 UNK         0.0600 
    162 H162        1.8123  -16.0558  -46.4195 H         1 UNK         0.0600 
    163 H163        2.5883  -15.1635  -45.1215 H         1 UNK         0.0600 
    164 H164        1.3902  -15.8430  -42.8672 H         1 UNK         0.3000 
    165 H165        1.4949  -18.0134  -40.0408 H         1 UNK         0.0600 
    166 H166        2.8376  -16.1869  -39.0438 H         1 UNK         0.0600 
    167 H167        3.8349  -17.1269  -40.1417 H         1 UNK         0.0600 
    168 H168        3.2252  -15.5544  -40.6443 H         1 UNK         0.0600 
    169 H169        0.7843  -15.3010  -40.1826 H         1 UNK         0.3000 
    170 H170       -2.3135  -15.3645  -41.7022 H         1 UNK         0.0600 
    171 H171       -3.1079  -16.5200  -39.6348 H         1 UNK         0.0600 
    172 H172       -2.0525  -15.5141  -38.6498 H         1 UNK         0.0600 
    173 H173       -3.3925  -14.7901  -39.5408 H         1 UNK         0.0600 
    174 H174       -1.2144  -13.5137  -39.8401 H         1 UNK         0.3000 
    175 H175       -0.2574  -11.6402  -40.4643 H         1 UNK         0.0600 
    176 H176        2.2528  -12.5567  -41.9766 H         1 UNK         0.0600 
    177 H177        2.1649  -11.2079  -40.8440 H         1 UNK         0.0600 
    178 H178        1.9201  -12.8507  -40.2740 H         1 UNK         0.0600 
    179 H179        0.7715  -10.9666  -43.0981 H         1 UNK         0.3000 
    180 H180       -2.1983   -9.7191  -44.4477 H         1 UNK         0.0600 
    181 H181       -0.0209   -7.9634  -43.1893 H         1 UNK         0.0600 
    182 H182       -1.7501   -7.8126  -42.9022 H         1 UNK         0.0600 
    183 H183       -1.1013   -7.4911  -44.5019 H         1 UNK         0.0600 
    184 H184        0.5872   -9.3772  -45.1083 H         1 UNK         0.3000 
    185 H185        1.2514  -10.4749  -47.1299 H         1 UNK         0.0600 
    186 H186        2.9819  -12.1791  -46.4077 H         1 UNK         0.0600 
    187 H187        2.4668  -11.1533  -45.0807 H         1 UNK         0.0600 
    188 H188        1.8489  -12.7940  -45.2031 H         1 UNK         0.0600 
    189 H189        0.8241  -13.3639  -47.3950 H         1 UNK         0.3000 
    190 H190       -0.7196  -20.9228  -47.0637 H         1 UNK         0.3000 
    191 H191       -2.3206  -22.2082  -48.9938 H         1 UNK         0.0600 
    192 H192       -3.2796  -20.6371  -46.5472 H         1 UNK         0.0600 
    193 H193       -4.1777  -20.9367  -48.0223 H         1 UNK         0.0600 
    194 H194       -2.7511  -19.9158  -48.0685 H         1 UNK         0.0600 
    195 H195       -2.0802  -22.7984  -45.4818 H         1 UNK         0.3000 
    196 H196       -4.0901  -24.8089  -45.3132 H         1 UNK         0.0600 
    197 H197       -3.0322  -25.2918  -43.1100 H         1 UNK         0.0600 
    198 H198       -3.2016  -23.5583  -43.3524 H         1 UNK         0.0600 
    199 H199       -1.6295  -24.3282  -43.5560 H         1 UNK         0.0600 
    200 H200       -0.6936  -24.9933  -46.3000 H         1 UNK         0.3000 
    201 H201       -0.5613  -27.9194  -46.1922 H         1 UNK         0.0600 
    202 H202        1.4714  -26.5706  -45.7557 H         1 UNK         0.0600 
    203 H203        1.3736  -25.8499  -47.3599 H         1 UNK         0.0600 
    204 H204        1.6893  -27.5708  -47.1836 H         1 UNK         0.0600 
    205 H205       -0.9128  -25.3507  -48.6632 H         1 UNK         0.3000 
    206 H206       -1.0637  -27.0532  -50.9464 H         1 UNK         0.0600 
    207 H207       -0.5379  -24.6121  -51.0451 H         1 UNK         0.0600 
    208 H208       -1.9221  -24.9916  -52.0579 H         1 UNK         0.0600 
    209 H209       -2.1662  -24.2240  -50.4940 H         1 UNK         0.0600 
    210 H210       -3.4552  -26.0213  -48.6063 H         1 UNK         0.3000 
    211 H211       -5.5496  -26.4934  -48.1389 H         1 UNK         0.0600 
    212 H212       -5.4623  -28.7989  -50.1564 H         1 UNK         0.0600 
    213 H213       -6.6420  -28.5672  -48.8751 H         1 UNK         0.0600 
    214 H214       -4.9687  -28.9110  -48.4671 H         1 UNK         0.0600 
    215 H215       -4.9370  -24.4399  -49.8839 H         1 UNK         0.3000 
    216 H216       -7.4491  -23.8605  -51.1431 H         1 UNK         0.0600 
    217 H217       -6.4101  -23.4475  -53.4326 H         1 UNK         0.0600 
    218 H218       -6.4467  -25.1554  -53.0266 H         1 UNK         0.0600 
    219 H219       -4.9415  -24.2529  -52.8912 H         1 UNK         0.0600 
    220 H220       -7.4367  -21.5892  -51.8600 H         1 UNK         0.3000 
    221 H221       -6.1804  -19.8583  -50.0058 H         1 UNK         0.0600 
    222 H222       -7.5710  -19.2483  -52.6762 H         1 UNK         0.0600 
    223 H223       -8.3622  -19.3683  -51.1042 H         1 UNK         0.0600 
    224 H224       -7.2240  -18.0688  -51.4177 H         1 UNK         0.0600 
    225 H225       -4.4193  -18.5214  -50.1248 H         1 UNK         0.3000 
    226 H226       -2.2268  -19.1763  -51.7673 H         1 UNK         0.0600 
    227 H227       -1.9919  -18.2064  -49.5120 H         1 UNK         0.0600 
    228 H228       -1.1886  -17.1721  -50.6739 H         1 UNK         0.0600 
    229 H229       -2.7602  -16.7057  -50.0416 H         1 UNK         0.0600 
    230 H230       -4.7702  -16.7868  -52.2546 H         1 UNK         0.3000 
    231 H231       -3.5771  -15.2531  -54.3414 H         1 UNK         0.0600 
    232 H232       -5.5808  -14.5110  -53.0750 H         1 UNK         0.0600 
    233 H233       -6.5224  -15.8543  -53.7252 H         1 UNK         0.0600 
    234 H234       -5.9448  -14.5793  -54.7914 H         1 UNK         0.0600 
    235 H235       -4.9520  -18.4755  -54.3288 H         1 UNK         0.3000 
    236 H236       -4.8562  -18.6814  -57.3077 H         1 UNK         0.0600 
    237 H237       -6.2756  -20.6838  -56.9618 H         1 UNK         0.0600 
    238 H238       -6.2152  -20.4698  -55.2163 H         1 UNK         0.0600 
    239 H239       -7.0421  -19.2854  -56.2275 H         1 UNK         0.0600 
    240 H240       -2.7926  -18.9128  -54.8177 H         1 UNK         0.3000 
    241 H241       -1.0721  -20.0177  -54.1577 H         1 UNK         0.0600 
    242 H242       -3.1793  -22.9902  -53.2294 H         1 UNK         0.3800 
    243 H243       -3.6269  -21.3260  -53.5370 H         1 UNK         0.3800 
    244 H244       -0.8898  -21.0728  -57.0167 H         1 UNK         0.0800 
    245 H245        0.3625  -21.3266  -55.8428 H         1 UNK         0.0800 
    246 H246        2.4932  -18.2773  -55.9885 H         1 UNK         0.0800 
    247 H247        2.3681  -20.0046  -55.8056 H         1 UNK         0.0800 
@<TRIPOS>BOND
     1    1    2 1    
     2    1  127 1    
     3    1  128 1    
     4    1  129 1    
     5    2    3 2    
     6    2    4 am   BACKBONE|DICT|INTERRES
     7    4    5 1    
     8    4  130 1    
     9    5    6 1    
    10    5   65 1    
    11    5  131 1    
    12    6    7 1    
    13    6  132 1    
    14    6  133 1    
    15    7    8 1    
    16    8    9 1    
    17    8  134 1    
    18    8  135 1    
    19    9   10 ar   
    20    9   14 ar   
    21   10   11 ar   
    22   10  136 1    
    23   11   12 ar   
    24   11  126 1    
    25   12   13 ar   
    26   12  137 1    
    27   13   14 ar   
    28   13   15 1    
    29   14  138 1    
    30   15   16 1    
    31   15  139 1    
    32   15  140 1    
    33   16   17 1    
    34   17   18 1    
    35   17  141 1    
    36   17  142 1    
    37   18   19 1    
    38   18   67 1    
    39   18  143 1    
    40   19   20 am   BACKBONE|DICT|INTERRES
    41   19  144 1    
    42   20   21 2    
    43   20   22 1    
    44   22   23 1    
    45   22   24 1    
    46   22  145 1    
    47   23  146 1    
    48   23  147 1    
    49   23  148 1    
    50   24   25 am   BACKBONE|DICT|INTERRES
    51   24  149 1    
    52   25   26 2    
    53   25   27 1    
    54   27   28 1    
    55   27   29 1    
    56   27  150 1    
    57   28  151 1    
    58   28  152 1    
    59   28  153 1    
    60   29   30 am   BACKBONE|DICT|INTERRES
    61   29  154 1    
    62   30   31 2    
    63   30   32 1    
    64   32   33 1    
    65   32   34 1    
    66   32  155 1    
    67   33  156 1    
    68   33  157 1    
    69   33  158 1    
    70   34   35 am   BACKBONE|DICT|INTERRES
    71   34  159 1    
    72   35   36 2    
    73   35   37 1    
    74   37   38 1    
    75   37   39 1    
    76   37  160 1    
    77   38  161 1    
    78   38  162 1    
    79   38  163 1    
    80   39   40 am   BACKBONE|DICT|INTERRES
    81   39  164 1    
    82   40   41 2    
    83   40   42 1    
    84   42   43 1    
    85   42   44 1    
    86   42  165 1    
    87   43  166 1    
    88   43  167 1    
    89   43  168 1    
    90   44   45 am   BACKBONE|DICT|INTERRES
    91   44  169 1    
    92   45   46 2    
    93   45   47 1    
    94   47   48 1    
    95   47   49 1    
    96   47  170 1    
    97   48  171 1    
    98   48  172 1    
    99   48  173 1    
   100   49   50 am   BACKBONE|DICT|INTERRES
   101   49  174 1    
   102   50   51 2    
   103   50   52 1    
   104   52   53 1    
   105   52   54 1    
   106   52  175 1    
   107   53  176 1    
   108   53  177 1    
   109   53  178 1    
   110   54   55 am   BACKBONE|DICT|INTERRES
   111   54  179 1    
   112   55   56 2    
   113   55   57 1    
   114   57   58 1    
   115   57   59 1    
   116   57  180 1    
   117   58  181 1    
   118   58  182 1    
   119   58  183 1    
   120   59   60 am   BACKBONE|DICT|INTERRES
   121   59  184 1    
   122   60   61 2    
   123   60   62 1    
   124   62   63 1    
   125   62   64 1    
   126   62  185 1    
   127   63  186 1    
   128   63  187 1    
   129   63  188 1    
   130   64   65 am   BACKBONE|DICT|INTERRES
   131   64  189 1    
   132   65   66 2    
   133   67   68 2    
   134   67   69 am   BACKBONE|DICT|INTERRES
   135   69   70 1    
   136   69  190 1    
   137   70   71 1    
   138   70   72 1    
   139   70  191 1    
   140   71  192 1    
   141   71  193 1    
   142   71  194 1    
   143   72   73 2    
   144   72   74 am   BACKBONE|DICT|INTERRES
   145   74   75 1    
   146   74  195 1    
   147   75   76 1    
   148   75   77 1    
   149   75  196 1    
   150   76  197 1    
   151   76  198 1    
   152   76  199 1    
   153   77   78 2    
   154   77   79 am   BACKBONE|DICT|INTERRES
   155   79   80 1    
   156   79  200 1    
   157   80   81 1    
   158   80   82 1    
   159   80  201 1    
   160   81  202 1    
   161   81  203 1    
   162   81  204 1    
   163   82   83 2    
   164   82   84 am   BACKBONE|DICT|INTERRES
   165   84   85 1    
   166   84  205 1    
   167   85   86 1    
   168   85   87 1    
   169   85  206 1    
   170   86  207 1    
   171   86  208 1    
   172   86  209 1    
   173   87   88 2    
   174   87   89 am   BACKBONE|DICT|INTERRES
   175   89   90 1    
   176   89  210 1    
   177   90   91 1    
   178   90   92 1    
   179   90  211 1    
   180   91  212 1    
   181   91  213 1    
   182   91  214 1    
   183   92   93 2    
   184   92   94 am   BACKBONE|DICT|INTERRES
   185   94   95 1    
   186   94  215 1    
   187   95   96 1    
   188   95   97 1    
   189   95  216 1    
   190   96  217 1    
   191   96  218 1    
   192   96  219 1    
   193   97   98 2    
   194   97   99 am   BACKBONE|DICT|INTERRES
   195   99  100 1    
   196   99  220 1    
   197  100  101 1    
   198  100  102 1    
   199  100  221 1    
   200  101  222 1    
   201  101  223 1    
   202  101  224 1    
   203  102  103 2    
   204  102  104 am   BACKBONE|DICT|INTERRES
   205  104  105 1    
   206  104  225 1    
   207  105  106 1    
   208  105  107 1    
   209  105  226 1    
   210  106  227 1    
   211  106  228 1    
   212  106  229 1    
   213  107  108 2    
   214  107  109 am   BACKBONE|DICT|INTERRES
   215  109  110 1    
   216  109  230 1    
   217  110  111 1    
   218  110  112 1    
   219  110  231 1    
   220  111  232 1    
   221  111  233 1    
   222  111  234 1    
   223  112  113 2    
   224  112  114 am   BACKBONE|DICT|INTERRES
   225  114  115 1    
   226  114  235 1    
   227  115  116 1    
   228  115  117 1    
   229  115  236 1    
   230  116  237 1    
   231  116  238 1    
   232  116  239 1    
   233  117  118 2    
   234  117  119 am   BACKBONE|DICT|INTERRES
   235  119  120 1    
   236  119  240 1    
   237  120  121 1    
   238  120  124 1    
   239  120  241 1    
   240  121  122 am   BACKBONE|DICT|INTERRES
   241  121  123 2    
   242  122  242 1    
   243  122  243 1    
   244  124  125 1    
   245  124  244 1    
   246  124  245 1    
   247  125  126 1    
   248  126  246 1    
   249  126  247 1    
@<TRIPOS>SUBSTRUCTURE
     1 UNK         1 GROUP             0       ****    0 ROOT    
