@<TRIPOS>MOLECULE
3R540
247   249    1
SMALL
USER_CHARGES


@<TRIPOS>ATOM
      1 CA         -2.8974  -11.5380  -50.3808 C.3       0 UNK        -0.1800 
      2 C          -1.7654  -12.1685  -49.5812 C.2       0 UNK         0.5000 
      3 O          -1.9192  -12.3660  -48.3772 O.2       0 UNK        -0.5000 
      4 N          -0.6496  -12.4808  -50.2579 N.am      1 UNK        -0.5000 
      5 CA          0.6185  -13.0074  -49.7352 C.3       1 UNK         0.1400 
      6 C6          0.4598  -14.3413  -48.9441 C.3       23 UNK        -0.0398 
      7 S7          1.9770  -14.9952  -48.1599 S.3       23 UNK        -0.2404 
      8 C8          2.8139  -15.8040  -49.5551 C.3       23 UNK        -0.0205 
      9 C9          2.4362  -17.2706  -49.6965 C.ar      23 UNK        -0.0193 
     10 C10         1.4920  -17.6728  -50.6455 C.ar      23 UNK        -0.1150 
     11 C11         1.2218  -19.0303  -50.8464 C.ar      23 UNK        -0.0193 
     12 C12         1.8987  -19.9869  -50.0836 C.ar      23 UNK        -0.1150 
     13 C13         2.8471  -19.5978  -49.1329 C.ar      23 UNK        -0.0193 
     14 C14         3.0993  -18.2372  -48.9338 C.ar      23 UNK        -0.1150 
     15 C15         3.6607  -20.6450  -48.3829 C.3       23 UNK        -0.0205 
     16 S16         2.8705  -21.1751  -46.8339 S.3       23 UNK        -0.2404 
     17 C17         1.4977  -22.1937  -47.4644 C.3       23 UNK        -0.0398 
     18 CA          0.9562  -23.1977  -46.4177 C.3       11 UNK         0.1400 
     19 N           0.4844  -22.5520  -45.1896 N.am      11 UNK        -0.5000 
     20 C           0.1707  -23.2019  -44.0596 C.2       10 UNK         0.5000 
     21 O           0.3523  -24.4078  -43.8912 O.2       10 UNK        -0.5000 
     22 CA         -0.5084  -22.3796  -42.9478 C.3       10 UNK         0.1400 
     23 CB          0.5285  -21.7315  -42.0181 C.3       10 UNK        -0.1800 
     24 N          -1.4067  -21.3561  -43.4855 N.am      10 UNK        -0.5000 
     25 C          -2.5455  -21.6300  -44.1381 C.2       9 UNK         0.5000 
     26 O          -2.9804  -22.7698  -44.3027 O.2       9 UNK        -0.5000 
     27 CA         -3.3035  -20.4402  -44.7500 C.3       9 UNK         0.1400 
     28 CB         -4.2047  -19.7695  -43.7037 C.3       9 UNK        -0.1800 
     29 N          -2.4142  -19.4448  -45.3504 N.am      9 UNK        -0.5000 
     30 C          -1.6161  -19.6623  -46.4051 C.2       8 UNK         0.5000 
     31 O          -1.6061  -20.7131  -47.0400 O.2       8 UNK        -0.5000 
     32 CA         -0.6339  -18.5425  -46.7965 C.3       8 UNK         0.1400 
     33 CB         -1.2854  -17.5673  -47.7819 C.3       8 UNK        -0.1800 
     34 N          -0.1156  -17.8077  -45.6423 N.am      8 UNK        -0.5000 
     35 C           0.6174  -18.3672  -44.6689 C.2       7 UNK         0.5000 
     36 O           0.9332  -19.5554  -44.6468 O.2       7 UNK        -0.5000 
     37 CA          1.0017  -17.4618  -43.4914 C.3       7 UNK         0.1400 
     38 CB          2.1828  -16.5575  -43.8625 C.3       7 UNK        -0.1800 
     39 N          -0.1368  -16.6506  -43.0626 N.am      7 UNK        -0.5000 
     40 C          -1.1753  -17.1392  -42.3686 C.2       6 UNK         0.5000 
     41 O          -1.2383  -18.3014  -41.9659 O.2       6 UNK        -0.5000 
     42 CA         -2.3565  -16.1843  -42.1072 C.3       6 UNK         0.1400 
     43 CB         -2.1187  -15.3695  -40.8272 C.3       6 UNK        -0.1800 
     44 N          -2.6139  -15.2683  -43.2192 N.am      6 UNK        -0.5000 
     45 C          -3.0081  -15.6445  -44.4438 C.2       5 UNK         0.5000 
     46 O          -3.2461  -16.8090  -44.7544 O.2       5 UNK        -0.5000 
     47 CA         -3.1141  -14.5477  -45.5187 C.3       5 UNK         0.1400 
     48 CB         -4.5592  -14.0426  -45.6346 C.3       5 UNK        -0.1800 
     49 N          -2.2207  -13.4090  -45.3000 N.am      5 UNK        -0.5000 
     50 C          -0.8838  -13.4746  -45.2520 C.2       4 UNK         0.5000 
     51 O          -0.2541  -14.5342  -45.3146 O.2       4 UNK        -0.5000 
     52 CA         -0.1671  -12.1202  -45.1036 C.3       4 UNK         0.1400 
     53 CB         -0.4511  -11.4675  -43.7341 C.3       4 UNK        -0.1800 
     54 N           1.2684  -12.1917  -45.3889 N.am      4 UNK        -0.5000 
     55 C           2.2569  -12.7184  -44.6486 C.2       3 UNK         0.5000 
     56 O           2.1002  -13.1741  -43.5154 O.2       3 UNK        -0.5000 
     57 CA          3.6727  -12.7236  -45.2702 C.3       3 UNK         0.1400 
     58 CB          4.3486  -14.1001  -45.1514 C.3       3 UNK        -0.1800 
     59 N           3.6647  -12.3350  -46.6816 N.am      3 UNK        -0.5000 
     60 C           3.8659  -11.0965  -47.1490 C.2       2 UNK         0.5000 
     61 O           4.1629  -10.1351  -46.4396 O.2       2 UNK        -0.5000 
     62 CA          3.6709  -10.8918  -48.6655 C.3       2 UNK         0.1400 
     63 CB          5.0185  -10.9875  -49.3967 C.3       2 UNK        -0.1800 
     64 N           2.7298  -11.8398  -49.2745 N.am      2 UNK        -0.5000 
     65 C           1.4200  -11.9104  -48.9935 C.2       1 UNK         0.5000 
     66 O           0.8721  -11.1669  -48.1785 O.2       1 UNK        -0.5000 
     67 C          -0.1568  -24.0666  -47.0373 C.2       11 UNK         0.5000 
     68 O           0.0566  -25.2547  -47.2827 O.2       11 UNK        -0.5000 
     69 N          -1.3357  -23.4646  -47.2535 N.am      12 UNK        -0.5000 
     70 CA         -2.5093  -24.0759  -47.8779 C.3       12 UNK         0.1400 
     71 CB         -3.6110  -23.0233  -48.0515 C.3       12 UNK        -0.1800 
     72 C          -3.0574  -25.3047  -47.1372 C.2       12 UNK         0.5000 
     73 O          -3.5907  -26.1983  -47.7920 O.2       12 UNK        -0.5000 
     74 N          -2.8746  -25.3598  -45.8118 N.am      13 UNK        -0.5000 
     75 CA         -3.2037  -26.5118  -44.9694 C.3       13 UNK         0.1400 
     76 CB         -2.9330  -26.1541  -43.5002 C.3       13 UNK        -0.1800 
     77 C          -2.4536  -27.8041  -45.3585 C.2       13 UNK         0.5000 
     78 O          -2.9813  -28.8934  -45.1298 O.2       13 UNK        -0.5000 
     79 N          -1.2588  -27.6634  -45.9492 N.am      14 UNK        -0.5000 
     80 CA         -0.4609  -28.7635  -46.4859 C.3       14 UNK         0.1400 
     81 CB          0.9981  -28.5890  -46.0348 C.3       14 UNK        -0.1800 
     82 C          -0.5453  -28.8201  -48.0213 C.2       14 UNK         0.5000 
     83 O          -0.6887  -29.9074  -48.5811 O.2       14 UNK        -0.5000 
     84 N          -0.4318  -27.6569  -48.6771 N.am      15 UNK        -0.5000 
     85 CA         -0.2949  -27.5331  -50.1295 C.3       15 UNK         0.1400 
     86 CB          0.3780  -26.1858  -50.4416 C.3       15 UNK        -0.1800 
     87 C          -1.6133  -27.6568  -50.9165 C.2       15 UNK         0.5000 
     88 O          -1.5569  -27.8873  -52.1248 O.2       15 UNK        -0.5000 
     89 N          -2.7611  -27.4578  -50.2482 N.am      16 UNK        -0.5000 
     90 CA         -4.1117  -27.3514  -50.8242 C.3       16 UNK         0.1400 
     91 CB         -4.5537  -28.6814  -51.4696 C.3       16 UNK        -0.1800 
     92 C          -4.2603  -26.1357  -51.7694 C.2       16 UNK         0.5000 
     93 O          -5.0165  -26.1853  -52.7404 O.2       16 UNK        -0.5000 
     94 N          -3.5142  -25.0642  -51.4657 N.am      17 UNK        -0.5000 
     95 CA         -3.3636  -23.8644  -52.2921 C.3       17 UNK         0.1400 
     96 CB         -2.0672  -23.1519  -51.8698 C.3       17 UNK        -0.1800 
     97 C          -4.5557  -22.8881  -52.2308 C.2       17 UNK         0.5000 
     98 O          -4.6162  -21.9749  -53.0514 O.2       17 UNK        -0.5000 
     99 N          -5.4504  -23.0662  -51.2478 N.am      18 UNK        -0.5000 
    100 CA        -6.6432  -22.2587  -50.9370 C.3       18 UNK         0.1400 
    101 CB        -7.5822  -22.1279  -52.1541 C.3       18 UNK        -0.1800 
    102 C         -6.3600  -20.8890  -50.2767 C.2       18 UNK         0.5000 
    103 O         -7.3088  -20.2519  -49.8173 O.2       18 UNK        -0.5000 
    104 N         -5.0778  -20.5055  -50.1773 N.am      19 UNK        -0.5000 
    105 CA        -4.5127  -19.3435  -49.4782 C.3       19 UNK         0.1400 
    106 CB        -4.9317  -19.3421  -47.9942 C.3       19 UNK        -0.1800 
    107 C         -4.8167  -17.9766  -50.1255 C.2       19 UNK         0.5000 
    108 O         -5.7259  -17.8476  -50.9472 O.2       19 UNK        -0.5000 
    109 N         -4.0320  -16.9725  -49.7039 N.am      20 UNK        -0.5000 
    110 CA        -4.1057  -15.5344  -49.9943 C.3       20 UNK         0.1400 
    111 CB        -5.4020  -14.9259  -49.4253 C.3       20 UNK        -0.1800 
    112 C         -3.9058  -15.1656  -51.4762 C.2       20 UNK         0.5000 
    113 O         -2.9226  -14.5086  -51.8134 O.2       20 UNK        -0.5000 
    114 N         -4.8356  -15.5986  -52.3325 N.am      21 UNK        -0.5000 
    115 CA        -4.8328  -15.3761  -53.7794 C.3       21 UNK         0.1400 
    116 CB        -6.2801  -15.4833  -54.2871 C.3       21 UNK        -0.1800 
    117 C         -3.9122  -16.3528  -54.5400 C.2       21 UNK         0.5000 
    118 O         -3.7573  -16.2144  -55.7545 O.2       21 UNK        -0.5000 
    119 N         -3.3462  -17.3330  -53.8262 N.am      22 UNK        -0.5000 
    120 CA        -2.4133  -18.3439  -54.3335 C.3       22 UNK         0.1400 
    121 C         -1.0798  -17.7694  -54.8977 C.2       22 UNK         0.5000 
    122 N         -0.4130  -18.5024  -55.7797 N.am      22 UNK        -0.7600 
    123 O         -0.6249  -16.6898  -54.5263 O.2       22 UNK        -0.5000 
    124 C124       -2.1779  -19.4542  -53.2776 C.3       23 UNK        -0.0398 
    125 S125       -1.4295  -18.8917  -51.7056 S.3       23 UNK        -0.2404 
    126 C126        0.2776  -19.4684  -51.9557 C.3       23 UNK        -0.0205 
    127 H127       -2.6855  -11.5334  -51.4504 H         1 UNK         0.0600 
    128 H128       -3.0557  -10.5090  -50.0583 H         1 UNK         0.0600 
    129 H129       -3.8226  -12.0912  -50.2233 H         1 UNK         0.0600 
    130 H130       -0.6374  -12.2851  -51.2490 H         1 UNK         0.3000 
    131 H131        1.1915  -13.2497  -50.6313 H         1 UNK         0.0600 
    132 H132       -0.2626  -14.2241  -48.1378 H         1 UNK         0.0800 
    133 H133        0.0449  -15.1051  -49.6026 H         1 UNK         0.0800 
    134 H134        2.6109  -15.2654  -50.4814 H         1 UNK         0.0800 
    135 H135        3.8910  -15.7281  -49.3984 H         1 UNK         0.0800 
    136 H136        0.9918  -16.9343  -51.2567 H         1 UNK         0.1150 
    137 H137        1.7183  -21.0379  -50.2583 H         1 UNK         0.1150 
    138 H138        3.8436  -17.9300  -48.2125 H         1 UNK         0.1150 
    139 H139        3.8423  -21.5115  -49.0206 H         1 UNK         0.0800 
    140 H140        4.6457  -20.2406  -48.1453 H         1 UNK         0.0800 
    141 H141        1.8486  -22.7353  -48.3447 H         1 UNK         0.0800 
    142 H142        0.7132  -21.5220  -47.8126 H         1 UNK         0.0800 
    143 H143        1.7752  -23.8665  -46.1442 H         1 UNK         0.0600 
    144 H144        0.3738  -21.5445  -45.2167 H         1 UNK         0.3000 
    145 H145       -1.1093  -23.0681  -42.3496 H         1 UNK         0.0600 
    146 H146        0.0455  -21.1579  -41.2266 H         1 UNK         0.0600 
    147 H147        1.1469  -22.4917  -41.5393 H         1 UNK         0.0600 
    148 H148        1.1975  -21.0610  -42.5564 H         1 UNK         0.0600 
    149 H149       -1.1051  -20.3940  -43.4060 H         1 UNK         0.3000 
    150 H150       -3.9456  -20.8379  -45.5345 H         1 UNK         0.0600 
    151 H151       -4.8260  -18.9975  -44.1579 H         1 UNK         0.0600 
    152 H152       -4.8754  -20.4952  -43.2419 H         1 UNK         0.0600 
    153 H153       -3.6225  -19.3058  -42.9074 H         1 UNK         0.0600 
    154 H154       -2.4427  -18.5129  -44.9459 H         1 UNK         0.3000 
    155 H155        0.2183  -19.0079  -47.2970 H         1 UNK         0.0600 
    156 H156       -2.1803  -17.1082  -47.3631 H         1 UNK         0.0600 
    157 H157       -1.5603  -18.0828  -48.7016 H         1 UNK         0.0600 
    158 H158       -0.5918  -16.7749  -48.0539 H         1 UNK         0.0600 
    159 H159       -0.3206  -16.8177  -45.5875 H         1 UNK         0.3000 
    160 H160        1.3130  -18.0989  -42.6605 H         1 UNK         0.0600 
    161 H161        1.9356  -15.8992  -44.6951 H         1 UNK         0.0600 
    162 H162        3.0500  -17.1487  -44.1590 H         1 UNK         0.0600 
    163 H163        2.4833  -15.9351  -43.0198 H         1 UNK         0.0600 
    164 H164       -0.1777  -15.7044  -43.4209 H         1 UNK         0.3000 
    165 H165       -3.2498  -16.7958  -41.9632 H         1 UNK         0.0600 
    166 H166       -2.9835  -14.7509  -40.5867 H         1 UNK         0.0600 
    167 H167       -1.9425  -16.0259  -39.9740 H         1 UNK         0.0600 
    168 H168       -1.2518  -14.7141  -40.9221 H         1 UNK         0.0600 
    169 H169       -2.4350  -14.2888  -43.0557 H         1 UNK         0.3000 
    170 H170       -2.8363  -14.9976  -46.4734 H         1 UNK         0.0600 
    171 H171       -5.2493  -14.8689  -45.8112 H         1 UNK         0.0600 
    172 H172       -4.8820  -13.5339  -44.7255 H         1 UNK         0.0600 
    173 H173       -4.6671  -13.3470  -46.4673 H         1 UNK         0.0600 
    174 H174       -2.6611  -12.5013  -45.2654 H         1 UNK         0.3000 
    175 H175       -0.5786  -11.4654  -45.8731 H         1 UNK         0.0600 
    176 H176       -0.1944  -12.1267  -42.9045 H         1 UNK         0.0600 
    177 H177        0.1106  -10.5411  -43.6140 H         1 UNK         0.0600 
    178 H178       -1.5073  -11.2178  -43.6300 H         1 UNK         0.0600 
    179 H179        1.5100  -11.8577  -46.3140 H         1 UNK         0.3000 
    180 H180        4.2690  -12.0123  -44.6954 H         1 UNK         0.0600 
    181 H181        3.8159  -14.8614  -45.7206 H         1 UNK         0.0600 
    182 H182        4.3934  -14.4320  -44.1135 H         1 UNK         0.0600 
    183 H183        5.3731  -14.0658  -45.5218 H         1 UNK         0.0600 
    184 H184        3.4031  -13.0589  -47.3372 H         1 UNK         0.3000 
    185 H185        3.2734   -9.8852  -48.8110 H         1 UNK         0.0600 
    186 H186        5.7370  -10.2765  -48.9866 H         1 UNK         0.0600 
    187 H187        5.4549  -11.9832  -49.3078 H         1 UNK         0.0600 
    188 H188        4.9096  -10.7608  -50.4575 H         1 UNK         0.0600 
    189 H189        3.1223  -12.4781  -49.9513 H         1 UNK         0.3000 
    190 H190       -1.4211  -22.4715  -47.0384 H         1 UNK         0.3000 
    191 H191       -2.2018  -24.4112  -48.8689 H         1 UNK         0.0600 
    192 H192       -3.2669  -22.1891  -48.6619 H         1 UNK         0.0600 
    193 H193       -4.4898  -23.4466  -48.5379 H         1 UNK         0.0600 
    194 H194       -3.9325  -22.6258  -47.0893 H         1 UNK         0.0600 
    195 H195       -2.4997  -24.5433  -45.3416 H         1 UNK         0.3000 
    196 H196       -4.2718  -26.7075  -45.0828 H         1 UNK         0.0600 
    197 H197       -3.1937  -26.9828  -42.8408 H         1 UNK         0.0600 
    198 H198       -3.5240  -25.2930  -43.1879 H         1 UNK         0.0600 
    199 H199       -1.8819  -25.9182  -43.3321 H         1 UNK         0.0600 
    200 H200       -0.9063  -26.7279  -46.1144 H         1 UNK         0.3000 
    201 H201       -0.8168  -29.7202  -46.0982 H         1 UNK         0.0600 
    202 H202        1.0774  -28.6122  -44.9478 H         1 UNK         0.0600 
    203 H203        1.4191  -27.6434  -46.3792 H         1 UNK         0.0600 
    204 H204        1.6266  -29.3910  -46.4242 H         1 UNK         0.0600 
    205 H205       -0.2837  -26.8046  -48.1410 H         1 UNK         0.3000 
    206 H206        0.3668  -28.3273  -50.4820 H         1 UNK         0.0600 
    207 H207        1.3499  -26.1086  -49.9538 H         1 UNK         0.0600 
    208 H208        0.5434  -26.0670  -51.5132 H         1 UNK         0.0600 
    209 H209       -0.2296  -25.3443  -50.1084 H         1 UNK         0.0600 
    210 H210       -2.7137  -27.2695  -49.2520 H         1 UNK         0.3000 
    211 H211       -4.7854  -27.1620  -49.9878 H         1 UNK         0.0600 
    212 H212       -3.9880  -28.9049  -52.3743 H         1 UNK         0.0600 
    213 H213       -5.6080  -28.6485  -51.7463 H         1 UNK         0.0600 
    214 H214       -4.4265  -29.5152  -50.7792 H         1 UNK         0.0600 
    215 H215       -2.9160  -25.1327  -50.6585 H         1 UNK         0.3000 
    216 H216       -3.2562  -24.1774  -53.3328 H         1 UNK         0.0600 
    217 H217       -1.8692  -22.2914  -52.5075 H         1 UNK         0.0600 
    218 H218       -1.2060  -23.8147  -51.9555 H         1 UNK         0.0600 
    219 H219       -2.1143  -22.7916  -50.8419 H         1 UNK         0.0600 
    220 H220       -5.2971  -23.8532  -50.6346 H         1 UNK         0.3000 
    221 H221       -7.1823  -22.8349  -50.1835 H         1 UNK         0.0600 
    222 H222       -7.7852  -23.0998  -52.6039 H         1 UNK         0.0600 
    223 H223       -8.5412  -21.7004  -51.8595 H         1 UNK         0.0600 
    224 H224       -7.1656  -21.4788  -52.9243 H         1 UNK         0.0600 
    225 H225       -4.4040  -21.0880  -50.6502 H         1 UNK         0.3000 
    226 H226       -3.4325  -19.4884  -49.5159 H         1 UNK         0.0600 
    227 H227       -4.7875  -20.3244  -47.5498 H         1 UNK         0.0600 
    228 H228       -4.3456  -18.6293  -47.4139 H         1 UNK         0.0600 
    229 H229       -5.9801  -19.0716  -47.8663 H         1 UNK         0.0600 
    230 H230       -3.2889  -17.2166  -49.0668 H         1 UNK         0.3000 
    231 H231       -3.2750  -15.0816  -49.4498 H         1 UNK         0.0600 
    232 H232       -6.2933  -15.3442  -49.8935 H         1 UNK         0.0600 
    233 H233       -5.4288  -13.8468  -49.5786 H         1 UNK         0.0600 
    234 H234       -5.4785  -15.1027  -48.3529 H         1 UNK         0.0600 
    235 H235       -5.5451  -16.2283  -51.9668 H         1 UNK         0.3000 
    236 H236       -4.4729  -14.3650  -53.9809 H         1 UNK         0.0600 
    237 H237       -6.9269  -14.7608  -53.7891 H         1 UNK         0.0600 
    238 H238       -6.3375  -15.2841  -55.3580 H         1 UNK         0.0600 
    239 H239       -6.6924  -16.4783  -54.1145 H         1 UNK         0.0600 
    240 H240       -3.5106  -17.3448  -52.8314 H         1 UNK         0.3000 
    241 H241       -2.9216  -18.8124  -55.1786 H         1 UNK         0.0600 
    242 H242       -0.7607  -19.3899  -56.1082 H         1 UNK         0.3800 
    243 H243        0.4564  -18.1485  -56.1478 H         1 UNK         0.3800 
    244 H244       -3.1367  -19.9054  -53.0270 H         1 UNK         0.0800 
    245 H245       -1.5825  -20.2611  -53.7064 H         1 UNK         0.0800 
    246 H246        0.6579  -19.0816  -52.9017 H         1 UNK         0.0800 
    247 H247        0.2709  -20.5557  -52.0476 H         1 UNK         0.0800 
@<TRIPOS>BOND
     1    1    2 1    
     2    1  127 1    
     3    1  128 1    
     4    1  129 1    
     5    2    3 2    
     6    2    4 am   BACKBONE|DICT|INTERRES
     7    4    5 1    
     8    4  130 1    
     9    5    6 1    
    10    5   65 1    
    11    5  131 1    
    12    6    7 1    
    13    6  132 1    
    14    6  133 1    
    15    7    8 1    
    16    8    9 1    
    17    8  134 1    
    18    8  135 1    
    19    9   10 ar   
    20    9   14 ar   
    21   10   11 ar   
    22   10  136 1    
    23   11   12 ar   
    24   11  126 1    
    25   12   13 ar   
    26   12  137 1    
    27   13   14 ar   
    28   13   15 1    
    29   14  138 1    
    30   15   16 1    
    31   15  139 1    
    32   15  140 1    
    33   16   17 1    
    34   17   18 1    
    35   17  141 1    
    36   17  142 1    
    37   18   19 1    
    38   18   67 1    
    39   18  143 1    
    40   19   20 am   BACKBONE|DICT|INTERRES
    41   19  144 1    
    42   20   21 2    
    43   20   22 1    
    44   22   23 1    
    45   22   24 1    
    46   22  145 1    
    47   23  146 1    
    48   23  147 1    
    49   23  148 1    
    50   24   25 am   BACKBONE|DICT|INTERRES
    51   24  149 1    
    52   25   26 2    
    53   25   27 1    
    54   27   28 1    
    55   27   29 1    
    56   27  150 1    
    57   28  151 1    
    58   28  152 1    
    59   28  153 1    
    60   29   30 am   BACKBONE|DICT|INTERRES
    61   29  154 1    
    62   30   31 2    
    63   30   32 1    
    64   32   33 1    
    65   32   34 1    
    66   32  155 1    
    67   33  156 1    
    68   33  157 1    
    69   33  158 1    
    70   34   35 am   BACKBONE|DICT|INTERRES
    71   34  159 1    
    72   35   36 2    
    73   35   37 1    
    74   37   38 1    
    75   37   39 1    
    76   37  160 1    
    77   38  161 1    
    78   38  162 1    
    79   38  163 1    
    80   39   40 am   BACKBONE|DICT|INTERRES
    81   39  164 1    
    82   40   41 2    
    83   40   42 1    
    84   42   43 1    
    85   42   44 1    
    86   42  165 1    
    87   43  166 1    
    88   43  167 1    
    89   43  168 1    
    90   44   45 am   BACKBONE|DICT|INTERRES
    91   44  169 1    
    92   45   46 2    
    93   45   47 1    
    94   47   48 1    
    95   47   49 1    
    96   47  170 1    
    97   48  171 1    
    98   48  172 1    
    99   48  173 1    
   100   49   50 am   BACKBONE|DICT|INTERRES
   101   49  174 1    
   102   50   51 2    
   103   50   52 1    
   104   52   53 1    
   105   52   54 1    
   106   52  175 1    
   107   53  176 1    
   108   53  177 1    
   109   53  178 1    
   110   54   55 am   BACKBONE|DICT|INTERRES
   111   54  179 1    
   112   55   56 2    
   113   55   57 1    
   114   57   58 1    
   115   57   59 1    
   116   57  180 1    
   117   58  181 1    
   118   58  182 1    
   119   58  183 1    
   120   59   60 am   BACKBONE|DICT|INTERRES
   121   59  184 1    
   122   60   61 2    
   123   60   62 1    
   124   62   63 1    
   125   62   64 1    
   126   62  185 1    
   127   63  186 1    
   128   63  187 1    
   129   63  188 1    
   130   64   65 am   BACKBONE|DICT|INTERRES
   131   64  189 1    
   132   65   66 2    
   133   67   68 2    
   134   67   69 am   BACKBONE|DICT|INTERRES
   135   69   70 1    
   136   69  190 1    
   137   70   71 1    
   138   70   72 1    
   139   70  191 1    
   140   71  192 1    
   141   71  193 1    
   142   71  194 1    
   143   72   73 2    
   144   72   74 am   BACKBONE|DICT|INTERRES
   145   74   75 1    
   146   74  195 1    
   147   75   76 1    
   148   75   77 1    
   149   75  196 1    
   150   76  197 1    
   151   76  198 1    
   152   76  199 1    
   153   77   78 2    
   154   77   79 am   BACKBONE|DICT|INTERRES
   155   79   80 1    
   156   79  200 1    
   157   80   81 1    
   158   80   82 1    
   159   80  201 1    
   160   81  202 1    
   161   81  203 1    
   162   81  204 1    
   163   82   83 2    
   164   82   84 am   BACKBONE|DICT|INTERRES
   165   84   85 1    
   166   84  205 1    
   167   85   86 1    
   168   85   87 1    
   169   85  206 1    
   170   86  207 1    
   171   86  208 1    
   172   86  209 1    
   173   87   88 2    
   174   87   89 am   BACKBONE|DICT|INTERRES
   175   89   90 1    
   176   89  210 1    
   177   90   91 1    
   178   90   92 1    
   179   90  211 1    
   180   91  212 1    
   181   91  213 1    
   182   91  214 1    
   183   92   93 2    
   184   92   94 am   BACKBONE|DICT|INTERRES
   185   94   95 1    
   186   94  215 1    
   187   95   96 1    
   188   95   97 1    
   189   95  216 1    
   190   96  217 1    
   191   96  218 1    
   192   96  219 1    
   193   97   98 2    
   194   97   99 am   BACKBONE|DICT|INTERRES
   195   99  100 1    
   196   99  220 1    
   197  100  101 1    
   198  100  102 1    
   199  100  221 1    
   200  101  222 1    
   201  101  223 1    
   202  101  224 1    
   203  102  103 2    
   204  102  104 am   BACKBONE|DICT|INTERRES
   205  104  105 1    
   206  104  225 1    
   207  105  106 1    
   208  105  107 1    
   209  105  226 1    
   210  106  227 1    
   211  106  228 1    
   212  106  229 1    
   213  107  108 2    
   214  107  109 am   BACKBONE|DICT|INTERRES
   215  109  110 1    
   216  109  230 1    
   217  110  111 1    
   218  110  112 1    
   219  110  231 1    
   220  111  232 1    
   221  111  233 1    
   222  111  234 1    
   223  112  113 2    
   224  112  114 am   BACKBONE|DICT|INTERRES
   225  114  115 1    
   226  114  235 1    
   227  115  116 1    
   228  115  117 1    
   229  115  236 1    
   230  116  237 1    
   231  116  238 1    
   232  116  239 1    
   233  117  118 2    
   234  117  119 am   BACKBONE|DICT|INTERRES
   235  119  120 1    
   236  119  240 1    
   237  120  121 1    
   238  120  124 1    
   239  120  241 1    
   240  121  122 am   BACKBONE|DICT|INTERRES
   241  121  123 2    
   242  122  242 1    
   243  122  243 1    
   244  124  125 1    
   245  124  244 1    
   246  124  245 1    
   247  125  126 1    
   248  126  246 1    
   249  126  247 1    
@<TRIPOS>SUBSTRUCTURE
     1 UNK         1 GROUP             0       ****    0 ROOT    
