@<TRIPOS>MOLECULE
3R540
247   249    1
SMALL
USER_CHARGES


@<TRIPOS>ATOM
      1 CA         -4.1039   -9.6909  -46.0462 C.3       0 UNK        -0.1800 
      2 C          -3.0416  -10.7526  -46.2886 C.2       0 UNK         0.5000 
      3 O          -2.1916  -10.9701  -45.4255 O.2       0 UNK        -0.5000 
      4 N          -3.0972  -11.4215  -47.4500 N.am      1 UNK        -0.5000 
      5 CA         -2.1735  -12.4787  -47.8847 C.3       1 UNK         0.1400 
      6 C6         -2.5463  -13.0002  -49.2979 C.3       23 UNK        -0.0398 
      7 S7         -1.3554  -14.1857  -50.0215 S.3       23 UNK        -0.2404 
      8 C8         -2.2039  -15.7631  -49.6857 C.3       23 UNK        -0.0205 
      9 C9         -1.4630  -16.9498  -50.2800 C.ar      23 UNK        -0.0193 
     10 C10        -1.9322  -17.5614  -51.4445 C.ar      23 UNK        -0.1150 
     11 C11        -1.2842  -18.6833  -51.9689 C.ar      23 UNK        -0.0193 
     12 C12        -0.1604  -19.1974  -51.3133 C.ar      23 UNK        -0.1150 
     13 C13         0.3344  -18.5800  -50.1592 C.ar      23 UNK        -0.0193 
     14 C14        -0.3227  -17.4549  -49.6507 C.ar      23 UNK        -0.1150 
     15 C15         1.6033  -19.0991  -49.4923 C.3       23 UNK        -0.0205 
     16 S16         1.2962  -20.4715  -48.3314 S.3       23 UNK        -0.2404 
     17 C17         0.5890  -19.6004  -46.8918 C.3       23 UNK        -0.0398 
     18 CA         -0.5169  -20.4324  -46.2104 C.3       11 UNK         0.1400 
     19 N           0.0084  -21.6324  -45.5501 N.am      11 UNK        -0.5000 
     20 C          -0.6973  -22.7413  -45.2950 C.2       10 UNK         0.5000 
     21 O          -1.9036  -22.8462  -45.5210 O.2       10 UNK        -0.5000 
     22 CA          0.0622  -23.8946  -44.6199 C.3       10 UNK         0.1400 
     23 CB          0.8753  -24.6849  -45.6556 C.3       10 UNK        -0.1800 
     24 N           0.9504  -23.4305  -43.5526 N.am      10 UNK        -0.5000 
     25 C           0.5460  -22.8428  -42.4198 C.2       9 UNK         0.5000 
     26 O          -0.6342  -22.6105  -42.1609 O.2       9 UNK        -0.5000 
     27 CA          1.6346  -22.4179  -41.4200 C.3       9 UNK         0.1400 
     28 CB          2.2854  -23.6329  -40.7311 C.3       9 UNK        -0.1800 
     29 N           2.6342  -21.5088  -41.9908 N.am      9 UNK        -0.5000 
     30 C           3.5764  -21.7502  -42.9161 C.2       8 UNK         0.5000 
     31 O           3.7358  -22.8470  -43.4540 O.2       8 UNK        -0.5000 
     32 CA          4.4793  -20.5713  -43.3398 C.3       8 UNK         0.1400 
     33 CB          4.3209  -20.2800  -44.8406 C.3       8 UNK        -0.1800 
     34 N           4.2082  -19.3436  -42.5865 N.am      8 UNK        -0.5000 
     35 C           4.7129  -19.0678  -41.3738 C.2       7 UNK         0.5000 
     36 O           5.5268  -19.7907  -40.7984 O.2       7 UNK        -0.5000 
     37 CA          4.2111  -17.7912  -40.6641 C.3       7 UNK         0.1400 
     38 CB          5.2245  -16.6495  -40.8359 C.3       7 UNK        -0.1800 
     39 N           2.8992  -17.3274  -41.1209 N.am      7 UNK        -0.5000 
     40 C           1.7504  -18.0135  -41.0323 C.2       6 UNK         0.5000 
     41 O           1.6557  -19.1140  -40.4896 O.2       6 UNK        -0.5000 
     42 CA          0.5123  -17.3956  -41.7132 C.3       6 UNK         0.1400 
     43 CB         -0.3474  -16.6664  -40.6707 C.3       6 UNK        -0.1800 
     44 N           0.8254  -16.4825  -42.8196 N.am      6 UNK        -0.5000 
     45 C           1.5335  -16.8039  -43.9135 C.2       5 UNK         0.5000 
     46 O           2.0095  -17.9249  -44.0966 O.2       5 UNK        -0.5000 
     47 CA          1.7893  -15.7071  -44.9654 C.3       5 UNK         0.1400 
     48 CB          1.3035  -16.1493  -46.3519 C.3       5 UNK        -0.1800 
     49 N           1.1758  -14.4201  -44.6393 N.am      5 UNK        -0.5000 
     50 C           1.7160  -13.4967  -43.8347 C.2       4 UNK         0.5000 
     51 O           2.7721  -13.6580  -43.2221 O.2       4 UNK        -0.5000 
     52 CA          0.9327  -12.1814  -43.6770 C.3       4 UNK         0.1400 
     53 CB          1.1585  -11.2665  -44.8906 C.3       4 UNK        -0.1800 
     54 N          -0.5027  -12.3976  -43.4967 N.am      4 UNK        -0.5000 
     55 C          -1.0572  -12.9509  -42.4094 C.2       3 UNK         0.5000 
     56 O          -0.4130  -13.3323  -41.4326 O.2       3 UNK        -0.5000 
     57 CA         -2.5849  -13.1287  -42.4271 C.3       3 UNK         0.1400 
     58 CB         -3.3006  -11.8038  -42.1210 C.3       3 UNK        -0.1800 
     59 N          -3.0482  -13.6535  -43.7101 N.am      3 UNK        -0.5000 
     60 C          -2.9079  -14.9306  -44.0921 C.2       2 UNK         0.5000 
     61 O          -2.4423  -15.8093  -43.3699 O.2       2 UNK        -0.5000 
     62 CA         -3.3446  -15.2864  -45.5249 C.3       2 UNK         0.1400 
     63 CB         -4.7805  -15.8293  -45.5387 C.3       2 UNK        -0.1800 
     64 N          -3.2440  -14.1667  -46.4622 N.am      2 UNK        -0.5000 
     65 C          -2.0836  -13.6242  -46.8567 C.2       1 UNK         0.5000 
     66 O          -0.9860  -13.9659  -46.4202 O.2       1 UNK        -0.5000 
     67 C          -1.4537  -19.5787  -45.3259 C.2       11 UNK         0.5000 
     68 O          -1.9708  -18.5743  -45.8121 O.2       11 UNK        -0.5000 
     69 N          -1.7311  -20.0151  -44.0869 N.am      12 UNK        -0.5000 
     70 CA         -2.8536  -19.5145  -43.2891 C.3       12 UNK         0.1400 
     71 CB         -2.7231  -20.0162  -41.8433 C.3       12 UNK        -0.1800 
     72 C          -4.2170  -19.9305  -43.8855 C.2       12 UNK         0.5000 
     73 O          -5.1869  -19.1846  -43.7514 O.2       12 UNK        -0.5000 
     74 N          -4.2578  -21.0984  -44.5453 N.am      13 UNK        -0.5000 
     75 CA         -5.4018  -21.5944  -45.3150 C.3       13 UNK         0.1400 
     76 CB         -5.7094  -23.0363  -44.8830 C.3       13 UNK        -0.1800 
     77 C          -5.1148  -21.5437  -46.8264 C.2       13 UNK         0.5000 
     78 O          -6.0308  -21.3057  -47.6156 O.2       13 UNK        -0.5000 
     79 N          -3.8494  -21.7865  -47.2032 N.am      14 UNK        -0.5000 
     80 CA         -3.2829  -21.7270  -48.5545 C.3       14 UNK         0.1400 
     81 CB         -3.2864  -20.2769  -49.0820 C.3       14 UNK        -0.1800 
     82 C          -3.9135  -22.7141  -49.5509 C.2       14 UNK         0.5000 
     83 O          -3.8302  -22.4807  -50.7569 O.2       14 UNK        -0.5000 
     84 N          -4.5265  -23.7943  -49.0443 N.am      15 UNK        -0.5000 
     85 CA         -5.2706  -24.8133  -49.7962 C.3       15 UNK         0.1400 
     86 CB         -4.3117  -25.6484  -50.6719 C.3       15 UNK        -0.1800 
     87 C          -6.4489  -24.2138  -50.5969 C.2       15 UNK         0.5000 
     88 O          -6.7118  -24.6439  -51.7203 O.2       15 UNK        -0.5000 
     89 N          -7.1106  -23.2058  -50.0037 N.am      16 UNK        -0.5000 
     90 CA         -8.1382  -22.3487  -50.6069 C.3       16 UNK         0.1400 
     91 CB         -9.3986  -23.1541  -50.9887 C.3       16 UNK        -0.1800 
     92 C          -7.5683  -21.5023  -51.7660 C.2       16 UNK         0.5000 
     93 O          -8.1896  -21.3918  -52.8241 O.2       16 UNK        -0.5000 
     94 N          -6.3840  -20.9236  -51.5176 N.am      17 UNK        -0.5000 
     95 CA         -5.5700  -20.1058  -52.4194 C.3       17 UNK         0.1400 
     96 CB         -6.2817  -18.7820  -52.7664 C.3       17 UNK        -0.1800 
     97 C          -5.0940  -20.8906  -53.6590 C.2       17 UNK         0.5000 
     98 O          -5.3906  -20.5072  -54.7916 O.2       17 UNK        -0.5000 
     99 N          -4.3429  -21.9695  -53.4098 N.am      18 UNK        -0.5000 
    100 CA        -3.7585  -22.8410  -54.4303 C.3       18 UNK         0.1400 
    101 CB        -4.7451  -23.9759  -54.7517 C.3       18 UNK        -0.1800 
    102 C         -2.3798  -23.4139  -54.0432 C.2       18 UNK         0.5000 
    103 O         -1.7021  -23.9419  -54.9247 O.2       18 UNK        -0.5000 
    104 N         -1.9733  -23.3170  -52.7656 N.am      19 UNK        -0.5000 
    105 CA        -0.7987  -23.9936  -52.1903 C.3       19 UNK         0.1400 
    106 CB        -0.6918  -23.6599  -50.6936 C.3       19 UNK        -0.1800 
    107 C          0.5523  -23.7238  -52.8815 C.2       19 UNK         0.5000 
    108 O          1.3791  -24.6330  -52.9587 O.2       19 UNK        -0.5000 
    109 N          0.7482  -22.4968  -53.3789 N.am      20 UNK        -0.5000 
    110 CA         1.9588  -22.0699  -54.0891 C.3       20 UNK         0.1400 
    111 CB         2.3787  -20.6815  -53.5747 C.3       20 UNK        -0.1800 
    112 C          1.7723  -22.0881  -55.6208 C.2       20 UNK         0.5000 
    113 O          2.5118  -21.4009  -56.3266 O.2       20 UNK        -0.5000 
    114 N          0.7808  -22.8526  -56.1075 N.am      21 UNK        -0.5000 
    115 CA         0.3267  -22.9394  -57.5012 C.3       21 UNK         0.1400 
    116 CB         1.4262  -23.5107  -58.4217 C.3       21 UNK        -0.1800 
    117 C         -0.2655  -21.6052  -58.0023 C.2       21 UNK         0.5000 
    118 O         -0.0759  -21.2317  -59.1615 O.2       21 UNK        -0.5000 
    119 N         -0.9621  -20.9088  -57.0952 N.am      22 UNK        -0.5000 
    120 CA        -1.6486  -19.6308  -57.3233 C.3       22 UNK         0.1400 
    121 C         -2.7699  -19.7245  -58.3974 C.2       22 UNK         0.5000 
    122 N         -2.9687  -18.6778  -59.1870 N.am      22 UNK        -0.7600 
    123 O         -3.4867  -20.7185  -58.4930 O.2       22 UNK        -0.5000 
    124 C124       -2.2263  -19.0627  -56.0030 C.3       23 UNK        -0.0398 
    125 S125       -0.9597  -18.7567  -54.7212 S.3       23 UNK        -0.2404 
    126 C126       -1.8217  -19.3401  -53.2298 C.3       23 UNK        -0.0205 
    127 H127       -4.8033   -9.6177  -46.8793 H         1 UNK         0.0600 
    128 H128       -4.6702   -9.9274  -45.1454 H         1 UNK         0.0600 
    129 H129       -3.6343   -8.7171  -45.9086 H         1 UNK         0.0600 
    130 H130       -3.8270  -11.1840  -48.1068 H         1 UNK         0.3000 
    131 H131       -1.1825  -12.0238  -47.9456 H         1 UNK         0.0600 
    132 H132       -2.6017  -12.1555  -49.9859 H         1 UNK         0.0800 
    133 H133       -3.5453  -13.4393  -49.2973 H         1 UNK         0.0800 
    134 H134       -3.2201  -15.7195  -50.0805 H         1 UNK         0.0800 
    135 H135       -2.2990  -15.9125  -48.6099 H         1 UNK         0.0800 
    136 H136       -2.8085  -17.1674  -51.9400 H         1 UNK         0.1150 
    137 H137        0.3384  -20.0700  -51.7059 H         1 UNK         0.1150 
    138 H138        0.0521  -16.9613  -48.7667 H         1 UNK         0.1150 
    139 H139        2.2953  -19.4461  -50.2608 H         1 UNK         0.0800 
    140 H140        2.1187  -18.2907  -48.9714 H         1 UNK         0.0800 
    141 H141        1.3842  -19.3585  -46.1893 H         1 UNK         0.0800 
    142 H142        0.1843  -18.6522  -47.2371 H         1 UNK         0.0800 
    143 H143       -1.1637  -20.7758  -47.0135 H         1 UNK         0.0600 
    144 H144        0.9898  -21.6229  -45.3150 H         1 UNK         0.3000 
    145 H145       -0.6769  -24.5660  -44.1778 H         1 UNK         0.0600 
    146 H146        1.3521  -25.5536  -45.2014 H         1 UNK         0.0600 
    147 H147        0.2350  -25.0495  -46.4601 H         1 UNK         0.0600 
    148 H148        1.6567  -24.0732  -46.1086 H         1 UNK         0.0600 
    149 H149        1.9514  -23.5361  -43.6930 H         1 UNK         0.3000 
    150 H150        1.1314  -21.8425  -40.6413 H         1 UNK         0.0600 
    151 H151        1.5333  -24.2375  -40.2229 H         1 UNK         0.0600 
    152 H152        3.0094  -23.3167  -39.9801 H         1 UNK         0.0600 
    153 H153        2.7995  -24.2842  -41.4381 H         1 UNK         0.0600 
    154 H154        2.5719  -20.5633  -41.6294 H         1 UNK         0.3000 
    155 H155        5.5132  -20.8761  -43.1657 H         1 UNK         0.0600 
    156 H156        4.6159  -21.1414  -45.4411 H         1 UNK         0.0600 
    157 H157        4.9437  -19.4406  -45.1500 H         1 UNK         0.0600 
    158 H158        3.2891  -20.0442  -45.0955 H         1 UNK         0.0600 
    159 H159        3.5264  -18.7125  -42.9960 H         1 UNK         0.3000 
    160 H160        4.1289  -18.0215  -39.6000 H         1 UNK         0.0600 
    161 H161        5.3254  -16.3563  -41.8817 H         1 UNK         0.0600 
    162 H162        4.9271  -15.7682  -40.2671 H         1 UNK         0.0600 
    163 H163        6.2124  -16.9456  -40.4805 H         1 UNK         0.0600 
    164 H164        2.8772  -16.4327  -41.5889 H         1 UNK         0.3000 
    165 H165       -0.0724  -18.2165  -42.1311 H         1 UNK         0.0600 
    166 H166       -1.2769  -16.3002  -41.1037 H         1 UNK         0.0600 
    167 H167       -0.6172  -17.3331  -39.8506 H         1 UNK         0.0600 
    168 H168        0.1803  -15.8139  -40.2415 H         1 UNK         0.0600 
    169 H169        0.4580  -15.5441  -42.7479 H         1 UNK         0.3000 
    170 H170        2.8710  -15.5709  -45.0246 H         1 UNK         0.0600 
    171 H171        1.8697  -17.0115  -46.7031 H         1 UNK         0.0600 
    172 H172        0.2464  -16.4184  -46.3362 H         1 UNK         0.0600 
    173 H173        1.4366  -15.3585  -47.0906 H         1 UNK         0.0600 
    174 H174        0.3130  -14.2002  -45.1344 H         1 UNK         0.3000 
    175 H175        1.3133  -11.6699  -42.7904 H         1 UNK         0.0600 
    176 H176        0.7639  -11.7083  -45.8067 H         1 UNK         0.0600 
    177 H177        0.6716  -10.3012  -44.7510 H         1 UNK         0.0600 
    178 H178        2.2212  -11.0767  -45.0463 H         1 UNK         0.0600 
    179 H179       -1.1070  -12.0765  -44.2482 H         1 UNK         0.3000 
    180 H180       -2.8488  -13.8413  -41.6425 H         1 UNK         0.0600 
    181 H181       -2.9894  -11.4094  -41.1529 H         1 UNK         0.0600 
    182 H182       -3.0846  -11.0409  -42.8692 H         1 UNK         0.0600 
    183 H183       -4.3815  -11.9398  -42.0839 H         1 UNK         0.0600 
    184 H184       -3.4004  -12.9842  -44.3784 H         1 UNK         0.3000 
    185 H185       -2.6788  -16.0750  -45.8790 H         1 UNK         0.0600 
    186 H186       -4.8798  -16.6796  -44.8630 H         1 UNK         0.0600 
    187 H187       -5.5011  -15.0734  -45.2245 H         1 UNK         0.0600 
    188 H188       -5.0623  -16.1741  -46.5337 H         1 UNK         0.0600 
    189 H189       -4.1088  -13.8055  -46.8372 H         1 UNK         0.3000 
    190 H190       -1.2699  -20.8475  -43.7457 H         1 UNK         0.3000 
    191 H191       -2.8076  -18.4243  -43.2773 H         1 UNK         0.0600 
    192 H192       -3.4923  -19.5732  -41.2096 H         1 UNK         0.0600 
    193 H193       -1.7570  -19.7542  -41.4125 H         1 UNK         0.0600 
    194 H194       -2.8340  -21.0992  -41.7818 H         1 UNK         0.0600 
    195 H195       -3.4103  -21.6495  -44.5989 H         1 UNK         0.3000 
    196 H196       -6.2877  -20.9845  -45.1268 H         1 UNK         0.0600 
    197 H197       -6.5534  -23.4416  -45.4428 H         1 UNK         0.0600 
    198 H198       -5.9703  -23.0805  -43.8255 H         1 UNK         0.0600 
    199 H199       -4.8572  -23.6981  -45.0440 H         1 UNK         0.0600 
    200 H200       -3.1914  -22.0913  -46.4890 H         1 UNK         0.3000 
    201 H201       -2.2454  -22.0490  -48.4691 H         1 UNK         0.0600 
    202 H202       -2.7991  -19.5960  -48.3846 H         1 UNK         0.0600 
    203 H203       -4.2979  -19.9083  -49.2522 H         1 UNK         0.0600 
    204 H204       -2.7471  -20.2030  -50.0260 H         1 UNK         0.0600 
    205 H205       -4.5279  -23.9014  -48.0401 H         1 UNK         0.3000 
    206 H206       -5.7127  -25.4832  -49.0575 H         1 UNK         0.0600 
    207 H207       -3.4833  -26.0440  -50.0844 H         1 UNK         0.0600 
    208 H208       -4.8297  -26.4994  -51.1152 H         1 UNK         0.0600 
    209 H209       -3.8925  -25.0628  -51.4897 H         1 UNK         0.0600 
    210 H210       -6.7952  -22.9121  -49.0872 H         1 UNK         0.3000 
    211 H211       -8.4311  -21.6389  -49.8317 H         1 UNK         0.0600 
    212 H212       -9.2131  -23.8387  -51.8165 H         1 UNK         0.0600 
    213 H213      -10.2057  -22.4878  -51.2949 H         1 UNK         0.0600 
    214 H214       -9.7637  -23.7386  -50.1443 H         1 UNK         0.0600 
    215 H215       -5.9560  -21.1278  -50.6262 H         1 UNK         0.3000 
    216 H216       -4.6715  -19.8471  -51.8578 H         1 UNK         0.0600 
    217 H217       -6.5566  -18.2350  -51.8646 H         1 UNK         0.0600 
    218 H218       -7.1884  -18.9455  -53.3493 H         1 UNK         0.0600 
    219 H219       -5.6298  -18.1335  -53.3530 H         1 UNK         0.0600 
    220 H220       -4.1862  -22.2265  -52.4362 H         1 UNK         0.3000 
    221 H221       -3.5947  -22.2629  -55.3424 H         1 UNK         0.0600 
    222 H222       -4.9448  -24.5907  -53.8735 H         1 UNK         0.0600 
    223 H223       -5.6976  -23.5824  -55.1069 H         1 UNK         0.0600 
    224 H224       -4.3535  -24.6306  -55.5311 H         1 UNK         0.0600 
    225 H225       -2.5971  -22.8904  -52.0884 H         1 UNK         0.3000 
    226 H226       -0.9811  -25.0667  -52.2776 H         1 UNK         0.0600 
    227 H227       -1.5091  -24.1126  -50.1348 H         1 UNK         0.0600 
    228 H228        0.2325  -24.0490  -50.2638 H         1 UNK         0.0600 
    229 H229       -0.7057  -22.5834  -50.5176 H         1 UNK         0.0600 
    230 H230        0.0065  -21.8194  -53.2951 H         1 UNK         0.3000 
    231 H231        2.7810  -22.7547  -53.8723 H         1 UNK         0.0600 
    232 H232        2.5328  -20.6929  -52.4960 H         1 UNK         0.0600 
    233 H233        3.3184  -20.3611  -54.0260 H         1 UNK         0.0600 
    234 H234        1.6316  -19.9221  -53.8034 H         1 UNK         0.0600 
    235 H235        0.2094  -23.3689  -55.4469 H         1 UNK         0.3000 
    236 H236       -0.4993  -23.6520  -57.5039 H         1 UNK         0.0600 
    237 H237        1.8219  -24.4471  -58.0285 H         1 UNK         0.0600 
    238 H238        1.0302  -23.7189  -59.4162 H         1 UNK         0.0600 
    239 H239        2.2591  -22.8180  -58.5433 H         1 UNK         0.0600 
    240 H240       -1.0468  -21.2965  -56.1696 H         1 UNK         0.3000 
    241 H241       -0.8947  -18.9321  -57.6913 H         1 UNK         0.0600 
    242 H242       -3.7017  -18.7195  -59.8784 H         1 UNK         0.3800 
    243 H243       -2.3977  -17.8488  -59.1242 H         1 UNK         0.3800 
    244 H244       -2.7374  -18.1158  -56.1860 H         1 UNK         0.0800 
    245 H245       -2.9831  -19.7433  -55.6134 H         1 UNK         0.0800 
    246 H246       -2.8804  -19.1039  -53.3254 H         1 UNK         0.0800 
    247 H247       -1.7467  -20.4244  -53.1558 H         1 UNK         0.0800 
@<TRIPOS>BOND
     1    1    2 1    
     2    1  127 1    
     3    1  128 1    
     4    1  129 1    
     5    2    3 2    
     6    2    4 am   BACKBONE|DICT|INTERRES
     7    4    5 1    
     8    4  130 1    
     9    5    6 1    
    10    5   65 1    
    11    5  131 1    
    12    6    7 1    
    13    6  132 1    
    14    6  133 1    
    15    7    8 1    
    16    8    9 1    
    17    8  134 1    
    18    8  135 1    
    19    9   10 ar   
    20    9   14 ar   
    21   10   11 ar   
    22   10  136 1    
    23   11   12 ar   
    24   11  126 1    
    25   12   13 ar   
    26   12  137 1    
    27   13   14 ar   
    28   13   15 1    
    29   14  138 1    
    30   15   16 1    
    31   15  139 1    
    32   15  140 1    
    33   16   17 1    
    34   17   18 1    
    35   17  141 1    
    36   17  142 1    
    37   18   19 1    
    38   18   67 1    
    39   18  143 1    
    40   19   20 am   BACKBONE|DICT|INTERRES
    41   19  144 1    
    42   20   21 2    
    43   20   22 1    
    44   22   23 1    
    45   22   24 1    
    46   22  145 1    
    47   23  146 1    
    48   23  147 1    
    49   23  148 1    
    50   24   25 am   BACKBONE|DICT|INTERRES
    51   24  149 1    
    52   25   26 2    
    53   25   27 1    
    54   27   28 1    
    55   27   29 1    
    56   27  150 1    
    57   28  151 1    
    58   28  152 1    
    59   28  153 1    
    60   29   30 am   BACKBONE|DICT|INTERRES
    61   29  154 1    
    62   30   31 2    
    63   30   32 1    
    64   32   33 1    
    65   32   34 1    
    66   32  155 1    
    67   33  156 1    
    68   33  157 1    
    69   33  158 1    
    70   34   35 am   BACKBONE|DICT|INTERRES
    71   34  159 1    
    72   35   36 2    
    73   35   37 1    
    74   37   38 1    
    75   37   39 1    
    76   37  160 1    
    77   38  161 1    
    78   38  162 1    
    79   38  163 1    
    80   39   40 am   BACKBONE|DICT|INTERRES
    81   39  164 1    
    82   40   41 2    
    83   40   42 1    
    84   42   43 1    
    85   42   44 1    
    86   42  165 1    
    87   43  166 1    
    88   43  167 1    
    89   43  168 1    
    90   44   45 am   BACKBONE|DICT|INTERRES
    91   44  169 1    
    92   45   46 2    
    93   45   47 1    
    94   47   48 1    
    95   47   49 1    
    96   47  170 1    
    97   48  171 1    
    98   48  172 1    
    99   48  173 1    
   100   49   50 am   BACKBONE|DICT|INTERRES
   101   49  174 1    
   102   50   51 2    
   103   50   52 1    
   104   52   53 1    
   105   52   54 1    
   106   52  175 1    
   107   53  176 1    
   108   53  177 1    
   109   53  178 1    
   110   54   55 am   BACKBONE|DICT|INTERRES
   111   54  179 1    
   112   55   56 2    
   113   55   57 1    
   114   57   58 1    
   115   57   59 1    
   116   57  180 1    
   117   58  181 1    
   118   58  182 1    
   119   58  183 1    
   120   59   60 am   BACKBONE|DICT|INTERRES
   121   59  184 1    
   122   60   61 2    
   123   60   62 1    
   124   62   63 1    
   125   62   64 1    
   126   62  185 1    
   127   63  186 1    
   128   63  187 1    
   129   63  188 1    
   130   64   65 am   BACKBONE|DICT|INTERRES
   131   64  189 1    
   132   65   66 2    
   133   67   68 2    
   134   67   69 am   BACKBONE|DICT|INTERRES
   135   69   70 1    
   136   69  190 1    
   137   70   71 1    
   138   70   72 1    
   139   70  191 1    
   140   71  192 1    
   141   71  193 1    
   142   71  194 1    
   143   72   73 2    
   144   72   74 am   BACKBONE|DICT|INTERRES
   145   74   75 1    
   146   74  195 1    
   147   75   76 1    
   148   75   77 1    
   149   75  196 1    
   150   76  197 1    
   151   76  198 1    
   152   76  199 1    
   153   77   78 2    
   154   77   79 am   BACKBONE|DICT|INTERRES
   155   79   80 1    
   156   79  200 1    
   157   80   81 1    
   158   80   82 1    
   159   80  201 1    
   160   81  202 1    
   161   81  203 1    
   162   81  204 1    
   163   82   83 2    
   164   82   84 am   BACKBONE|DICT|INTERRES
   165   84   85 1    
   166   84  205 1    
   167   85   86 1    
   168   85   87 1    
   169   85  206 1    
   170   86  207 1    
   171   86  208 1    
   172   86  209 1    
   173   87   88 2    
   174   87   89 am   BACKBONE|DICT|INTERRES
   175   89   90 1    
   176   89  210 1    
   177   90   91 1    
   178   90   92 1    
   179   90  211 1    
   180   91  212 1    
   181   91  213 1    
   182   91  214 1    
   183   92   93 2    
   184   92   94 am   BACKBONE|DICT|INTERRES
   185   94   95 1    
   186   94  215 1    
   187   95   96 1    
   188   95   97 1    
   189   95  216 1    
   190   96  217 1    
   191   96  218 1    
   192   96  219 1    
   193   97   98 2    
   194   97   99 am   BACKBONE|DICT|INTERRES
   195   99  100 1    
   196   99  220 1    
   197  100  101 1    
   198  100  102 1    
   199  100  221 1    
   200  101  222 1    
   201  101  223 1    
   202  101  224 1    
   203  102  103 2    
   204  102  104 am   BACKBONE|DICT|INTERRES
   205  104  105 1    
   206  104  225 1    
   207  105  106 1    
   208  105  107 1    
   209  105  226 1    
   210  106  227 1    
   211  106  228 1    
   212  106  229 1    
   213  107  108 2    
   214  107  109 am   BACKBONE|DICT|INTERRES
   215  109  110 1    
   216  109  230 1    
   217  110  111 1    
   218  110  112 1    
   219  110  231 1    
   220  111  232 1    
   221  111  233 1    
   222  111  234 1    
   223  112  113 2    
   224  112  114 am   BACKBONE|DICT|INTERRES
   225  114  115 1    
   226  114  235 1    
   227  115  116 1    
   228  115  117 1    
   229  115  236 1    
   230  116  237 1    
   231  116  238 1    
   232  116  239 1    
   233  117  118 2    
   234  117  119 am   BACKBONE|DICT|INTERRES
   235  119  120 1    
   236  119  240 1    
   237  120  121 1    
   238  120  124 1    
   239  120  241 1    
   240  121  122 am   BACKBONE|DICT|INTERRES
   241  121  123 2    
   242  122  242 1    
   243  122  243 1    
   244  124  125 1    
   245  124  244 1    
   246  124  245 1    
   247  125  126 1    
   248  126  246 1    
   249  126  247 1    
@<TRIPOS>SUBSTRUCTURE
     1 UNK         1 GROUP             0       ****    0 ROOT    
