@<TRIPOS>MOLECULE
3R540
247   249    1
SMALL
USER_CHARGES


@<TRIPOS>ATOM
      1 CA         -4.0911  -18.2458  -47.2090 C.3       0 UNK        -0.1800 
      2 C          -3.8756  -16.7990  -47.6339 C.2       0 UNK         0.5000 
      3 O          -4.7899  -15.9836  -47.5125 O.2       0 UNK        -0.5000 
      4 N          -2.6696  -16.4782  -48.1221 N.am      1 UNK        -0.5000 
      5 CA         -2.2413  -15.1226  -48.4809 C.3       1 UNK         0.1400 
      6 C6         -0.8941  -15.1296  -49.2415 C.3       23 UNK        -0.0398 
      7 S7         -1.0380  -15.8566  -50.9073 S.3       23 UNK        -0.2404 
      8 C8          0.7116  -16.1335  -51.3322 C.3       23 UNK        -0.0205 
      9 C9          1.1730  -17.5198  -50.9114 C.ar      23 UNK        -0.0193 
     10 C10         1.0696  -18.5916  -51.8033 C.ar      23 UNK        -0.1150 
     11 C11         1.4462  -19.8824  -51.4159 C.ar      23 UNK        -0.0193 
     12 C12         1.9433  -20.0877  -50.1258 C.ar      23 UNK        -0.1150 
     13 C13         2.0782  -19.0201  -49.2338 C.ar      23 UNK        -0.0193 
     14 C14         1.6993  -17.7362  -49.6352 C.ar      23 UNK        -0.1150 
     15 C15         2.6329  -19.2609  -47.8369 C.3       23 UNK        -0.0205 
     16 S16         1.4616  -18.8228  -46.5107 S.3       23 UNK        -0.2404 
     17 C17        -0.0882  -19.6374  -47.0253 C.3       23 UNK        -0.0398 
     18 CA         -0.0382  -21.1826  -46.9332 C.3       11 UNK         0.1400 
     19 N           0.2715  -21.7270  -45.6018 N.am      11 UNK        -0.5000 
     20 C          -0.3725  -21.5318  -44.4421 C.2       10 UNK         0.5000 
     21 O          -1.3482  -20.7899  -44.3231 O.2       10 UNK        -0.5000 
     22 CA          0.1222  -22.3296  -43.2214 C.3       10 UNK         0.1400 
     23 CB          1.3949  -23.1681  -43.4900 C.3       10 UNK        -0.1800 
     24 N           0.3444  -21.4170  -42.1053 N.am      10 UNK        -0.5000 
     25 C           0.4556  -21.7695  -40.8176 C.2       9 UNK         0.5000 
     26 O           0.2551  -22.9128  -40.4025 O.2       9 UNK        -0.5000 
     27 CA          0.9115  -20.6555  -39.8482 C.3       9 UNK         0.1400 
     28 CB          1.3771  -21.1862  -38.4763 C.3       9 UNK        -0.1800 
     29 N           1.9339  -19.7962  -40.4583 N.am      9 UNK        -0.5000 
     30 C           3.1435  -20.1660  -40.9093 C.2       8 UNK         0.5000 
     31 O           3.6384  -21.2797  -40.7328 O.2       8 UNK        -0.5000 
     32 CA          3.9187  -19.1297  -41.7421 C.3       8 UNK         0.1400 
     33 CB          3.6997  -19.3991  -43.2403 C.3       8 UNK        -0.1800 
     34 N           3.5350  -17.7492  -41.4448 N.am      8 UNK        -0.5000 
     35 C           3.9265  -17.0720  -40.3573 C.2       7 UNK         0.5000 
     36 O           4.6687  -17.5374  -39.4914 O.2       7 UNK        -0.5000 
     37 CA          3.3889  -15.6373  -40.2061 C.3       7 UNK         0.1400 
     38 CB          4.1519  -14.6672  -41.1214 C.3       7 UNK        -0.1800 
     39 N           1.9555  -15.5376  -40.4800 N.am      7 UNK        -0.5000 
     40 C           0.9926  -16.0768  -39.7192 C.2       6 UNK         0.5000 
     41 O           1.2072  -16.7118  -38.6866 O.2       6 UNK        -0.5000 
     42 CA         -0.4553  -15.8944  -40.2066 C.3       6 UNK         0.1400 
     43 CB         -0.9989  -14.5110  -39.8172 C.3       6 UNK        -0.1800 
     44 N          -0.5724  -16.0776  -41.6519 N.am      6 UNK        -0.5000 
     45 C          -0.4831  -17.2628  -42.2701 C.2       5 UNK         0.5000 
     46 O          -0.3334  -18.3339  -41.6847 O.2       5 UNK        -0.5000 
     47 CA         -0.5311  -17.2484  -43.8046 C.3       5 UNK         0.1400 
     48 CB         -1.9813  -17.3069  -44.2979 C.3       5 UNK        -0.1800 
     49 N           0.1415  -16.0890  -44.3934 N.am      5 UNK        -0.5000 
     50 C           1.4544  -15.8414  -44.2776 C.2       4 UNK         0.5000 
     51 O           2.2321  -16.5525  -43.6437 O.2       4 UNK        -0.5000 
     52 CA          1.9820  -14.5542  -44.9303 C.3       4 UNK         0.1400 
     53 CB          2.1232  -14.7335  -46.4489 C.3       4 UNK        -0.1800 
     54 N           1.1469  -13.3867  -44.6523 N.am      4 UNK        -0.5000 
     55 C           0.8451  -12.9030  -43.4410 C.2       3 UNK         0.5000 
     56 O           1.2406  -13.4081  -42.3901 O.2       3 UNK        -0.5000 
     57 CA         -0.0817  -11.6717  -43.3807 C.3       3 UNK         0.1400 
     58 CB          0.7102  -10.3655  -43.5788 C.3       3 UNK        -0.1800 
     59 N          -1.2447  -11.7487  -44.2776 N.am      3 UNK        -0.5000 
     60 C          -1.2769  -11.7425  -45.6174 C.2       2 UNK         0.5000 
     61 O          -0.2874  -11.5920  -46.3383 O.2       2 UNK        -0.5000 
     62 CA         -2.6539  -11.9899  -46.2598 C.3       2 UNK         0.1400 
     63 CB         -3.2360  -10.6790  -46.8099 C.3       2 UNK        -0.1800 
     64 N          -2.6081  -12.9845  -47.3350 N.am      2 UNK        -0.5000 
     65 C          -2.1435  -14.2372  -47.2207 C.2       1 UNK         0.5000 
     66 O          -1.6472  -14.6993  -46.1893 O.2       1 UNK        -0.5000 
     67 C          -1.3033  -21.8177  -47.5401 C.2       11 UNK         0.5000 
     68 O          -1.2280  -22.3950  -48.6231 O.2       11 UNK        -0.5000 
     69 N          -2.4260  -21.7771  -46.8105 N.am      12 UNK        -0.5000 
     70 CA         -3.6966  -22.4118  -47.1832 C.3       12 UNK         0.1400 
     71 CB         -4.7889  -21.9456  -46.2092 C.3       12 UNK        -0.1800 
     72 C          -3.6336  -23.9551  -47.2311 C.2       12 UNK         0.5000 
     73 O          -4.5275  -24.5835  -47.7980 O.2       12 UNK        -0.5000 
     74 N          -2.5811  -24.5322  -46.6363 N.am      13 UNK        -0.5000 
     75 CA         -2.2495  -25.9530  -46.6965 C.3       13 UNK         0.1400 
     76 CB         -1.4456  -26.3176  -45.4380 C.3       13 UNK        -0.1800 
     77 C          -1.4559  -26.3303  -47.9648 C.2       13 UNK         0.5000 
     78 O          -1.4351  -27.5095  -48.3195 O.2       13 UNK        -0.5000 
     79 N          -0.8032  -25.3535  -48.6167 N.am      14 UNK        -0.5000 
     80 CA         -0.0057  -25.5693  -49.8284 C.3       14 UNK         0.1400 
     81 CB          1.0075  -24.4254  -49.9986 C.3       14 UNK        -0.1800 
     82 C          -0.8967  -25.7007  -51.0748 C.2       14 UNK         0.5000 
     83 O          -0.6386  -26.5523  -51.9263 O.2       14 UNK        -0.5000 
     84 N          -1.9483  -24.8794  -51.1323 N.am      15 UNK        -0.5000 
     85 CA         -3.0243  -24.9225  -52.1123 C.3       15 UNK         0.1400 
     86 CB         -2.6036  -24.2019  -53.4029 C.3       15 UNK        -0.1800 
     87 C          -4.2424  -24.2523  -51.4656 C.2       15 UNK         0.5000 
     88 O          -4.0603  -23.3972  -50.5960 O.2       15 UNK        -0.5000 
     89 N          -5.4474  -24.6542  -51.8902 N.am      16 UNK        -0.5000 
     90 CA         -6.7466  -24.2627  -51.3313 C.3       16 UNK         0.1400 
     91 CB         -7.8600  -24.9092  -52.1729 C.3       16 UNK        -0.1800 
     92 C          -6.9448  -22.7367  -51.2169 C.2       16 UNK         0.5000 
     93 O          -7.2601  -22.0839  -52.2119 O.2       16 UNK        -0.5000 
     94 N          -6.7255  -22.2118  -50.0021 N.am      17 UNK        -0.5000 
     95 CA         -6.7445  -20.7924  -49.6231 C.3       17 UNK         0.1400 
     96 CB         -8.1522  -20.1873  -49.8059 C.3       17 UNK        -0.1800 
     97 C          -5.6376  -19.9423  -50.2900 C.2       17 UNK         0.5000 
     98 O          -5.7554  -18.7165  -50.3217 O.2       17 UNK        -0.5000 
     99 N          -4.5712  -20.6028  -50.7665 N.am      18 UNK        -0.5000 
    100 CA        -3.3901  -20.0484  -51.4313 C.3       18 UNK         0.1400 
    101 CB        -2.4840  -19.3572  -50.3932 C.3       18 UNK        -0.1800 
    102 C         -3.7405  -19.1552  -52.6438 C.2       18 UNK         0.5000 
    103 O         -4.6849  -19.4682  -53.3716 O.2       18 UNK        -0.5000 
    104 N         -2.9768  -18.0692  -52.8426 N.am      19 UNK        -0.5000 
    105 CA        -3.1933  -16.9867  -53.8076 C.3       19 UNK         0.1400 
    106 CB        -4.3262  -16.0663  -53.3034 C.3       19 UNK        -0.1800 
    107 C         -3.4015  -17.5007  -55.2466 C.2       19 UNK         0.5000 
    108 O         -2.4443  -17.9722  -55.8611 O.2       19 UNK        -0.5000 
    109 N         -4.6427  -17.4399  -55.7463 N.am      20 UNK        -0.5000 
    110 CA        -5.0502  -17.9183  -57.0682 C.3       20 UNK         0.1400 
    111 CB        -6.5064  -17.4989  -57.3211 C.3       20 UNK        -0.1800 
    112 C         -4.8840  -19.4384  -57.2713 C.2       20 UNK         0.5000 
    113 O         -4.7182  -19.8709  -58.4124 O.2       20 UNK        -0.5000 
    114 N         -4.9167  -20.2205  -56.1818 N.am      21 UNK        -0.5000 
    115 CA        -4.6602  -21.6616  -56.2081 C.3       21 UNK         0.1400 
    116 CB        -5.3117  -22.3220  -54.9834 C.3       21 UNK        -0.1800 
    117 C         -3.1534  -21.9790  -56.2741 C.2       21 UNK         0.5000 
    118 O         -2.7810  -23.0140  -56.8278 O.2       21 UNK        -0.5000 
    119 N         -2.3189  -21.0848  -55.7274 N.am      22 UNK        -0.5000 
    120 CA        -0.8538  -21.1298  -55.8448 C.3       22 UNK         0.1400 
    121 C         -0.3684  -20.5943  -57.2192 C.2       22 UNK         0.5000 
    122 N         -0.8939  -19.4733  -57.6968 N.am      22 UNK        -0.7600 
    123 O          0.4885  -21.2002  -57.8565 O.2       22 UNK        -0.5000 
    124 C124       -0.1598  -20.3685  -54.6874 C.3       23 UNK        -0.0398 
    125 S125       -0.3178  -21.2523  -53.0987 S.3       23 UNK        -0.2404 
    126 C126        1.3469  -21.0586  -52.3815 C.3       23 UNK        -0.0205 
    127 H127       -4.2297  -18.3019  -46.1295 H         1 UNK         0.0600 
    128 H128       -3.2481  -18.8817  -47.4772 H         1 UNK         0.0600 
    129 H129       -4.9855  -18.6472  -47.6826 H         1 UNK         0.0600 
    130 H130       -1.9546  -17.1850  -48.1893 H         1 UNK         0.3000 
    131 H131       -3.0047  -14.6972  -49.1363 H         1 UNK         0.0600 
    132 H132       -0.5090  -14.1150  -49.3617 H         1 UNK         0.0800 
    133 H133       -0.1452  -15.6796  -48.6725 H         1 UNK         0.0800 
    134 H134        0.8310  -16.0176  -52.4105 H         1 UNK         0.0800 
    135 H135        1.3379  -15.3657  -50.8754 H         1 UNK         0.0800 
    136 H136        0.6815  -18.4201  -52.7960 H         1 UNK         0.1150 
    137 H137        2.2367  -21.0816  -49.8183 H         1 UNK         0.1150 
    138 H138        1.8018  -16.9118  -48.9445 H         1 UNK         0.1150 
    139 H139        3.5401  -18.6688  -47.7099 H         1 UNK         0.0800 
    140 H140        2.9316  -20.3024  -47.7107 H         1 UNK         0.0800 
    141 H141       -0.3251  -19.3192  -48.0415 H         1 UNK         0.0800 
    142 H142       -0.8908  -19.2436  -46.4025 H         1 UNK         0.0800 
    143 H143        0.7841  -21.5126  -47.5695 H         1 UNK         0.0600 
    144 H144        1.0628  -22.3544  -45.5815 H         1 UNK         0.3000 
    145 H145       -0.6881  -23.0102  -42.9529 H         1 UNK         0.0600 
    146 H146        1.6761  -23.7526  -42.6141 H         1 UNK         0.0600 
    147 H147        1.2423  -23.8822  -44.3002 H         1 UNK         0.0600 
    148 H148        2.2475  -22.5372  -43.7458 H         1 UNK         0.0600 
    149 H149        0.4156  -20.4349  -42.3423 H         1 UNK         0.3000 
    150 H150        0.0394  -20.0248  -39.6724 H         1 UNK         0.0600 
    151 H151        0.5663  -21.7064  -37.9652 H         1 UNK         0.0600 
    152 H152        1.6982  -20.3705  -37.8284 H         1 UNK         0.0600 
    153 H153        2.2062  -21.8879  -38.5693 H         1 UNK         0.0600 
    154 H154        1.6147  -18.8649  -40.6917 H         1 UNK         0.3000 
    155 H155        4.9818  -19.2522  -41.5247 H         1 UNK         0.0600 
    156 H156        2.6479  -19.3089  -43.5159 H         1 UNK         0.0600 
    157 H157        4.0232  -20.4052  -43.5099 H         1 UNK         0.0600 
    158 H158        4.2656  -18.6993  -43.8556 H         1 UNK         0.0600 
    159 H159        2.9638  -17.2770  -42.1444 H         1 UNK         0.3000 
    160 H160        3.5552  -15.3269  -39.1724 H         1 UNK         0.0600 
    161 H161        4.0009  -14.9036  -42.1751 H         1 UNK         0.0600 
    162 H162        5.2241  -14.7057  -40.9253 H         1 UNK         0.0600 
    163 H163        3.8279  -13.6386  -40.9616 H         1 UNK         0.0600 
    164 H164        1.6870  -14.9901  -41.2922 H         1 UNK         0.3000 
    165 H165       -1.0717  -16.6495  -39.7138 H         1 UNK         0.0600 
    166 H166       -2.0416  -14.3993  -40.1148 H         1 UNK         0.0600 
    167 H167       -0.9521  -14.3654  -38.7373 H         1 UNK         0.0600 
    168 H168       -0.4297  -13.7047  -40.2803 H         1 UNK         0.0600 
    169 H169       -0.6442  -15.2443  -42.2165 H         1 UNK         0.3000 
    170 H170       -0.0195  -18.1481  -44.1476 H         1 UNK         0.0600 
    171 H171       -2.4958  -18.1844  -43.9038 H         1 UNK         0.0600 
    172 H172       -2.5477  -16.4243  -43.9987 H         1 UNK         0.0600 
    173 H173       -2.0122  -17.3711  -45.3833 H         1 UNK         0.0600 
    174 H174       -0.4344  -15.4653  -44.9546 H         1 UNK         0.3000 
    175 H175        2.9726  -14.3562  -44.5163 H         1 UNK         0.0600 
    176 H176        1.1522  -14.8663  -46.9239 H         1 UNK         0.0600 
    177 H177        2.6041  -13.8686  -46.9058 H         1 UNK         0.0600 
    178 H178        2.7292  -15.6091  -46.6865 H         1 UNK         0.0600 
    179 H179        0.7562  -12.8982  -45.4530 H         1 UNK         0.3000 
    180 H180       -0.4946  -11.6475  -42.3708 H         1 UNK         0.0600 
    181 H181        1.1932  -10.3210  -44.5551 H         1 UNK         0.0600 
    182 H182        1.4941  -10.2713  -42.8263 H         1 UNK         0.0600 
    183 H183        0.0627   -9.4938  -43.4843 H         1 UNK         0.0600 
    184 H184       -2.1218  -11.9018  -43.7994 H         1 UNK         0.3000 
    185 H185       -3.3339  -12.3735  -45.4964 H         1 UNK         0.0600 
    186 H186       -4.2412  -10.8268  -47.2050 H         1 UNK         0.0600 
    187 H187       -3.3041   -9.9226  -46.0268 H         1 UNK         0.0600 
    188 H188       -2.6169  -10.2688  -47.6089 H         1 UNK         0.0600 
    189 H189       -2.9743  -12.6828  -48.2258 H         1 UNK         0.3000 
    190 H190       -2.3832  -21.3250  -45.9013 H         1 UNK         0.3000 
    191 H191       -3.9600  -22.0679  -48.1851 H         1 UNK         0.0600 
    192 H192       -4.9024  -20.8624  -46.2294 H         1 UNK         0.0600 
    193 H193       -5.7568  -22.3768  -46.4682 H         1 UNK         0.0600 
    194 H194       -4.5622  -22.2392  -45.1835 H         1 UNK         0.0600 
    195 H195       -1.9185  -23.9329  -46.1698 H         1 UNK         0.3000 
    196 H196       -3.1718  -26.5380  -46.6947 H         1 UNK         0.0600 
    197 H197       -1.2020  -27.3809  -45.4244 H         1 UNK         0.0600 
    198 H198       -2.0131  -26.1047  -44.5319 H         1 UNK         0.0600 
    199 H199       -0.5065  -25.7654  -45.3842 H         1 UNK         0.0600 
    200 H200       -0.9224  -24.3905  -48.3265 H         1 UNK         0.3000 
    201 H201        0.5571  -26.4986  -49.7156 H         1 UNK         0.0600 
    202 H202        1.6263  -24.3069  -49.1092 H         1 UNK         0.0600 
    203 H203        0.5161  -23.4729  -50.1967 H         1 UNK         0.0600 
    204 H204        1.6760  -24.6236  -50.8372 H         1 UNK         0.0600 
    205 H205       -2.1029  -24.2103  -50.3859 H         1 UNK         0.3000 
    206 H206       -3.2634  -25.9653  -52.3307 H         1 UNK         0.0600 
    207 H207       -2.5528  -23.1225  -53.2617 H         1 UNK         0.0600 
    208 H208       -1.6295  -24.5386  -53.7576 H         1 UNK         0.0600 
    209 H209       -3.3179  -24.3971  -54.2015 H         1 UNK         0.0600 
    210 H210       -5.4864  -25.3383  -52.6312 H         1 UNK         0.3000 
    211 H211       -6.8052  -24.6879  -50.3272 H         1 UNK         0.0600 
    212 H212       -7.8130  -24.5911  -53.2153 H         1 UNK         0.0600 
    213 H213       -8.8454  -24.6384  -51.7913 H         1 UNK         0.0600 
    214 H214       -7.7922  -25.9970  -52.1504 H         1 UNK         0.0600 
    215 H215       -6.4206  -22.8455  -49.2756 H         1 UNK         0.3000 
    216 H216       -6.5226  -20.7710  -48.5554 H         1 UNK         0.0600 
    217 H217       -8.2108  -19.1924  -49.3632 H         1 UNK         0.0600 
    218 H218       -8.9122  -20.8007  -49.3220 H         1 UNK         0.0600 
    219 H219       -8.4177  -20.0899  -50.8588 H         1 UNK         0.0600 
    220 H220       -4.5716  -21.6173  -50.6913 H         1 UNK         0.3000 
    221 H221       -2.8550  -20.9110  -51.8260 H         1 UNK         0.0600 
    222 H222       -2.9145  -18.4154  -50.0564 H         1 UNK         0.0600 
    223 H223       -2.3398  -19.9906  -49.5208 H         1 UNK         0.0600 
    224 H224       -1.4955  -19.1506  -50.8010 H         1 UNK         0.0600 
    225 H225       -2.2117  -17.9146  -52.2011 H         1 UNK         0.3000 
    226 H226       -2.2747  -16.3985  -53.8270 H         1 UNK         0.0600 
    227 H227       -4.0667  -15.6304  -52.3383 H         1 UNK         0.0600 
    228 H228       -4.5007  -15.2381  -53.9914 H         1 UNK         0.0600 
    229 H229       -5.2671  -16.6029  -53.1744 H         1 UNK         0.0600 
    230 H230       -5.3753  -17.0759  -55.1549 H         1 UNK         0.3000 
    231 H231       -4.4186  -17.4220  -57.8079 H         1 UNK         0.0600 
    232 H232       -7.1846  -17.9443  -56.5921 H         1 UNK         0.0600 
    233 H233       -6.8374  -17.8124  -58.3121 H         1 UNK         0.0600 
    234 H234       -6.6205  -16.4159  -57.2699 H         1 UNK         0.0600 
    235 H235       -5.0330  -19.7985  -55.2637 H         1 UNK         0.3000 
    236 H236       -5.1295  -22.0839  -57.0992 H         1 UNK         0.0600 
    237 H237       -6.3629  -22.0462  -54.8982 H         1 UNK         0.0600 
    238 H238       -5.2716  -23.4083  -55.0603 H         1 UNK         0.0600 
    239 H239       -4.8176  -22.0387  -54.0536 H         1 UNK         0.0600 
    240 H240       -2.7083  -20.2340  -55.3482 H         1 UNK         0.3000 
    241 H241       -0.5373  -22.1737  -55.7876 H         1 UNK         0.0600 
    242 H242       -1.5444  -18.9305  -57.1327 H         1 UNK         0.3800 
    243 H243       -0.5894  -19.1200  -58.5896 H         1 UNK         0.3800 
    244 H244       -0.5772  -19.3673  -54.5771 H         1 UNK         0.0800 
    245 H245        0.8992  -20.2293  -54.9097 H         1 UNK         0.0800 
    246 H246        2.1009  -20.9520  -53.1614 H         1 UNK         0.0800 
    247 H247        1.5882  -21.9880  -51.8647 H         1 UNK         0.0800 
@<TRIPOS>BOND
     1    1    2 1    
     2    1  127 1    
     3    1  128 1    
     4    1  129 1    
     5    2    3 2    
     6    2    4 am   BACKBONE|DICT|INTERRES
     7    4    5 1    
     8    4  130 1    
     9    5    6 1    
    10    5   65 1    
    11    5  131 1    
    12    6    7 1    
    13    6  132 1    
    14    6  133 1    
    15    7    8 1    
    16    8    9 1    
    17    8  134 1    
    18    8  135 1    
    19    9   10 ar   
    20    9   14 ar   
    21   10   11 ar   
    22   10  136 1    
    23   11   12 ar   
    24   11  126 1    
    25   12   13 ar   
    26   12  137 1    
    27   13   14 ar   
    28   13   15 1    
    29   14  138 1    
    30   15   16 1    
    31   15  139 1    
    32   15  140 1    
    33   16   17 1    
    34   17   18 1    
    35   17  141 1    
    36   17  142 1    
    37   18   19 1    
    38   18   67 1    
    39   18  143 1    
    40   19   20 am   BACKBONE|DICT|INTERRES
    41   19  144 1    
    42   20   21 2    
    43   20   22 1    
    44   22   23 1    
    45   22   24 1    
    46   22  145 1    
    47   23  146 1    
    48   23  147 1    
    49   23  148 1    
    50   24   25 am   BACKBONE|DICT|INTERRES
    51   24  149 1    
    52   25   26 2    
    53   25   27 1    
    54   27   28 1    
    55   27   29 1    
    56   27  150 1    
    57   28  151 1    
    58   28  152 1    
    59   28  153 1    
    60   29   30 am   BACKBONE|DICT|INTERRES
    61   29  154 1    
    62   30   31 2    
    63   30   32 1    
    64   32   33 1    
    65   32   34 1    
    66   32  155 1    
    67   33  156 1    
    68   33  157 1    
    69   33  158 1    
    70   34   35 am   BACKBONE|DICT|INTERRES
    71   34  159 1    
    72   35   36 2    
    73   35   37 1    
    74   37   38 1    
    75   37   39 1    
    76   37  160 1    
    77   38  161 1    
    78   38  162 1    
    79   38  163 1    
    80   39   40 am   BACKBONE|DICT|INTERRES
    81   39  164 1    
    82   40   41 2    
    83   40   42 1    
    84   42   43 1    
    85   42   44 1    
    86   42  165 1    
    87   43  166 1    
    88   43  167 1    
    89   43  168 1    
    90   44   45 am   BACKBONE|DICT|INTERRES
    91   44  169 1    
    92   45   46 2    
    93   45   47 1    
    94   47   48 1    
    95   47   49 1    
    96   47  170 1    
    97   48  171 1    
    98   48  172 1    
    99   48  173 1    
   100   49   50 am   BACKBONE|DICT|INTERRES
   101   49  174 1    
   102   50   51 2    
   103   50   52 1    
   104   52   53 1    
   105   52   54 1    
   106   52  175 1    
   107   53  176 1    
   108   53  177 1    
   109   53  178 1    
   110   54   55 am   BACKBONE|DICT|INTERRES
   111   54  179 1    
   112   55   56 2    
   113   55   57 1    
   114   57   58 1    
   115   57   59 1    
   116   57  180 1    
   117   58  181 1    
   118   58  182 1    
   119   58  183 1    
   120   59   60 am   BACKBONE|DICT|INTERRES
   121   59  184 1    
   122   60   61 2    
   123   60   62 1    
   124   62   63 1    
   125   62   64 1    
   126   62  185 1    
   127   63  186 1    
   128   63  187 1    
   129   63  188 1    
   130   64   65 am   BACKBONE|DICT|INTERRES
   131   64  189 1    
   132   65   66 2    
   133   67   68 2    
   134   67   69 am   BACKBONE|DICT|INTERRES
   135   69   70 1    
   136   69  190 1    
   137   70   71 1    
   138   70   72 1    
   139   70  191 1    
   140   71  192 1    
   141   71  193 1    
   142   71  194 1    
   143   72   73 2    
   144   72   74 am   BACKBONE|DICT|INTERRES
   145   74   75 1    
   146   74  195 1    
   147   75   76 1    
   148   75   77 1    
   149   75  196 1    
   150   76  197 1    
   151   76  198 1    
   152   76  199 1    
   153   77   78 2    
   154   77   79 am   BACKBONE|DICT|INTERRES
   155   79   80 1    
   156   79  200 1    
   157   80   81 1    
   158   80   82 1    
   159   80  201 1    
   160   81  202 1    
   161   81  203 1    
   162   81  204 1    
   163   82   83 2    
   164   82   84 am   BACKBONE|DICT|INTERRES
   165   84   85 1    
   166   84  205 1    
   167   85   86 1    
   168   85   87 1    
   169   85  206 1    
   170   86  207 1    
   171   86  208 1    
   172   86  209 1    
   173   87   88 2    
   174   87   89 am   BACKBONE|DICT|INTERRES
   175   89   90 1    
   176   89  210 1    
   177   90   91 1    
   178   90   92 1    
   179   90  211 1    
   180   91  212 1    
   181   91  213 1    
   182   91  214 1    
   183   92   93 2    
   184   92   94 am   BACKBONE|DICT|INTERRES
   185   94   95 1    
   186   94  215 1    
   187   95   96 1    
   188   95   97 1    
   189   95  216 1    
   190   96  217 1    
   191   96  218 1    
   192   96  219 1    
   193   97   98 2    
   194   97   99 am   BACKBONE|DICT|INTERRES
   195   99  100 1    
   196   99  220 1    
   197  100  101 1    
   198  100  102 1    
   199  100  221 1    
   200  101  222 1    
   201  101  223 1    
   202  101  224 1    
   203  102  103 2    
   204  102  104 am   BACKBONE|DICT|INTERRES
   205  104  105 1    
   206  104  225 1    
   207  105  106 1    
   208  105  107 1    
   209  105  226 1    
   210  106  227 1    
   211  106  228 1    
   212  106  229 1    
   213  107  108 2    
   214  107  109 am   BACKBONE|DICT|INTERRES
   215  109  110 1    
   216  109  230 1    
   217  110  111 1    
   218  110  112 1    
   219  110  231 1    
   220  111  232 1    
   221  111  233 1    
   222  111  234 1    
   223  112  113 2    
   224  112  114 am   BACKBONE|DICT|INTERRES
   225  114  115 1    
   226  114  235 1    
   227  115  116 1    
   228  115  117 1    
   229  115  236 1    
   230  116  237 1    
   231  116  238 1    
   232  116  239 1    
   233  117  118 2    
   234  117  119 am   BACKBONE|DICT|INTERRES
   235  119  120 1    
   236  119  240 1    
   237  120  121 1    
   238  120  124 1    
   239  120  241 1    
   240  121  122 am   BACKBONE|DICT|INTERRES
   241  121  123 2    
   242  122  242 1    
   243  122  243 1    
   244  124  125 1    
   245  124  244 1    
   246  124  245 1    
   247  125  126 1    
   248  126  246 1    
   249  126  247 1    
@<TRIPOS>SUBSTRUCTURE
     1 UNK         1 GROUP             0       ****    0 ROOT    
