@<TRIPOS>MOLECULE
3R540
247   249    1
SMALL
USER_CHARGES


@<TRIPOS>ATOM
      1 CA         -1.5108  -13.8826  -50.4562 C.3       0 UNK        -0.1800 
      2 C          -0.2894  -13.7798  -49.5526 C.2       0 UNK         0.5000 
      3 O           0.8396  -13.7864  -50.0427 O.2       0 UNK        -0.5000 
      4 N          -0.5127  -13.6839  -48.2360 N.am      1 UNK        -0.5000 
      5 CA          0.5388  -13.6366  -47.2087 C.3       1 UNK         0.1400 
      6 C6          0.0355  -14.1408  -45.8320 C.3       23 UNK        -0.0398 
      7 S7         -0.6840  -15.8151  -45.9121 S.3       23 UNK        -0.2404 
      8 C8         -2.4490  -15.4135  -45.7421 C.3       23 UNK        -0.0205 
      9 C9         -3.3288  -16.4658  -46.3919 C.ar      23 UNK        -0.0193 
     10 C10        -3.4896  -16.4792  -47.7801 C.ar      23 UNK        -0.1150 
     11 C11        -4.3377  -17.4080  -48.3874 C.ar      23 UNK        -0.0193 
     12 C12        -5.0266  -18.3312  -47.5950 C.ar      23 UNK        -0.1150 
     13 C13        -4.8707  -18.3285  -46.2054 C.ar      23 UNK        -0.0193 
     14 C14        -4.0155  -17.3968  -45.6096 C.ar      23 UNK        -0.1150 
     15 C15        -5.6531  -19.3070  -45.3425 C.3       23 UNK        -0.0205 
     16 S16        -5.0764  -21.0213  -45.5316 S.3       23 UNK        -0.2404 
     17 C17        -3.3541  -20.9228  -44.9350 C.3       23 UNK        -0.0398 
     18 CA         -2.3311  -21.2943  -46.0363 C.3       11 UNK         0.1400 
     19 N          -0.9929  -20.7768  -45.7353 N.am      11 UNK        -0.5000 
     20 C           0.0710  -20.8651  -46.5473 C.2       10 UNK         0.5000 
     21 O           0.0260  -21.3206  -47.6883 O.2       10 UNK        -0.5000 
     22 CA          1.4301  -20.4554  -45.9535 C.3       10 UNK         0.1400 
     23 CB          1.6562  -18.9384  -46.0563 C.3       10 UNK        -0.1800 
     24 N           1.5580  -20.9091  -44.5657 N.am      10 UNK        -0.5000 
     25 C           1.7175  -22.1960  -44.2182 C.2       9 UNK         0.5000 
     26 O           1.8772  -23.1014  -45.0358 O.2       9 UNK        -0.5000 
     27 CA          1.6197  -22.5508  -42.7226 C.3       9 UNK         0.1400 
     28 CB          3.0022  -22.6346  -42.0639 C.3       9 UNK        -0.1800 
     29 N           0.7711  -21.6179  -41.9823 N.am      9 UNK        -0.5000 
     30 C          -0.5676  -21.6343  -42.0434 C.2       8 UNK         0.5000 
     31 O          -1.2047  -22.4588  -42.6991 O.2       8 UNK        -0.5000 
     32 CA         -1.3201  -20.5167  -41.2961 C.3       8 UNK         0.1400 
     33 CB         -1.5973  -20.9307  -39.8438 C.3       8 UNK        -0.1800 
     34 N          -0.6148  -19.2329  -41.3077 N.am      8 UNK        -0.5000 
     35 C          -0.3110  -18.5390  -42.4128 C.2       7 UNK         0.5000 
     36 O          -0.6188  -18.9139  -43.5437 O.2       7 UNK        -0.5000 
     37 CA          0.4934  -17.2330  -42.2407 C.3       7 UNK         0.1400 
     38 CB          0.4325  -16.6511  -40.8119 C.3       7 UNK        -0.1800 
     39 N           1.8927  -17.3624  -42.6664 N.am      7 UNK        -0.5000 
     40 C           2.8005  -18.2639  -42.2556 C.2       6 UNK         0.5000 
     41 O           2.5362  -19.1991  -41.4990 O.2       6 UNK        -0.5000 
     42 CA          4.2490  -18.1025  -42.7692 C.3       6 UNK         0.1400 
     43 CB          4.7688  -19.3832  -43.4425 C.3       6 UNK        -0.1800 
     44 N           4.3951  -16.9917  -43.7125 N.am      6 UNK        -0.5000 
     45 C           4.7978  -15.7578  -43.3857 C.2       5 UNK         0.5000 
     46 O           5.1198  -15.4275  -42.2417 O.2       5 UNK        -0.5000 
     47 CA          4.8778  -14.7247  -44.5326 C.3       5 UNK         0.1400 
     48 CB          3.9926  -15.0772  -45.7509 C.3       5 UNK        -0.1800 
     49 N           4.6026  -13.3576  -44.0784 N.am      5 UNK        -0.5000 
     50 C           3.4868  -12.9072  -43.4863 C.2       4 UNK         0.5000 
     51 O           2.5053  -13.6127  -43.2416 O.2       4 UNK        -0.5000 
     52 CA          3.4463  -11.4167  -43.1038 C.3       4 UNK         0.1400 
     53 CB          4.6599  -10.5911  -43.5821 C.3       4 UNK        -0.1800 
     54 N           2.2227  -10.8384  -43.6457 N.am      4 UNK        -0.5000 
     55 C           1.4815   -9.8901  -43.0605 C.2       3 UNK         0.5000 
     56 O           1.7681   -9.3837  -41.9739 O.2       3 UNK        -0.5000 
     57 CA          0.1957   -9.4448  -43.7968 C.3       3 UNK         0.1400 
     58 CB         -0.1743   -7.9729  -43.5157 C.3       3 UNK        -0.1800 
     59 N           0.2084   -9.7178  -45.2403 N.am      3 UNK        -0.5000 
     60 C           1.0373   -9.2054  -46.1642 C.2       2 UNK         0.5000 
     61 O           1.8892   -8.3483  -45.9242 O.2       2 UNK        -0.5000 
     62 CA          0.8933   -9.7799  -47.5928 C.3       2 UNK         0.1400 
     63 CB          2.1546   -9.5582  -48.4537 C.3       2 UNK        -0.1800 
     64 N           0.5014  -11.1980  -47.6170 N.am      2 UNK        -0.5000 
     65 C           1.1588  -12.2297  -47.0605 C.2       1 UNK         0.5000 
     66 O           2.1961  -12.1001  -46.4117 O.2       1 UNK        -0.5000 
     67 C          -2.3095  -22.8186  -46.2903 C.2       11 UNK         0.5000 
     68 O          -2.9003  -23.2831  -47.2666 O.2       11 UNK        -0.5000 
     69 N          -1.5965  -23.5630  -45.4310 N.am      12 UNK        -0.5000 
     70 CA         -1.3901  -25.0062  -45.5572 C.3       12 UNK         0.1400 
     71 CB         -0.7095  -25.5498  -44.2928 C.3       12 UNK        -0.1800 
     72 C          -0.5926  -25.3852  -46.8185 C.2       12 UNK         0.5000 
     73 O          -0.9940  -26.3079  -47.5273 O.2       12 UNK        -0.5000 
     74 N           0.4864  -24.6427  -47.1092 N.am      13 UNK        -0.5000 
     75 CA          1.3001  -24.7944  -48.3207 C.3       13 UNK         0.1400 
     76 CB          2.5474  -23.9041  -48.2194 C.3       13 UNK        -0.1800 
     77 C           0.5177  -24.4923  -49.6143 C.2       13 UNK         0.5000 
     78 O           0.7251  -25.1653  -50.6239 O.2       13 UNK        -0.5000 
     79 N          -0.4023  -23.5218  -49.5429 N.am      14 UNK        -0.5000 
     80 CA         -1.3597  -23.1782  -50.5940 C.3       14 UNK         0.1400 
     81 CB         -1.8480  -21.7394  -50.3687 C.3       14 UNK        -0.1800 
     82 C          -2.5581  -24.1467  -50.6825 C.2       14 UNK         0.5000 
     83 O          -3.4350  -23.9269  -51.5181 O.2       14 UNK        -0.5000 
     84 N          -2.6045  -25.1775  -49.8245 N.am      15 UNK        -0.5000 
     85 CA         -3.6483  -26.2021  -49.7266 C.3       15 UNK         0.1400 
     86 CB         -3.6299  -27.1094  -50.9750 C.3       15 UNK        -0.1800 
     87 C          -5.0388  -25.6022  -49.4352 C.2       15 UNK         0.5000 
     88 O          -6.0250  -25.9981  -50.0565 O.2       15 UNK        -0.5000 
     89 N          -5.0793  -24.6228  -48.5196 N.am      16 UNK        -0.5000 
     90 CA         -6.2427  -23.8065  -48.1594 C.3       16 UNK         0.1400 
     91 CB         -7.3401  -24.6573  -47.4861 C.3       16 UNK        -0.1800 
     92 C          -6.7512  -22.9726  -49.3538 C.2       16 UNK         0.5000 
     93 O          -7.9539  -22.9257  -49.6152 O.2       16 UNK        -0.5000 
     94 N          -5.7969  -22.3503  -50.0627 N.am      17 UNK        -0.5000 
     95 CA         -5.9473  -21.5021  -51.2523 C.3       17 UNK         0.1400 
     96 CB         -6.9227  -20.3345  -50.9880 C.3       17 UNK        -0.1800 
     97 C          -6.3021  -22.2601  -52.5489 C.2       17 UNK         0.5000 
     98 O          -6.5265  -21.6134  -53.5731 O.2       17 UNK        -0.5000 
     99 N          -6.3430  -23.5988  -52.5098 N.am      18 UNK        -0.5000 
    100 CA        -6.6682  -24.4403  -53.6604 C.3       18 UNK         0.1400 
    101 CB        -7.0878  -25.8352  -53.1750 C.3       18 UNK        -0.1800 
    102 C         -5.5153  -24.5505  -54.6737 C.2       18 UNK         0.5000 
    103 O         -5.7788  -24.6303  -55.8746 O.2       18 UNK        -0.5000 
    104 N         -4.2649  -24.5606  -54.1916 N.am      19 UNK        -0.5000 
    105 CA        -3.0738  -24.6674  -55.0303 C.3       19 UNK         0.1400 
    106 CB        -1.8993  -25.2207  -54.2088 C.3       19 UNK        -0.1800 
    107 C         -2.7324  -23.2955  -55.6283 C.2       19 UNK         0.5000 
    108 O         -2.5412  -22.3358  -54.8777 O.2       19 UNK        -0.5000 
    109 N         -2.6892  -23.2293  -56.9671 N.am      20 UNK        -0.5000 
    110 CA        -2.3296  -22.0688  -57.7978 C.3       20 UNK         0.1400 
    111 CB        -0.8315  -21.7427  -57.6231 C.3       20 UNK        -0.1800 
    112 C         -3.2175  -20.8183  -57.5954 C.2       20 UNK         0.5000 
    113 O         -2.8199  -19.7243  -57.9977 O.2       20 UNK        -0.5000 
    114 N         -4.3938  -21.0011  -56.9753 N.am      21 UNK        -0.5000 
    115 CA        -5.3027  -19.9637  -56.4753 C.3       21 UNK         0.1400 
    116 CB        -5.9169  -19.1508  -57.6349 C.3       21 UNK        -0.1800 
    117 C         -4.6571  -19.0799  -55.3815 C.2       21 UNK         0.5000 
    118 O         -4.9566  -17.8868  -55.2997 O.2       21 UNK        -0.5000 
    119 N         -3.7968  -19.6890  -54.5520 N.am      22 UNK        -0.5000 
    120 CA        -3.0170  -19.0574  -53.4770 C.3       22 UNK         0.1400 
    121 C         -1.8164  -18.2028  -53.9861 C.2       22 UNK         0.5000 
    122 N         -1.1150  -17.5146  -53.0952 N.am      22 UNK        -0.7600 
    123 O         -1.4841  -18.1760  -55.1686 O.2       22 UNK        -0.5000 
    124 C124       -3.9142  -18.3096  -52.4461 C.3       23 UNK        -0.0398 
    125 S125       -3.3282  -18.4685  -50.7280 S.3       23 UNK        -0.2404 
    126 C126       -4.5290  -17.3909  -49.8945 C.3       23 UNK        -0.0205 
    127 H127       -2.4397  -13.7522  -49.9004 H         1 UNK         0.0600 
    128 H128       -1.5381  -14.8593  -50.9398 H         1 UNK         0.0600 
    129 H129       -1.4704  -13.1177  -51.2318 H         1 UNK         0.0600 
    130 H130       -1.4616  -13.6910  -47.8936 H         1 UNK         0.3000 
    131 H131        1.3481  -14.3004  -47.5213 H         1 UNK         0.0600 
    132 H132       -0.6871  -13.4463  -45.4002 H         1 UNK         0.0800 
    133 H133        0.8604  -14.1830  -45.1223 H         1 UNK         0.0800 
    134 H134       -2.6662  -14.4495  -46.2032 H         1 UNK         0.0800 
    135 H135       -2.6889  -15.3061  -44.6831 H         1 UNK         0.0800 
    136 H136       -2.9589  -15.7610  -48.3881 H         1 UNK         0.1150 
    137 H137       -5.6886  -19.0501  -48.0556 H         1 UNK         0.1150 
    138 H138       -3.8961  -17.3844  -44.5353 H         1 UNK         0.1150 
    139 H139       -5.6007  -19.0266  -44.2893 H         1 UNK         0.0800 
    140 H140       -6.7077  -19.2592  -45.6173 H         1 UNK         0.0800 
    141 H141       -3.2542  -21.5676  -44.0613 H         1 UNK         0.0800 
    142 H142       -3.1600  -19.9130  -44.5729 H         1 UNK         0.0800 
    143 H143       -2.6403  -20.8101  -46.9655 H         1 UNK         0.0600 
    144 H144       -0.8720  -20.3119  -44.8402 H         1 UNK         0.3000 
    145 H145        2.2087  -20.9424  -46.5443 H         1 UNK         0.0600 
    146 H146        2.6535  -18.6606  -45.7201 H         1 UNK         0.0600 
    147 H147        1.5613  -18.6033  -47.0899 H         1 UNK         0.0600 
    148 H148        0.9351  -18.3728  -45.4696 H         1 UNK         0.0600 
    149 H149        1.3589  -20.2328  -43.8429 H         1 UNK         0.3000 
    150 H150        1.1752  -23.5458  -42.6587 H         1 UNK         0.0600 
    151 H151        3.6820  -23.2566  -42.6478 H         1 UNK         0.0600 
    152 H152        2.9328  -23.0743  -41.0689 H         1 UNK         0.0600 
    153 H153        3.4573  -21.6536  -41.9572 H         1 UNK         0.0600 
    154 H154        1.2388  -20.8727  -41.4768 H         1 UNK         0.3000 
    155 H155       -2.2786  -20.3735  -41.7993 H         1 UNK         0.0600 
    156 H156       -0.6734  -21.0598  -39.2785 H         1 UNK         0.0600 
    157 H157       -2.1415  -21.8753  -39.8043 H         1 UNK         0.0600 
    158 H158       -2.2048  -20.1854  -39.3299 H         1 UNK         0.0600 
    159 H159       -0.3002  -18.8787  -40.4162 H         1 UNK         0.3000 
    160 H160        0.0327  -16.5054  -42.9106 H         1 UNK         0.0600 
    161 H161        0.9422  -17.2841  -40.0847 H         1 UNK         0.0600 
    162 H162       -0.5989  -16.5221  -40.4811 H         1 UNK         0.0600 
    163 H163        0.9041  -15.6687  -40.7765 H         1 UNK         0.0600 
    164 H164        2.2151  -16.6402  -43.2940 H         1 UNK         0.3000 
    165 H165        4.8742  -17.9213  -41.8926 H         1 UNK         0.0600 
    166 H166        4.9106  -20.1741  -42.7083 H         1 UNK         0.0600 
    167 H167        4.0893  -19.7544  -44.2082 H         1 UNK         0.0600 
    168 H168        5.7393  -19.2173  -43.9105 H         1 UNK         0.0600 
    169 H169        4.1662  -17.1854  -44.6765 H         1 UNK         0.3000 
    170 H170        5.9158  -14.7267  -44.8679 H         1 UNK         0.0600 
    171 H171        4.3361  -15.9864  -46.2451 H         1 UNK         0.0600 
    172 H172        2.9507  -15.2255  -45.4682 H         1 UNK         0.0600 
    173 H173        4.0218  -14.2835  -46.4976 H         1 UNK         0.0600 
    174 H174        5.3565  -12.6993  -44.2123 H         1 UNK         0.3000 
    175 H175        3.4151  -11.3853  -42.0129 H         1 UNK         0.0600 
    176 H176        4.7486  -10.5977  -44.6695 H         1 UNK         0.0600 
    177 H177        4.5706   -9.5510  -43.2679 H         1 UNK         0.0600 
    178 H178        5.5919  -10.9695  -43.1607 H         1 UNK         0.0600 
    179 H179        1.9339  -11.2189  -44.5405 H         1 UNK         0.3000 
    180 H180       -0.6041  -10.0624  -43.3859 H         1 UNK         0.0600 
    181 H181        0.6184   -7.2894  -43.8205 H         1 UNK         0.0600 
    182 H182       -0.3524   -7.8100  -42.4522 H         1 UNK         0.0600 
    183 H183       -1.0851   -7.6873  -44.0419 H         1 UNK         0.0600 
    184 H184       -0.4554  -10.4113  -45.5536 H         1 UNK         0.3000 
    185 H185        0.0762   -9.2270  -48.0582 H         1 UNK         0.0600 
    186 H186        3.0329  -10.0315  -48.0133 H         1 UNK         0.0600 
    187 H187        2.0231   -9.9640  -49.4568 H         1 UNK         0.0600 
    188 H188        2.3749   -8.4956  -48.5615 H         1 UNK         0.0600 
    189 H189       -0.3473  -11.4086  -48.1230 H         1 UNK         0.3000 
    190 H190       -1.1977  -23.1153  -44.6127 H         1 UNK         0.3000 
    191 H191       -2.3749  -25.4719  -45.6350 H         1 UNK         0.0600 
    192 H192        0.3002  -25.1576  -44.1768 H         1 UNK         0.0600 
    193 H193       -0.6335  -26.6371  -44.3308 H         1 UNK         0.0600 
    194 H194       -1.2753  -25.2940  -43.3967 H         1 UNK         0.0600 
    195 H195        0.7885  -23.9338  -46.4476 H         1 UNK         0.3000 
    196 H196        1.6292  -25.8343  -48.3701 H         1 UNK         0.0600 
    197 H197        3.1864  -24.0261  -49.0948 H         1 UNK         0.0600 
    198 H198        3.1440  -24.1588  -47.3432 H         1 UNK         0.0600 
    199 H199        2.2838  -22.8488  -48.1501 H         1 UNK         0.0600 
    200 H200       -0.4531  -22.9655  -48.6946 H         1 UNK         0.3000 
    201 H201       -0.8457  -23.2108  -51.5562 H         1 UNK         0.0600 
    202 H202       -1.0166  -21.0344  -50.3680 H         1 UNK         0.0600 
    203 H203       -2.3754  -21.6338  -49.4204 H         1 UNK         0.0600 
    204 H204       -2.5306  -21.4315  -51.1599 H         1 UNK         0.0600 
    205 H205       -1.8568  -25.2664  -49.1469 H         1 UNK         0.3000 
    206 H206       -3.3959  -26.8203  -48.8643 H         1 UNK         0.0600 
    207 H207       -4.3223  -27.9443  -50.8623 H         1 UNK         0.0600 
    208 H208       -2.6382  -27.5306  -51.1401 H         1 UNK         0.0600 
    209 H209       -3.9164  -26.5672  -51.8761 H         1 UNK         0.0600 
    210 H210       -4.2031  -24.3262  -48.0928 H         1 UNK         0.3000 
    211 H211       -5.8891  -23.0900  -47.4190 H         1 UNK         0.0600 
    212 H212       -6.9391  -25.2212  -46.6440 H         1 UNK         0.0600 
    213 H213       -7.7929  -25.3655  -48.1802 H         1 UNK         0.0600 
    214 H214       -8.1395  -24.0236  -47.1006 H         1 UNK         0.0600 
    215 H215       -4.8404  -22.5190  -49.7850 H         1 UNK         0.3000 
    216 H216       -4.9614  -21.0715  -51.4279 H         1 UNK         0.0600 
    217 H217       -6.9085  -19.6123  -51.8036 H         1 UNK         0.0600 
    218 H218       -6.6631  -19.8025  -50.0745 H         1 UNK         0.0600 
    219 H219       -7.9529  -20.6772  -50.8935 H         1 UNK         0.0600 
    220 H220       -6.1153  -24.0696  -51.6445 H         1 UNK         0.3000 
    221 H221       -7.5228  -23.9975  -54.1766 H         1 UNK         0.0600 
    222 H222       -6.2602  -26.3617  -52.6994 H         1 UNK         0.0600 
    223 H223       -7.9053  -25.7758  -52.4561 H         1 UNK         0.0600 
    224 H224       -7.4294  -26.4505  -54.0082 H         1 UNK         0.0600 
    225 H225       -4.1072  -24.3931  -53.2001 H         1 UNK         0.3000 
    226 H226       -3.2734  -25.3775  -55.8359 H         1 UNK         0.0600 
    227 H227       -2.1624  -26.1579  -53.7185 H         1 UNK         0.0600 
    228 H228       -1.0393  -25.4176  -54.8497 H         1 UNK         0.0600 
    229 H229       -1.5750  -24.5189  -53.4421 H         1 UNK         0.0600 
    230 H230       -2.9088  -24.0686  -57.4861 H         1 UNK         0.3000 
    231 H231       -2.4818  -22.3781  -58.8327 H         1 UNK         0.0600 
    232 H232       -0.2133  -22.6265  -57.7803 H         1 UNK         0.0600 
    233 H233       -0.6177  -21.3557  -56.6260 H         1 UNK         0.0600 
    234 H234       -0.5051  -20.9901  -58.3418 H         1 UNK         0.0600 
    235 H235       -4.6246  -21.9458  -56.7008 H         1 UNK         0.3000 
    236 H236       -6.1208  -20.4938  -55.9867 H         1 UNK         0.0600 
    237 H237       -6.7112  -18.4970  -57.2730 H         1 UNK         0.0600 
    238 H238       -5.1770  -18.5199  -58.1277 H         1 UNK         0.0600 
    239 H239       -6.3556  -19.8060  -58.3874 H         1 UNK         0.0600 
    240 H240       -3.5537  -20.6581  -54.7357 H         1 UNK         0.3000 
    241 H241       -2.5557  -19.9086  -52.9767 H         1 UNK         0.0600 
    242 H242       -0.3265  -16.9681  -53.4042 H         1 UNK         0.3800 
    243 H243       -1.3574  -17.5394  -52.1161 H         1 UNK         0.3800 
    244 H244       -4.0164  -17.2542  -52.7057 H         1 UNK         0.0800 
    245 H245       -4.9251  -18.7128  -52.4698 H         1 UNK         0.0800 
    246 H246       -5.5429  -17.7044  -50.1447 H         1 UNK         0.0800 
    247 H247       -4.4223  -16.3729  -50.2727 H         1 UNK         0.0800 
@<TRIPOS>BOND
     1    1    2 1    
     2    1  127 1    
     3    1  128 1    
     4    1  129 1    
     5    2    3 2    
     6    2    4 am   BACKBONE|DICT|INTERRES
     7    4    5 1    
     8    4  130 1    
     9    5    6 1    
    10    5   65 1    
    11    5  131 1    
    12    6    7 1    
    13    6  132 1    
    14    6  133 1    
    15    7    8 1    
    16    8    9 1    
    17    8  134 1    
    18    8  135 1    
    19    9   10 ar   
    20    9   14 ar   
    21   10   11 ar   
    22   10  136 1    
    23   11   12 ar   
    24   11  126 1    
    25   12   13 ar   
    26   12  137 1    
    27   13   14 ar   
    28   13   15 1    
    29   14  138 1    
    30   15   16 1    
    31   15  139 1    
    32   15  140 1    
    33   16   17 1    
    34   17   18 1    
    35   17  141 1    
    36   17  142 1    
    37   18   19 1    
    38   18   67 1    
    39   18  143 1    
    40   19   20 am   BACKBONE|DICT|INTERRES
    41   19  144 1    
    42   20   21 2    
    43   20   22 1    
    44   22   23 1    
    45   22   24 1    
    46   22  145 1    
    47   23  146 1    
    48   23  147 1    
    49   23  148 1    
    50   24   25 am   BACKBONE|DICT|INTERRES
    51   24  149 1    
    52   25   26 2    
    53   25   27 1    
    54   27   28 1    
    55   27   29 1    
    56   27  150 1    
    57   28  151 1    
    58   28  152 1    
    59   28  153 1    
    60   29   30 am   BACKBONE|DICT|INTERRES
    61   29  154 1    
    62   30   31 2    
    63   30   32 1    
    64   32   33 1    
    65   32   34 1    
    66   32  155 1    
    67   33  156 1    
    68   33  157 1    
    69   33  158 1    
    70   34   35 am   BACKBONE|DICT|INTERRES
    71   34  159 1    
    72   35   36 2    
    73   35   37 1    
    74   37   38 1    
    75   37   39 1    
    76   37  160 1    
    77   38  161 1    
    78   38  162 1    
    79   38  163 1    
    80   39   40 am   BACKBONE|DICT|INTERRES
    81   39  164 1    
    82   40   41 2    
    83   40   42 1    
    84   42   43 1    
    85   42   44 1    
    86   42  165 1    
    87   43  166 1    
    88   43  167 1    
    89   43  168 1    
    90   44   45 am   BACKBONE|DICT|INTERRES
    91   44  169 1    
    92   45   46 2    
    93   45   47 1    
    94   47   48 1    
    95   47   49 1    
    96   47  170 1    
    97   48  171 1    
    98   48  172 1    
    99   48  173 1    
   100   49   50 am   BACKBONE|DICT|INTERRES
   101   49  174 1    
   102   50   51 2    
   103   50   52 1    
   104   52   53 1    
   105   52   54 1    
   106   52  175 1    
   107   53  176 1    
   108   53  177 1    
   109   53  178 1    
   110   54   55 am   BACKBONE|DICT|INTERRES
   111   54  179 1    
   112   55   56 2    
   113   55   57 1    
   114   57   58 1    
   115   57   59 1    
   116   57  180 1    
   117   58  181 1    
   118   58  182 1    
   119   58  183 1    
   120   59   60 am   BACKBONE|DICT|INTERRES
   121   59  184 1    
   122   60   61 2    
   123   60   62 1    
   124   62   63 1    
   125   62   64 1    
   126   62  185 1    
   127   63  186 1    
   128   63  187 1    
   129   63  188 1    
   130   64   65 am   BACKBONE|DICT|INTERRES
   131   64  189 1    
   132   65   66 2    
   133   67   68 2    
   134   67   69 am   BACKBONE|DICT|INTERRES
   135   69   70 1    
   136   69  190 1    
   137   70   71 1    
   138   70   72 1    
   139   70  191 1    
   140   71  192 1    
   141   71  193 1    
   142   71  194 1    
   143   72   73 2    
   144   72   74 am   BACKBONE|DICT|INTERRES
   145   74   75 1    
   146   74  195 1    
   147   75   76 1    
   148   75   77 1    
   149   75  196 1    
   150   76  197 1    
   151   76  198 1    
   152   76  199 1    
   153   77   78 2    
   154   77   79 am   BACKBONE|DICT|INTERRES
   155   79   80 1    
   156   79  200 1    
   157   80   81 1    
   158   80   82 1    
   159   80  201 1    
   160   81  202 1    
   161   81  203 1    
   162   81  204 1    
   163   82   83 2    
   164   82   84 am   BACKBONE|DICT|INTERRES
   165   84   85 1    
   166   84  205 1    
   167   85   86 1    
   168   85   87 1    
   169   85  206 1    
   170   86  207 1    
   171   86  208 1    
   172   86  209 1    
   173   87   88 2    
   174   87   89 am   BACKBONE|DICT|INTERRES
   175   89   90 1    
   176   89  210 1    
   177   90   91 1    
   178   90   92 1    
   179   90  211 1    
   180   91  212 1    
   181   91  213 1    
   182   91  214 1    
   183   92   93 2    
   184   92   94 am   BACKBONE|DICT|INTERRES
   185   94   95 1    
   186   94  215 1    
   187   95   96 1    
   188   95   97 1    
   189   95  216 1    
   190   96  217 1    
   191   96  218 1    
   192   96  219 1    
   193   97   98 2    
   194   97   99 am   BACKBONE|DICT|INTERRES
   195   99  100 1    
   196   99  220 1    
   197  100  101 1    
   198  100  102 1    
   199  100  221 1    
   200  101  222 1    
   201  101  223 1    
   202  101  224 1    
   203  102  103 2    
   204  102  104 am   BACKBONE|DICT|INTERRES
   205  104  105 1    
   206  104  225 1    
   207  105  106 1    
   208  105  107 1    
   209  105  226 1    
   210  106  227 1    
   211  106  228 1    
   212  106  229 1    
   213  107  108 2    
   214  107  109 am   BACKBONE|DICT|INTERRES
   215  109  110 1    
   216  109  230 1    
   217  110  111 1    
   218  110  112 1    
   219  110  231 1    
   220  111  232 1    
   221  111  233 1    
   222  111  234 1    
   223  112  113 2    
   224  112  114 am   BACKBONE|DICT|INTERRES
   225  114  115 1    
   226  114  235 1    
   227  115  116 1    
   228  115  117 1    
   229  115  236 1    
   230  116  237 1    
   231  116  238 1    
   232  116  239 1    
   233  117  118 2    
   234  117  119 am   BACKBONE|DICT|INTERRES
   235  119  120 1    
   236  119  240 1    
   237  120  121 1    
   238  120  124 1    
   239  120  241 1    
   240  121  122 am   BACKBONE|DICT|INTERRES
   241  121  123 2    
   242  122  242 1    
   243  122  243 1    
   244  124  125 1    
   245  124  244 1    
   246  124  245 1    
   247  125  126 1    
   248  126  246 1    
   249  126  247 1    
@<TRIPOS>SUBSTRUCTURE
     1 UNK         1 GROUP             0       ****    0 ROOT    
