@<TRIPOS>MOLECULE
3R540
247   249    1
SMALL
USER_CHARGES


@<TRIPOS>ATOM
      1 CA          5.2064  -16.4368  -47.9797 C.3       0 UNK        -0.1800 
      2 C           4.4833  -16.8919  -46.7137 C.2       0 UNK         0.5000 
      3 O           5.0175  -17.7291  -45.9907 O.2       0 UNK        -0.5000 
      4 N           3.2770  -16.3993  -46.3950 N.am      1 UNK        -0.5000 
      5 CA          2.4799  -15.3723  -47.0821 C.3       1 UNK         0.1400 
      6 C6          2.0315  -15.8016  -48.5037 C.3       23 UNK        -0.0398 
      7 S7          0.4139  -15.1113  -48.9917 S.3       23 UNK        -0.2404 
      8 C8          0.2825  -15.6927  -50.7145 C.3       23 UNK        -0.0205 
      9 C9         -0.0280  -17.1804  -50.7849 C.ar      23 UNK        -0.0193 
     10 C10        -1.3491  -17.6259  -50.8916 C.ar      23 UNK        -0.1150 
     11 C11        -1.6357  -18.9939  -50.9378 C.ar      23 UNK        -0.0193 
     12 C12        -0.5909  -19.9176  -50.8353 C.ar      23 UNK        -0.1150 
     13 C13         0.7320  -19.4835  -50.7124 C.ar      23 UNK        -0.0193 
     14 C14         1.0084  -18.1151  -50.7306 C.ar      23 UNK        -0.1150 
     15 C15         1.8582  -20.4931  -50.5401 C.3       23 UNK        -0.0205 
     16 S16         2.8846  -20.1999  -49.0547 S.3       23 UNK        -0.2404 
     17 C17         1.6692  -20.0117  -47.7016 C.3       23 UNK        -0.0398 
     18 CA          1.2484  -21.3539  -47.0506 C.3       11 UNK         0.1400 
     19 N           0.9164  -21.2042  -45.6298 N.am      11 UNK        -0.5000 
     20 C           0.6481  -22.2209  -44.7964 C.2       10 UNK         0.5000 
     21 O           0.7067  -23.4065  -45.1225 O.2       10 UNK        -0.5000 
     22 CA          0.1850  -21.8535  -43.3747 C.3       10 UNK         0.1400 
     23 CB          1.3815  -21.4821  -42.4866 C.3       10 UNK        -0.1800 
     24 N          -0.7997  -20.7698  -43.3655 N.am      10 UNK        -0.5000 
     25 C          -2.0173  -20.8511  -43.9223 C.2       9 UNK         0.5000 
     26 O          -2.4565  -21.8698  -44.4539 O.2       9 UNK        -0.5000 
     27 CA         -2.8701  -19.5691  -43.9365 C.3       9 UNK         0.1400 
     28 CB         -3.5694  -19.3576  -42.5858 C.3       9 UNK        -0.1800 
     29 N          -2.0937  -18.3785  -44.2807 N.am      9 UNK        -0.5000 
     30 C          -1.4530  -18.1939  -45.4437 C.2       8 UNK         0.5000 
     31 O          -1.4819  -18.9909  -46.3798 O.2       8 UNK        -0.5000 
     32 CA         -0.5691  -16.9419  -45.5493 C.3       8 UNK         0.1400 
     33 CB         -1.4054  -15.6894  -45.8516 C.3       8 UNK        -0.1800 
     34 N           0.2277  -16.7373  -44.3368 N.am      8 UNK        -0.5000 
     35 C           1.2017  -17.5661  -43.9337 C.2       7 UNK         0.5000 
     36 O           1.5903  -18.5253  -44.5967 O.2       7 UNK        -0.5000 
     37 CA          1.8416  -17.2879  -42.5644 C.3       7 UNK         0.1400 
     38 CB          2.9912  -16.2817  -42.7031 C.3       7 UNK        -0.1800 
     39 N           0.8637  -16.7921  -41.5980 N.am      7 UNK        -0.5000 
     40 C          -0.0904  -17.5554  -41.0449 C.2       6 UNK         0.5000 
     41 O          -0.2111  -18.7599  -41.2661 O.2       6 UNK        -0.5000 
     42 CA         -1.1098  -16.8450  -40.1344 C.3       6 UNK         0.1400 
     43 CB         -0.5852  -16.7694  -38.6931 C.3       6 UNK        -0.1800 
     44 N          -1.4403  -15.4970  -40.5993 N.am      6 UNK        -0.5000 
     45 C          -2.0267  -15.2154  -41.7717 C.2       5 UNK         0.5000 
     46 O          -2.4147  -16.0775  -42.5590 O.2       5 UNK        -0.5000 
     47 CA         -2.1559  -13.7277  -42.1523 C.3       5 UNK         0.1400 
     48 CB         -3.5597  -13.2068  -41.8120 C.3       5 UNK        -0.1800 
     49 N          -1.1535  -12.8746  -41.5056 N.am      5 UNK        -0.5000 
     50 C           0.1637  -12.9250  -41.7450 C.2       4 UNK         0.5000 
     51 O           0.6846  -13.6922  -42.5585 O.2       4 UNK        -0.5000 
     52 CA          1.0378  -12.0146  -40.8744 C.3       4 UNK         0.1400 
     53 CB          1.3482  -12.6963  -39.5292 C.3       4 UNK        -0.1800 
     54 N           2.2862  -11.6996  -41.5623 N.am      4 UNK        -0.5000 
     55 C           3.0149  -10.5966  -41.3603 C.2       3 UNK         0.5000 
     56 O           2.6869   -9.7104  -40.5695 O.2       3 UNK        -0.5000 
     57 CA          4.3221  -10.4209  -42.1624 C.3       3 UNK         0.1400 
     58 CB          5.5250  -10.9879  -41.3833 C.3       3 UNK        -0.1800 
     59 N           4.2987  -10.9170  -43.5468 N.am      3 UNK        -0.5000 
     60 C           4.2303  -12.1802  -43.9833 C.2       2 UNK         0.5000 
     61 O           4.1193  -13.1625  -43.2466 O.2       2 UNK        -0.5000 
     62 CA          4.3051  -12.3768  -45.5027 C.3       2 UNK         0.1400 
     63 CB          5.7638  -12.3637  -45.9931 C.3       2 UNK        -0.1800 
     64 N           3.6869  -13.6541  -45.8319 N.am      2 UNK        -0.5000 
     65 C           3.1174  -13.9677  -46.9996 C.2       1 UNK         0.5000 
     66 O           3.1030  -13.2118  -47.9718 O.2       1 UNK        -0.5000 
     67 C           0.0955  -22.0199  -47.8284 C.2       11 UNK         0.5000 
     68 O           0.3314  -22.9828  -48.5568 O.2       11 UNK        -0.5000 
     69 N          -1.1337  -21.5280  -47.6204 N.am      12 UNK        -0.5000 
     70 CA         -2.3591  -22.0485  -48.2242 C.3       12 UNK         0.1400 
     71 CB         -3.5313  -21.1221  -47.8711 C.3       12 UNK        -0.1800 
     72 C          -2.6666  -23.5013  -47.8253 C.2       12 UNK         0.5000 
     73 O          -3.0967  -24.2788  -48.6748 O.2       12 UNK        -0.5000 
     74 N          -2.4151  -23.8562  -46.5588 N.am      13 UNK        -0.5000 
     75 CA         -2.5406  -25.2214  -46.0505 C.3       13 UNK         0.1400 
     76 CB         -2.4478  -25.2097  -44.5171 C.3       13 UNK        -0.1800 
     77 C          -1.4944  -26.1771  -46.6543 C.2       13 UNK         0.5000 
     78 O          -1.8318  -27.3165  -46.9774 O.2       13 UNK        -0.5000 
     79 N          -0.2511  -25.6988  -46.7976 N.am      14 UNK        -0.5000 
     80 CA          0.8701  -26.4600  -47.3448 C.3       14 UNK         0.1400 
     81 CB          2.1888  -25.7595  -46.9802 C.3       14 UNK        -0.1800 
     82 C           0.7678  -26.6724  -48.8658 C.2       14 UNK         0.5000 
     83 O           0.9306  -27.8002  -49.3336 O.2       14 UNK        -0.5000 
     84 N           0.5226  -25.5871  -49.6105 N.am      15 UNK        -0.5000 
     85 CA          0.5137  -25.5788  -51.0748 C.3       15 UNK         0.1400 
     86 CB          0.8648  -24.1652  -51.5641 C.3       15 UNK        -0.1800 
     87 C          -0.8228  -26.0291  -51.6897 C.2       15 UNK         0.5000 
     88 O          -0.8399  -26.3896  -52.8678 O.2       15 UNK        -0.5000 
     89 N          -1.9078  -25.9755  -50.9029 N.am      16 UNK        -0.5000 
     90 CA         -3.3076  -26.1097  -51.3196 C.3       16 UNK         0.1400 
     91 CB         -3.5848  -27.4942  -51.9482 C.3       16 UNK        -0.1800 
     92 C          -3.7518  -24.9233  -52.2063 C.2       16 UNK         0.5000 
     93 O          -3.0992  -23.8757  -52.2063 O.2       16 UNK        -0.5000 
     94 N          -4.8769  -25.0943  -52.9194 N.am      17 UNK        -0.5000 
     95 CA         -5.4930  -24.1225  -53.8368 C.3       17 UNK         0.1400 
     96 CB         -4.5798  -23.8904  -55.0599 C.3       17 UNK        -0.1800 
     97 C          -5.9191  -22.8071  -53.1441 C.2       17 UNK         0.5000 
     98 O          -5.9085  -21.7462  -53.7679 O.2       17 UNK        -0.5000 
     99 N          -6.2894  -22.9090  -51.8589 N.am      18 UNK        -0.5000 
    100 CA        -6.5411  -21.7994  -50.9344 C.3       18 UNK         0.1400 
    101 CB        -6.8549  -22.3842  -49.5486 C.3       18 UNK        -0.1800 
    102 C         -7.6507  -20.8189  -51.3612 C.2       18 UNK         0.5000 
    103 O         -7.6213  -19.6578  -50.9509 O.2       18 UNK        -0.5000 
    104 N         -8.5975  -21.2838  -52.1862 N.am      19 UNK        -0.5000 
    105 CA        -9.6921  -20.5015  -52.7632 C.3       19 UNK         0.1400 
    106 CB       -10.8148  -21.4676  -53.1830 C.3       19 UNK        -0.1800 
    107 C         -9.2130  -19.6029  -53.9258 C.2       19 UNK         0.5000 
    108 O         -9.6989  -19.7339  -55.0498 O.2       19 UNK        -0.5000 
    109 N         -8.2367  -18.7310  -53.6378 N.am      20 UNK        -0.5000 
    110 CA        -7.5900  -17.7243  -54.4946 C.3       20 UNK         0.1400 
    111 CB        -8.6173  -16.6915  -54.9964 C.3       20 UNK        -0.1800 
    112 C         -6.7421  -18.2700  -55.6647 C.2       20 UNK         0.5000 
    113 O         -5.8832  -17.5422  -56.1666 O.2       20 UNK        -0.5000 
    114 N         -6.9617  -19.5271  -56.0699 N.am      21 UNK        -0.5000 
    115 CA        -6.2675  -20.2269  -57.1550 C.3       21 UNK         0.1400 
    116 CB        -6.9315  -21.5967  -57.3621 C.3       21 UNK        -0.1800 
    117 C         -4.7432  -20.3614  -56.9535 C.2       21 UNK         0.5000 
    118 O         -4.0096  -20.4706  -57.9369 O.2       21 UNK        -0.5000 
    119 N         -4.2969  -20.3079  -55.6939 N.am      22 UNK        -0.5000 
    120 CA        -2.8974  -20.1644  -55.2720 C.3       22 UNK         0.1400 
    121 C         -2.1890  -18.8552  -55.7403 C.2       22 UNK         0.5000 
    122 N         -2.9041  -17.8126  -56.1503 N.am      22 UNK        -0.7600 
    123 O         -0.9627  -18.7925  -55.7453 O.2       22 UNK        -0.5000 
    124 C124       -2.7525  -20.3658  -53.7406 C.3       23 UNK        -0.0398 
    125 S125       -3.7386  -19.1843  -52.7484 S.3       23 UNK        -0.2404 
    126 C126       -3.0744  -19.4717  -51.0799 C.3       23 UNK        -0.0205 
    127 H127        6.2381  -16.7889  -47.9699 H         1 UNK         0.0600 
    128 H128        5.2384  -15.3528  -48.0712 H         1 UNK         0.0600 
    129 H129        4.7264  -16.8559  -48.8635 H         1 UNK         0.0600 
    130 H130        2.8322  -16.7977  -45.5810 H         1 UNK         0.3000 
    131 H131        1.5823  -15.2860  -46.4718 H         1 UNK         0.0600 
    132 H132        2.7777  -15.5479  -49.2577 H         1 UNK         0.0800 
    133 H133        1.9301  -16.8860  -48.5221 H         1 UNK         0.0800 
    134 H134        1.2056  -15.4714  -51.2523 H         1 UNK         0.0800 
    135 H135       -0.5035  -15.1265  -51.2163 H         1 UNK         0.0800 
    136 H136       -2.1564  -16.9091  -50.9459 H         1 UNK         0.1150 
    137 H137       -0.8071  -20.9762  -50.8476 H         1 UNK         0.1150 
    138 H138        2.0330  -17.7798  -50.6579 H         1 UNK         0.1150 
    139 H139        1.4615  -21.5061  -50.4926 H         1 UNK         0.0800 
    140 H140        2.4989  -20.4596  -51.4221 H         1 UNK         0.0800 
    141 H141        0.8096  -19.4197  -48.0199 H         1 UNK         0.0800 
    142 H142        2.1748  -19.3935  -46.9600 H         1 UNK         0.0800 
    143 H143        2.1018  -22.0344  -47.0891 H         1 UNK         0.0600 
    144 H144        0.8873  -20.2562  -45.2677 H         1 UNK         0.3000 
    145 H145       -0.2919  -22.7365  -42.9443 H         1 UNK         0.0600 
    146 H146        1.0659  -21.2844  -41.4621 H         1 UNK         0.0600 
    147 H147        2.1077  -22.2952  -42.4521 H         1 UNK         0.0600 
    148 H148        1.8990  -20.5966  -42.8546 H         1 UNK         0.0600 
    149 H149       -0.5351  -19.9158  -42.8858 H         1 UNK         0.3000 
    150 H150       -3.6400  -19.6917  -44.7008 H         1 UNK         0.0600 
    151 H151       -4.1906  -20.2167  -42.3300 H         1 UNK         0.0600 
    152 H152       -4.2180  -18.4817  -42.6108 H         1 UNK         0.0600 
    153 H153       -2.8523  -19.2186  -41.7769 H         1 UNK         0.0600 
    154 H154       -2.0559  -17.6406  -43.5825 H         1 UNK         0.3000 
    155 H155        0.1147  -17.1024  -46.3848 H         1 UNK         0.0600 
    156 H156       -2.1623  -15.5066  -45.0900 H         1 UNK         0.0600 
    157 H157       -1.9247  -15.7960  -46.8049 H         1 UNK         0.0600 
    158 H158       -0.7799  -14.7996  -45.9216 H         1 UNK         0.0600 
    159 H159       -0.0387  -15.9715  -43.7340 H         1 UNK         0.3000 
    160 H160        2.2557  -18.2250  -42.1866 H         1 UNK         0.0600 
    161 H161        2.6512  -15.3450  -43.1428 H         1 UNK         0.0600 
    162 H162        3.7816  -16.6767  -43.3426 H         1 UNK         0.0600 
    163 H163        3.4403  -16.0538  -41.7363 H         1 UNK         0.0600 
    164 H164        0.8740  -15.7995  -41.4089 H         1 UNK         0.3000 
    165 H165       -2.0274  -17.4369  -40.1364 H         1 UNK         0.0600 
    166 H166       -1.3305  -16.3387  -38.0242 H         1 UNK         0.0600 
    167 H167       -0.3449  -17.7633  -38.3130 H         1 UNK         0.0600 
    168 H168        0.3192  -16.1634  -38.6237 H         1 UNK         0.0600 
    169 H169       -1.1647  -14.7297  -40.0053 H         1 UNK         0.3000 
    170 H170       -2.0157  -13.6537  -43.2328 H         1 UNK         0.0600 
    171 H171       -4.3280  -13.8074  -42.3010 H         1 UNK         0.0600 
    172 H172       -3.7523  -13.2380  -40.7388 H         1 UNK         0.0600 
    173 H173       -3.6912  -12.1781  -42.1481 H         1 UNK         0.0600 
    174 H174       -1.5007  -12.2226  -40.8165 H         1 UNK         0.3000 
    175 H175        0.4829  -11.0915  -40.6932 H         1 UNK         0.0600 
    176 H176        1.9101  -13.6208  -39.6694 H         1 UNK         0.0600 
    177 H177        1.9353  -12.0448  -38.8817 H         1 UNK         0.0600 
    178 H178        0.4332  -12.9445  -38.9902 H         1 UNK         0.0600 
    179 H179        2.6172  -12.3973  -42.2238 H         1 UNK         0.3000 
    180 H180        4.4786   -9.3445  -42.2503 H         1 UNK         0.0600 
    181 H181        5.4362  -12.0621  -41.2190 H         1 UNK         0.0600 
    182 H182        5.6088  -10.5173  -40.4029 H         1 UNK         0.0600 
    183 H183        6.4602  -10.8047  -41.9123 H         1 UNK         0.0600 
    184 H184        4.3565  -10.1893  -44.2459 H         1 UNK         0.3000 
    185 H185        3.7480  -11.5688  -45.9821 H         1 UNK         0.0600 
    186 H186        6.2532  -11.4208  -45.7464 H         1 UNK         0.0600 
    187 H187        6.3459  -13.1661  -45.5380 H         1 UNK         0.0600 
    188 H188        5.8190  -12.4835  -47.0752 H         1 UNK         0.0600 
    189 H189        3.6516  -14.3039  -45.0564 H         1 UNK         0.3000 
    190 H190       -1.2396  -20.7071  -47.0277 H         1 UNK         0.3000 
    191 H191       -2.2233  -22.0364  -49.3060 H         1 UNK         0.0600 
    192 H192       -3.7415  -21.1289  -46.8015 H         1 UNK         0.0600 
    193 H193       -4.4393  -21.4284  -48.3874 H         1 UNK         0.0600 
    194 H194       -3.3238  -20.0925  -48.1614 H         1 UNK         0.0600 
    195 H195       -2.1339  -23.1417  -45.8934 H         1 UNK         0.3000 
    196 H196       -3.5295  -25.5942  -46.3258 H         1 UNK         0.0600 
    197 H197       -2.5519  -26.2166  -44.1111 H         1 UNK         0.0600 
    198 H198       -3.2380  -24.5991  -44.0799 H         1 UNK         0.0600 
    199 H199       -1.4918  -24.8133  -44.1739 H         1 UNK         0.0600 
    200 H200       -0.0462  -24.7608  -46.4683 H         1 UNK         0.3000 
    201 H201        0.8750  -27.4445  -46.8722 H         1 UNK         0.0600 
    202 H202        2.3127  -25.6941  -45.8991 H         1 UNK         0.0600 
    203 H203        2.2329  -24.7462  -47.3814 H         1 UNK         0.0600 
    204 H204        3.0457  -26.3075  -47.3737 H         1 UNK         0.0600 
    205 H205        0.4104  -24.6834  -49.1519 H         1 UNK         0.3000 
    206 H206        1.2878  -26.2592  -51.4361 H         1 UNK         0.0600 
    207 H207        1.8238  -23.8364  -51.1636 H         1 UNK         0.0600 
    208 H208        0.9378  -24.1337  -52.6519 H         1 UNK         0.0600 
    209 H209        0.1053  -23.4407  -51.2671 H         1 UNK         0.0600 
    210 H210       -1.7862  -25.6053  -49.9690 H         1 UNK         0.3000 
    211 H211       -3.8994  -26.0473  -50.4063 H         1 UNK         0.0600 
    212 H212       -3.1806  -27.5746  -52.9577 H         1 UNK         0.0600 
    213 H213       -4.6548  -27.6944  -52.0077 H         1 UNK         0.0600 
    214 H214       -3.1464  -28.2922  -51.3488 H         1 UNK         0.0600 
    215 H215       -5.3515  -25.9835  -52.8479 H         1 UNK         0.3000 
    216 H216       -6.4139  -24.5819  -54.1983 H         1 UNK         0.0600 
    217 H217       -5.0781  -23.2928  -55.8206 H         1 UNK         0.0600 
    218 H218       -4.3006  -24.8346  -55.5272 H         1 UNK         0.0600 
    219 H219       -3.6621  -23.3682  -54.7899 H         1 UNK         0.0600 
    220 H220       -6.2780  -23.8301  -51.4473 H         1 UNK         0.3000 
    221 H221       -5.6160  -21.2247  -50.8635 H         1 UNK         0.0600 
    222 H222       -7.7726  -22.9736  -49.5612 H         1 UNK         0.0600 
    223 H223       -6.0489  -23.0294  -49.1978 H         1 UNK         0.0600 
    224 H224       -6.9838  -21.5926  -48.8091 H         1 UNK         0.0600 
    225 H225       -8.5167  -22.2398  -52.4987 H         1 UNK         0.3000 
    226 H226      -10.0953  -19.8412  -51.9926 H         1 UNK         0.0600 
    227 H227      -11.6708  -20.9231  -53.5837 H         1 UNK         0.0600 
    228 H228      -10.4797  -22.1662  -53.9507 H         1 UNK         0.0600 
    229 H229      -11.1723  -22.0494  -52.3332 H         1 UNK         0.0600 
    230 H230       -7.8791  -18.7728  -52.6875 H         1 UNK         0.3000 
    231 H231       -6.8906  -17.1993  -53.8422 H         1 UNK         0.0600 
    232 H232       -9.1669  -16.2462  -54.1671 H         1 UNK         0.0600 
    233 H233       -9.3411  -17.1364  -55.6797 H         1 UNK         0.0600 
    234 H234       -8.1236  -15.8792  -55.5312 H         1 UNK         0.0600 
    235 H235       -7.7179  -20.0277  -55.6208 H         1 UNK         0.3000 
    236 H236       -6.4119  -19.6411  -58.0648 H         1 UNK         0.0600 
    237 H237       -6.3899  -22.1947  -58.0963 H         1 UNK         0.0600 
    238 H238       -6.9755  -22.1660  -56.4339 H         1 UNK         0.0600 
    239 H239       -7.9528  -21.4830  -57.7261 H         1 UNK         0.0600 
    240 H240       -4.9803  -20.3166  -54.9445 H         1 UNK         0.3000 
    241 H241       -2.3525  -20.9787  -55.7527 H         1 UNK         0.0600 
    242 H242       -3.9189  -17.8379  -56.1423 H         1 UNK         0.3800 
    243 H243       -2.4305  -16.9777  -56.4549 H         1 UNK         0.3800 
    244 H244       -3.0669  -21.3743  -53.4703 H         1 UNK         0.0800 
    245 H245       -1.7028  -20.2978  -53.4520 H         1 UNK         0.0800 
    246 H246       -3.7005  -18.9468  -50.3574 H         1 UNK         0.0800 
    247 H247       -3.1593  -20.5337  -50.8490 H         1 UNK         0.0800 
@<TRIPOS>BOND
     1    1    2 1    
     2    1  127 1    
     3    1  128 1    
     4    1  129 1    
     5    2    3 2    
     6    2    4 am   BACKBONE|DICT|INTERRES
     7    4    5 1    
     8    4  130 1    
     9    5    6 1    
    10    5   65 1    
    11    5  131 1    
    12    6    7 1    
    13    6  132 1    
    14    6  133 1    
    15    7    8 1    
    16    8    9 1    
    17    8  134 1    
    18    8  135 1    
    19    9   10 ar   
    20    9   14 ar   
    21   10   11 ar   
    22   10  136 1    
    23   11   12 ar   
    24   11  126 1    
    25   12   13 ar   
    26   12  137 1    
    27   13   14 ar   
    28   13   15 1    
    29   14  138 1    
    30   15   16 1    
    31   15  139 1    
    32   15  140 1    
    33   16   17 1    
    34   17   18 1    
    35   17  141 1    
    36   17  142 1    
    37   18   19 1    
    38   18   67 1    
    39   18  143 1    
    40   19   20 am   BACKBONE|DICT|INTERRES
    41   19  144 1    
    42   20   21 2    
    43   20   22 1    
    44   22   23 1    
    45   22   24 1    
    46   22  145 1    
    47   23  146 1    
    48   23  147 1    
    49   23  148 1    
    50   24   25 am   BACKBONE|DICT|INTERRES
    51   24  149 1    
    52   25   26 2    
    53   25   27 1    
    54   27   28 1    
    55   27   29 1    
    56   27  150 1    
    57   28  151 1    
    58   28  152 1    
    59   28  153 1    
    60   29   30 am   BACKBONE|DICT|INTERRES
    61   29  154 1    
    62   30   31 2    
    63   30   32 1    
    64   32   33 1    
    65   32   34 1    
    66   32  155 1    
    67   33  156 1    
    68   33  157 1    
    69   33  158 1    
    70   34   35 am   BACKBONE|DICT|INTERRES
    71   34  159 1    
    72   35   36 2    
    73   35   37 1    
    74   37   38 1    
    75   37   39 1    
    76   37  160 1    
    77   38  161 1    
    78   38  162 1    
    79   38  163 1    
    80   39   40 am   BACKBONE|DICT|INTERRES
    81   39  164 1    
    82   40   41 2    
    83   40   42 1    
    84   42   43 1    
    85   42   44 1    
    86   42  165 1    
    87   43  166 1    
    88   43  167 1    
    89   43  168 1    
    90   44   45 am   BACKBONE|DICT|INTERRES
    91   44  169 1    
    92   45   46 2    
    93   45   47 1    
    94   47   48 1    
    95   47   49 1    
    96   47  170 1    
    97   48  171 1    
    98   48  172 1    
    99   48  173 1    
   100   49   50 am   BACKBONE|DICT|INTERRES
   101   49  174 1    
   102   50   51 2    
   103   50   52 1    
   104   52   53 1    
   105   52   54 1    
   106   52  175 1    
   107   53  176 1    
   108   53  177 1    
   109   53  178 1    
   110   54   55 am   BACKBONE|DICT|INTERRES
   111   54  179 1    
   112   55   56 2    
   113   55   57 1    
   114   57   58 1    
   115   57   59 1    
   116   57  180 1    
   117   58  181 1    
   118   58  182 1    
   119   58  183 1    
   120   59   60 am   BACKBONE|DICT|INTERRES
   121   59  184 1    
   122   60   61 2    
   123   60   62 1    
   124   62   63 1    
   125   62   64 1    
   126   62  185 1    
   127   63  186 1    
   128   63  187 1    
   129   63  188 1    
   130   64   65 am   BACKBONE|DICT|INTERRES
   131   64  189 1    
   132   65   66 2    
   133   67   68 2    
   134   67   69 am   BACKBONE|DICT|INTERRES
   135   69   70 1    
   136   69  190 1    
   137   70   71 1    
   138   70   72 1    
   139   70  191 1    
   140   71  192 1    
   141   71  193 1    
   142   71  194 1    
   143   72   73 2    
   144   72   74 am   BACKBONE|DICT|INTERRES
   145   74   75 1    
   146   74  195 1    
   147   75   76 1    
   148   75   77 1    
   149   75  196 1    
   150   76  197 1    
   151   76  198 1    
   152   76  199 1    
   153   77   78 2    
   154   77   79 am   BACKBONE|DICT|INTERRES
   155   79   80 1    
   156   79  200 1    
   157   80   81 1    
   158   80   82 1    
   159   80  201 1    
   160   81  202 1    
   161   81  203 1    
   162   81  204 1    
   163   82   83 2    
   164   82   84 am   BACKBONE|DICT|INTERRES
   165   84   85 1    
   166   84  205 1    
   167   85   86 1    
   168   85   87 1    
   169   85  206 1    
   170   86  207 1    
   171   86  208 1    
   172   86  209 1    
   173   87   88 2    
   174   87   89 am   BACKBONE|DICT|INTERRES
   175   89   90 1    
   176   89  210 1    
   177   90   91 1    
   178   90   92 1    
   179   90  211 1    
   180   91  212 1    
   181   91  213 1    
   182   91  214 1    
   183   92   93 2    
   184   92   94 am   BACKBONE|DICT|INTERRES
   185   94   95 1    
   186   94  215 1    
   187   95   96 1    
   188   95   97 1    
   189   95  216 1    
   190   96  217 1    
   191   96  218 1    
   192   96  219 1    
   193   97   98 2    
   194   97   99 am   BACKBONE|DICT|INTERRES
   195   99  100 1    
   196   99  220 1    
   197  100  101 1    
   198  100  102 1    
   199  100  221 1    
   200  101  222 1    
   201  101  223 1    
   202  101  224 1    
   203  102  103 2    
   204  102  104 am   BACKBONE|DICT|INTERRES
   205  104  105 1    
   206  104  225 1    
   207  105  106 1    
   208  105  107 1    
   209  105  226 1    
   210  106  227 1    
   211  106  228 1    
   212  106  229 1    
   213  107  108 2    
   214  107  109 am   BACKBONE|DICT|INTERRES
   215  109  110 1    
   216  109  230 1    
   217  110  111 1    
   218  110  112 1    
   219  110  231 1    
   220  111  232 1    
   221  111  233 1    
   222  111  234 1    
   223  112  113 2    
   224  112  114 am   BACKBONE|DICT|INTERRES
   225  114  115 1    
   226  114  235 1    
   227  115  116 1    
   228  115  117 1    
   229  115  236 1    
   230  116  237 1    
   231  116  238 1    
   232  116  239 1    
   233  117  118 2    
   234  117  119 am   BACKBONE|DICT|INTERRES
   235  119  120 1    
   236  119  240 1    
   237  120  121 1    
   238  120  124 1    
   239  120  241 1    
   240  121  122 am   BACKBONE|DICT|INTERRES
   241  121  123 2    
   242  122  242 1    
   243  122  243 1    
   244  124  125 1    
   245  124  244 1    
   246  124  245 1    
   247  125  126 1    
   248  126  246 1    
   249  126  247 1    
@<TRIPOS>SUBSTRUCTURE
     1 UNK         1 GROUP             0       ****    0 ROOT    
