@<TRIPOS>MOLECULE
3R540
247   249    1
SMALL
USER_CHARGES


@<TRIPOS>ATOM
      1 CA          3.0272  -15.5036  -46.6245 C.3       0 UNK        -0.1800 
      2 C           1.7471  -15.1120  -47.3454 C.2       0 UNK         0.5000 
      3 O           1.4028  -13.9312  -47.3857 O.2       0 UNK        -0.5000 
      4 N           1.0471  -16.0994  -47.9198 N.am      1 UNK        -0.5000 
      5 CA         -0.1508  -15.9814  -48.7650 C.3       1 UNK         0.1400 
      6 C6          0.0883  -15.1011  -50.0205 C.3       23 UNK        -0.0398 
      7 S7         -0.7691  -15.7328  -51.5003 S.3       23 UNK        -0.2404 
      8 C8          0.6297  -16.3682  -52.4781 C.3       23 UNK        -0.0205 
      9 C9          0.9983  -17.7962  -52.1023 C.ar      23 UNK        -0.0193 
     10 C10         0.3648  -18.8616  -52.7463 C.ar      23 UNK        -0.1150 
     11 C11         0.7225  -20.1813  -52.4654 C.ar      23 UNK        -0.0193 
     12 C12         1.7202  -20.4345  -51.5203 C.ar      23 UNK        -0.1150 
     13 C13         2.3593  -19.3792  -50.8588 C.ar      23 UNK        -0.0193 
     14 C14         1.9935  -18.0604  -51.1541 C.ar      23 UNK        -0.1150 
     15 C15         3.4742  -19.6711  -49.8596 C.3       23 UNK        -0.0205 
     16 S16         2.9839  -19.4141  -48.1214 S.3       23 UNK        -0.2404 
     17 C17         1.6033  -20.5850  -47.9279 C.3       23 UNK        -0.0398 
     18 CA          1.9951  -22.0000  -47.4331 C.3       11 UNK         0.1400 
     19 N           2.5845  -21.9740  -46.0938 N.am      11 UNK        -0.5000 
     20 C           3.2936  -22.9675  -45.5445 C.2       10 UNK         0.5000 
     21 O           3.6548  -23.9685  -46.1669 O.2       10 UNK        -0.5000 
     22 CA          3.6304  -22.8152  -44.0444 C.3       10 UNK         0.1400 
     23 CB          4.7076  -23.8029  -43.5487 C.3       10 UNK        -0.1800 
     24 N           3.9542  -21.4335  -43.6773 N.am      10 UNK        -0.5000 
     25 C           5.0105  -20.7039  -44.0618 C.2       9 UNK         0.5000 
     26 O           5.9516  -21.1472  -44.7210 O.2       9 UNK        -0.5000 
     27 CA          5.0124  -19.2132  -43.6638 C.3       9 UNK         0.1400 
     28 CB          4.7042  -18.3428  -44.8899 C.3       9 UNK        -0.1800 
     29 N           4.0577  -18.8759  -42.6038 N.am      9 UNK        -0.5000 
     30 C           4.2283  -19.1478  -41.3029 C.2       8 UNK         0.5000 
     31 O           5.2255  -19.7088  -40.8473 O.2       8 UNK        -0.5000 
     32 CA          3.0849  -18.7391  -40.3527 C.3       8 UNK         0.1400 
     33 CB          3.1766  -17.2478  -39.9950 C.3       8 UNK        -0.1800 
     34 N           1.7594  -19.0265  -40.9032 N.am      8 UNK        -0.5000 
     35 C           1.2743  -20.2593  -41.1102 C.2       7 UNK         0.5000 
     36 O           1.8737  -21.2915  -40.8089 O.2       7 UNK        -0.5000 
     37 CA         -0.0892  -20.3582  -41.8194 C.3       7 UNK         0.1400 
     38 CB         -1.2466  -20.1859  -40.8251 C.3       7 UNK        -0.1800 
     39 N          -0.2292  -19.3892  -42.9062 N.am      7 UNK        -0.5000 
     40 C           0.5368  -19.3681  -44.0039 C.2       6 UNK         0.5000 
     41 O           1.4170  -20.1903  -44.2431 O.2       6 UNK        -0.5000 
     42 CA          0.3113  -18.2153  -44.9899 C.3       6 UNK         0.1400 
     43 CB         -0.8727  -18.5188  -45.9168 C.3       6 UNK        -0.1800 
     44 N           0.1245  -16.9311  -44.3191 N.am      6 UNK        -0.5000 
     45 C           1.0692  -16.3197  -43.5892 C.2       5 UNK         0.5000 
     46 O           2.2184  -16.7410  -43.4692 O.2       5 UNK        -0.5000 
     47 CA          0.6411  -15.0541  -42.8281 C.3       5 UNK         0.1400 
     48 CB          0.7228  -13.8224  -43.7401 C.3       5 UNK        -0.1800 
     49 N          -0.7135  -15.1820  -42.2904 N.am      5 UNK        -0.5000 
     50 C          -1.0461  -16.0146  -41.2922 C.2       4 UNK         0.5000 
     51 O          -0.2297  -16.7027  -40.6787 O.2       4 UNK        -0.5000 
     52 CA         -2.5471  -16.1450  -40.9684 C.3       4 UNK         0.1400 
     53 CB         -2.9775  -15.0761  -39.9537 C.3       4 UNK        -0.1800 
     54 N          -3.3895  -16.0474  -42.1623 N.am      4 UNK        -0.5000 
     55 C          -3.3689  -16.9178  -43.1803 C.2       3 UNK         0.5000 
     56 O          -2.6968  -17.9478  -43.1688 O.2       3 UNK        -0.5000 
     57 CA         -4.2052  -16.5732  -44.4295 C.3       3 UNK         0.1400 
     58 CB         -5.5550  -15.9159  -44.0751 C.3       3 UNK        -0.1800 
     59 N          -3.4911  -15.7573  -45.4235 N.am      3 UNK        -0.5000 
     60 C          -2.9005  -14.5653  -45.2538 C.2       2 UNK         0.5000 
     61 O          -2.7044  -14.0440  -44.1547 O.2       2 UNK        -0.5000 
     62 CA         -2.4676  -13.8294  -46.5387 C.3       2 UNK         0.1400 
     63 CB         -2.0977  -12.3572  -46.2827 C.3       2 UNK        -0.1800 
     64 N          -1.3496  -14.4772  -47.2213 N.am      2 UNK        -0.5000 
     65 C          -1.4308  -15.5561  -48.0060 C.2       1 UNK         0.5000 
     66 O          -2.4635  -16.2129  -48.1355 O.2       1 UNK        -0.5000 
     67 C           0.7235  -22.8736  -47.4267 C.2       11 UNK         0.5000 
     68 O           0.0001  -22.8981  -46.4273 O.2       11 UNK        -0.5000 
     69 N           0.4037  -23.4778  -48.5810 N.am      12 UNK        -0.5000 
     70 CA         -0.8779  -24.1519  -48.8359 C.3       12 UNK         0.1400 
     71 CB         -0.8124  -24.8718  -50.1907 C.3       12 UNK        -0.1800 
     72 C          -2.0873  -23.1931  -48.7881 C.2       12 UNK         0.5000 
     73 O          -3.1999  -23.6216  -48.4771 O.2       12 UNK        -0.5000 
     74 N          -1.8311  -21.8989  -49.0305 N.am      13 UNK        -0.5000 
     75 CA         -2.7685  -20.7757  -48.9559 C.3       13 UNK         0.1400 
     76 CB         -2.0298  -19.4928  -49.3682 C.3       13 UNK        -0.1800 
     77 C          -3.4578  -20.5919  -47.5876 C.2       13 UNK         0.5000 
     78 O          -4.4737  -19.9030  -47.5133 O.2       13 UNK        -0.5000 
     79 N          -2.9341  -21.2369  -46.5350 N.am      14 UNK        -0.5000 
     80 CA         -3.5637  -21.3244  -45.2175 C.3       14 UNK         0.1400 
     81 CB         -2.5780  -21.9848  -44.2438 C.3       14 UNK        -0.1800 
     82 C          -4.8950  -22.1044  -45.2467 C.2       14 UNK         0.5000 
     83 O          -5.7795  -21.8164  -44.4400 O.2       14 UNK        -0.5000 
     84 N          -5.0138  -23.0589  -46.1810 N.am      15 UNK        -0.5000 
     85 CA         -6.2199  -23.8445  -46.4351 C.3       15 UNK         0.1400 
     86 CB         -5.8601  -25.3381  -46.3974 C.3       15 UNK        -0.1800 
     87 C          -6.8472  -23.4801  -47.7916 C.2       15 UNK         0.5000 
     88 O          -8.0724  -23.4122  -47.8914 O.2       15 UNK        -0.5000 
     89 N          -6.0074  -23.2526  -48.8119 N.am      16 UNK        -0.5000 
     90 CA         -6.4236  -22.9918  -50.1934 C.3       16 UNK         0.1400 
     91 CB         -5.2620  -23.3583  -51.1317 C.3       16 UNK        -0.1800 
     92 C          -6.8952  -21.5470  -50.4603 C.2       16 UNK         0.5000 
     93 O          -7.4050  -21.2864  -51.5510 O.2       16 UNK        -0.5000 
     94 N          -6.7049  -20.6465  -49.4836 N.am      17 UNK        -0.5000 
     95 CA         -6.8637  -19.1875  -49.5476 C.3       17 UNK         0.1400 
     96 CB         -8.2736  -18.7774  -50.0239 C.3       17 UNK        -0.1800 
     97 C          -5.7470  -18.5174  -50.3753 C.2       17 UNK         0.5000 
     98 O          -4.9391  -19.1986  -51.0094 O.2       17 UNK        -0.5000 
     99 N          -5.7071  -17.1791  -50.3480 N.am      18 UNK        -0.5000 
    100 CA        -4.6634  -16.3330  -50.9421 C.3       18 UNK         0.1400 
    101 CB        -4.7280  -14.9439  -50.2797 C.3       18 UNK        -0.1800 
    102 C         -4.6980  -16.2492  -52.4887 C.2       18 UNK         0.5000 
    103 O         -4.4722  -15.1775  -53.0542 O.2       18 UNK        -0.5000 
    104 N         -4.9768  -17.3746  -53.1533 N.am      19 UNK        -0.5000 
    105 CA        -4.8526  -17.5564  -54.5941 C.3       19 UNK         0.1400 
    106 CB        -5.8245  -18.6581  -55.0453 C.3       19 UNK        -0.1800 
    107 C         -3.4036  -17.9533  -54.9066 C.2       19 UNK         0.5000 
    108 O         -2.8850  -18.8709  -54.2706 O.2       19 UNK        -0.5000 
    109 N         -2.7832  -17.2838  -55.8864 N.am      20 UNK        -0.5000 
    110 CA        -1.3661  -17.4353  -56.2398 C.3       20 UNK         0.1400 
    111 CB        -1.0123  -16.4231  -57.3397 C.3       20 UNK        -0.1800 
    112 C         -0.9492  -18.8583  -56.6625 C.2       20 UNK         0.5000 
    113 O          0.1961  -19.2471  -56.4332 O.2       20 UNK        -0.5000 
    114 N         -1.8842  -19.6049  -57.2618 N.am      21 UNK        -0.5000 
    115 CA        -1.6884  -20.9896  -57.6887 C.3       21 UNK         0.1400 
    116 CB        -2.5518  -21.2382  -58.9363 C.3       21 UNK        -0.1800 
    117 C         -2.0286  -22.0193  -56.5927 C.2       21 UNK         0.5000 
    118 O         -1.6599  -23.1844  -56.7456 O.2       21 UNK        -0.5000 
    119 N         -2.7433  -21.5991  -55.5361 N.am      22 UNK        -0.5000 
    120 CA        -3.3018  -22.4594  -54.4732 C.3       22 UNK         0.1400 
    121 C         -4.2968  -23.5501  -54.9871 C.2       22 UNK         0.5000 
    122 N         -5.0021  -23.3206  -56.0887 N.am      22 UNK        -0.7600 
    123 O         -4.4565  -24.6059  -54.3809 O.2       22 UNK        -0.5000 
    124 C124       -2.2095  -23.0172  -53.5158 C.3       23 UNK        -0.0398 
    125 S125       -1.5541  -21.7180  -52.4211 S.3       23 UNK        -0.2404 
    126 C126        0.0363  -21.3235  -53.1984 C.3       23 UNK        -0.0205 
    127 H127        3.1361  -16.5854  -46.5629 H         1 UNK         0.0600 
    128 H128        3.0343  -15.1020  -45.6122 H         1 UNK         0.0600 
    129 H129        3.8918  -15.1048  -47.1546 H         1 UNK         0.0600 
    130 H130        1.4075  -17.0396  -47.8399 H         1 UNK         0.3000 
    131 H131       -0.3253  -17.0030  -49.1056 H         1 UNK         0.0600 
    132 H132        1.1545  -15.0445  -50.2407 H         1 UNK         0.0800 
    133 H133       -0.2148  -14.0660  -49.8526 H         1 UNK         0.0800 
    134 H134        1.4957  -15.7117  -52.3845 H         1 UNK         0.0800 
    135 H135        0.3539  -16.3308  -53.5316 H         1 UNK         0.0800 
    136 H136       -0.4067  -18.6667  -53.4765 H         1 UNK         0.1150 
    137 H137        2.0051  -21.4550  -51.3070 H         1 UNK         0.1150 
    138 H138        2.4948  -17.2421  -50.6566 H         1 UNK         0.1150 
    139 H139        3.8366  -20.6936  -49.9763 H         1 UNK         0.0800 
    140 H140        4.3254  -19.0252  -50.0791 H         1 UNK         0.0800 
    141 H141        1.0550  -20.6365  -48.8674 H         1 UNK         0.0800 
    142 H142        0.9157  -20.1334  -47.2192 H         1 UNK         0.0800 
    143 H143        2.7174  -22.4311  -48.1294 H         1 UNK         0.0600 
    144 H144        2.2650  -21.2292  -45.4785 H         1 UNK         0.3000 
    145 H145        2.7083  -23.0498  -43.5105 H         1 UNK         0.0600 
    146 H146        4.9154  -23.6593  -42.4884 H         1 UNK         0.0600 
    147 H147        4.3772  -24.8342  -43.6773 H         1 UNK         0.0600 
    148 H148        5.6452  -23.6929  -44.0937 H         1 UNK         0.0600 
    149 H149        3.2114  -20.9357  -43.2026 H         1 UNK         0.3000 
    150 H150        6.0181  -18.9684  -43.3161 H         1 UNK         0.0600 
    151 H151        5.4002  -18.5436  -45.7053 H         1 UNK         0.0600 
    152 H152        4.7795  -17.2821  -44.6503 H         1 UNK         0.0600 
    153 H153        3.6977  -18.5333  -45.2624 H         1 UNK         0.0600 
    154 H154        3.2377  -18.3487  -42.8886 H         1 UNK         0.3000 
    155 H155        3.1975  -19.3141  -39.4312 H         1 UNK         0.0600 
    156 H156        4.1437  -17.0120  -39.5494 H         1 UNK         0.0600 
    157 H157        2.4084  -16.9680  -39.2738 H         1 UNK         0.0600 
    158 H158        3.0560  -16.6130  -40.8730 H         1 UNK         0.0600 
    159 H159        1.1777  -18.2294  -41.1362 H         1 UNK         0.3000 
    160 H160       -0.1617  -21.3573  -42.2540 H         1 UNK         0.0600 
    161 H161       -1.2237  -19.2081  -40.3442 H         1 UNK         0.0600 
    162 H162       -1.1994  -20.9396  -40.0383 H         1 UNK         0.0600 
    163 H163       -2.2117  -20.2916  -41.3212 H         1 UNK         0.0600 
    164 H164       -0.9910  -18.7206  -42.8325 H         1 UNK         0.3000 
    165 H165        1.2105  -18.1469  -45.6051 H         1 UNK         0.0600 
    166 H166       -0.7677  -17.9963  -46.8606 H         1 UNK         0.0600 
    167 H167       -0.9271  -19.5801  -46.1485 H         1 UNK         0.0600 
    168 H168       -1.8331  -18.2411  -45.4913 H         1 UNK         0.0600 
    169 H169       -0.8090  -16.5499  -44.3153 H         1 UNK         0.3000 
    170 H170        1.3299  -14.9094  -41.9930 H         1 UNK         0.0600 
    171 H171        1.7498  -13.6420  -44.0591 H         1 UNK         0.0600 
    172 H172        0.1205  -13.9482  -44.6391 H         1 UNK         0.0600 
    173 H173        0.3788  -12.9242  -43.2273 H         1 UNK         0.0600 
    174 H174       -1.4498  -14.6713  -42.7699 H         1 UNK         0.3000 
    175 H175       -2.7073  -17.1280  -40.5209 H         1 UNK         0.0600 
    176 H176       -2.3776  -15.1373  -39.0447 H         1 UNK         0.0600 
    177 H177       -2.8627  -14.0689  -40.3566 H         1 UNK         0.0600 
    178 H178       -4.0203  -15.2054  -39.6635 H         1 UNK         0.0600 
    179 H179       -3.9212  -15.1960  -42.2746 H         1 UNK         0.3000 
    180 H180       -4.4254  -17.5238  -44.9186 H         1 UNK         0.0600 
    181 H181       -6.0950  -16.5037  -43.3316 H         1 UNK         0.0600 
    182 H182       -5.4340  -14.9082  -43.6766 H         1 UNK         0.0600 
    183 H183       -6.1943  -15.8456  -44.9552 H         1 UNK         0.0600 
    184 H184       -3.4985  -16.1218  -46.3715 H         1 UNK         0.3000 
    185 H185       -3.3290  -13.8311  -47.2101 H         1 UNK         0.0600 
    186 H186       -2.9146  -11.8282  -45.7902 H         1 UNK         0.0600 
    187 H187       -1.2158  -12.2620  -45.6491 H         1 UNK         0.0600 
    188 H188       -1.8930  -11.8357  -47.2179 H         1 UNK         0.0600 
    189 H189       -0.4395  -14.0292  -47.1445 H         1 UNK         0.3000 
    190 H190        1.0457  -23.4331  -49.3593 H         1 UNK         0.3000 
    191 H191       -1.0285  -24.9013  -48.0562 H         1 UNK         0.0600 
    192 H192       -0.5882  -24.1824  -51.0046 H         1 UNK         0.0600 
    193 H193       -1.7612  -25.3575  -50.4235 H         1 UNK         0.0600 
    194 H194       -0.0447  -25.6458  -50.1877 H         1 UNK         0.0600 
    195 H195       -0.8991  -21.6661  -49.3334 H         1 UNK         0.3000 
    196 H196       -3.5583  -20.9647  -49.6824 H         1 UNK         0.0600 
    197 H197       -2.6766  -18.6205  -49.2724 H         1 UNK         0.0600 
    198 H198       -1.7109  -19.5340  -50.4094 H         1 UNK         0.0600 
    199 H199       -1.1463  -19.3202  -48.7566 H         1 UNK         0.0600 
    200 H200       -2.0964  -21.7877  -46.6692 H         1 UNK         0.3000 
    201 H201       -3.7684  -20.3094  -44.8698 H         1 UNK         0.0600 
    202 H202       -1.6258  -21.4575  -44.2332 H         1 UNK         0.0600 
    203 H203       -2.3765  -23.0218  -44.5159 H         1 UNK         0.0600 
    204 H204       -2.9691  -21.9783  -43.2259 H         1 UNK         0.0600 
    205 H205       -4.2355  -23.2178  -46.8118 H         1 UNK         0.3000 
    206 H206       -6.9704  -23.6584  -45.6640 H         1 UNK         0.0600 
    207 H207       -5.4691  -25.6225  -45.4204 H         1 UNK         0.0600 
    208 H208       -6.7375  -25.9571  -46.5894 H         1 UNK         0.0600 
    209 H209       -5.1074  -25.5916  -47.1452 H         1 UNK         0.0600 
    210 H210       -5.0079  -23.3672  -48.6641 H         1 UNK         0.3000 
    211 H211       -7.2621  -23.6504  -50.4293 H         1 UNK         0.0600 
    212 H212       -5.5625  -23.2606  -52.1749 H         1 UNK         0.0600 
    213 H213       -4.9394  -24.3890  -50.9837 H         1 UNK         0.0600 
    214 H214       -4.3979  -22.7117  -50.9814 H         1 UNK         0.0600 
    215 H215       -6.2395  -20.9730  -48.6480 H         1 UNK         0.3000 
    216 H216       -6.7473  -18.8359  -48.5216 H         1 UNK         0.0600 
    217 H217       -8.4582  -17.7194  -49.8363 H         1 UNK         0.0600 
    218 H218       -9.0469  -19.3364  -49.4969 H         1 UNK         0.0600 
    219 H219       -8.4089  -18.9413  -51.0932 H         1 UNK         0.0600 
    220 H220       -6.4237  -16.6881  -49.8343 H         1 UNK         0.3000 
    221 H221       -3.6974  -16.7713  -50.6827 H         1 UNK         0.0600 
    222 H222       -5.6454  -14.4160  -50.5420 H         1 UNK         0.0600 
    223 H223       -4.6836  -15.0203  -49.1934 H         1 UNK         0.0600 
    224 H224       -3.8866  -14.3229  -50.5900 H         1 UNK         0.0600 
    225 H225       -5.0422  -18.2247  -52.5986 H         1 UNK         0.3000 
    226 H226       -5.1057  -16.6292  -55.1125 H         1 UNK         0.0600 
    227 H227       -6.8566  -18.3855  -54.8242 H         1 UNK         0.0600 
    228 H228       -5.7545  -18.8254  -56.1207 H         1 UNK         0.0600 
    229 H229       -5.6180  -19.6079  -54.5491 H         1 UNK         0.0600 
    230 H230       -3.2863  -16.5546  -56.3714 H         1 UNK         0.3000 
    231 H231       -0.7844  -17.1838  -55.3529 H         1 UNK         0.0600 
    232 H232       -1.1964  -15.4004  -57.0099 H         1 UNK         0.0600 
    233 H233       -1.5938  -16.5950  -58.2464 H         1 UNK         0.0600 
    234 H234        0.0428  -16.4903  -57.6087 H         1 UNK         0.0600 
    235 H235       -2.7962  -19.2014  -57.4167 H         1 UNK         0.3000 
    236 H236       -0.6435  -21.1424  -57.9677 H         1 UNK         0.0600 
    237 H237       -2.2804  -20.5589  -59.7447 H         1 UNK         0.0600 
    238 H238       -2.4179  -22.2542  -59.3101 H         1 UNK         0.0600 
    239 H239       -3.6135  -21.1031  -58.7263 H         1 UNK         0.0600 
    240 H240       -2.9143  -20.6074  -55.4210 H         1 UNK         0.3000 
    241 H241       -3.9389  -21.8025  -53.8790 H         1 UNK         0.0600 
    242 H242       -4.8973  -22.4591  -56.5990 H         1 UNK         0.3800 
    243 H243       -5.6473  -24.0222  -56.4163 H         1 UNK         0.3800 
    244 H244       -2.6190  -23.7812  -52.8536 H         1 UNK         0.0800 
    245 H245       -1.4024  -23.5003  -54.0670 H         1 UNK         0.0800 
    246 H246        0.6703  -22.2112  -53.2063 H         1 UNK         0.0800 
    247 H247       -0.1278  -21.0456  -54.2404 H         1 UNK         0.0800 
@<TRIPOS>BOND
     1    1    2 1    
     2    1  127 1    
     3    1  128 1    
     4    1  129 1    
     5    2    3 2    
     6    2    4 am   BACKBONE|DICT|INTERRES
     7    4    5 1    
     8    4  130 1    
     9    5    6 1    
    10    5   65 1    
    11    5  131 1    
    12    6    7 1    
    13    6  132 1    
    14    6  133 1    
    15    7    8 1    
    16    8    9 1    
    17    8  134 1    
    18    8  135 1    
    19    9   10 ar   
    20    9   14 ar   
    21   10   11 ar   
    22   10  136 1    
    23   11   12 ar   
    24   11  126 1    
    25   12   13 ar   
    26   12  137 1    
    27   13   14 ar   
    28   13   15 1    
    29   14  138 1    
    30   15   16 1    
    31   15  139 1    
    32   15  140 1    
    33   16   17 1    
    34   17   18 1    
    35   17  141 1    
    36   17  142 1    
    37   18   19 1    
    38   18   67 1    
    39   18  143 1    
    40   19   20 am   BACKBONE|DICT|INTERRES
    41   19  144 1    
    42   20   21 2    
    43   20   22 1    
    44   22   23 1    
    45   22   24 1    
    46   22  145 1    
    47   23  146 1    
    48   23  147 1    
    49   23  148 1    
    50   24   25 am   BACKBONE|DICT|INTERRES
    51   24  149 1    
    52   25   26 2    
    53   25   27 1    
    54   27   28 1    
    55   27   29 1    
    56   27  150 1    
    57   28  151 1    
    58   28  152 1    
    59   28  153 1    
    60   29   30 am   BACKBONE|DICT|INTERRES
    61   29  154 1    
    62   30   31 2    
    63   30   32 1    
    64   32   33 1    
    65   32   34 1    
    66   32  155 1    
    67   33  156 1    
    68   33  157 1    
    69   33  158 1    
    70   34   35 am   BACKBONE|DICT|INTERRES
    71   34  159 1    
    72   35   36 2    
    73   35   37 1    
    74   37   38 1    
    75   37   39 1    
    76   37  160 1    
    77   38  161 1    
    78   38  162 1    
    79   38  163 1    
    80   39   40 am   BACKBONE|DICT|INTERRES
    81   39  164 1    
    82   40   41 2    
    83   40   42 1    
    84   42   43 1    
    85   42   44 1    
    86   42  165 1    
    87   43  166 1    
    88   43  167 1    
    89   43  168 1    
    90   44   45 am   BACKBONE|DICT|INTERRES
    91   44  169 1    
    92   45   46 2    
    93   45   47 1    
    94   47   48 1    
    95   47   49 1    
    96   47  170 1    
    97   48  171 1    
    98   48  172 1    
    99   48  173 1    
   100   49   50 am   BACKBONE|DICT|INTERRES
   101   49  174 1    
   102   50   51 2    
   103   50   52 1    
   104   52   53 1    
   105   52   54 1    
   106   52  175 1    
   107   53  176 1    
   108   53  177 1    
   109   53  178 1    
   110   54   55 am   BACKBONE|DICT|INTERRES
   111   54  179 1    
   112   55   56 2    
   113   55   57 1    
   114   57   58 1    
   115   57   59 1    
   116   57  180 1    
   117   58  181 1    
   118   58  182 1    
   119   58  183 1    
   120   59   60 am   BACKBONE|DICT|INTERRES
   121   59  184 1    
   122   60   61 2    
   123   60   62 1    
   124   62   63 1    
   125   62   64 1    
   126   62  185 1    
   127   63  186 1    
   128   63  187 1    
   129   63  188 1    
   130   64   65 am   BACKBONE|DICT|INTERRES
   131   64  189 1    
   132   65   66 2    
   133   67   68 2    
   134   67   69 am   BACKBONE|DICT|INTERRES
   135   69   70 1    
   136   69  190 1    
   137   70   71 1    
   138   70   72 1    
   139   70  191 1    
   140   71  192 1    
   141   71  193 1    
   142   71  194 1    
   143   72   73 2    
   144   72   74 am   BACKBONE|DICT|INTERRES
   145   74   75 1    
   146   74  195 1    
   147   75   76 1    
   148   75   77 1    
   149   75  196 1    
   150   76  197 1    
   151   76  198 1    
   152   76  199 1    
   153   77   78 2    
   154   77   79 am   BACKBONE|DICT|INTERRES
   155   79   80 1    
   156   79  200 1    
   157   80   81 1    
   158   80   82 1    
   159   80  201 1    
   160   81  202 1    
   161   81  203 1    
   162   81  204 1    
   163   82   83 2    
   164   82   84 am   BACKBONE|DICT|INTERRES
   165   84   85 1    
   166   84  205 1    
   167   85   86 1    
   168   85   87 1    
   169   85  206 1    
   170   86  207 1    
   171   86  208 1    
   172   86  209 1    
   173   87   88 2    
   174   87   89 am   BACKBONE|DICT|INTERRES
   175   89   90 1    
   176   89  210 1    
   177   90   91 1    
   178   90   92 1    
   179   90  211 1    
   180   91  212 1    
   181   91  213 1    
   182   91  214 1    
   183   92   93 2    
   184   92   94 am   BACKBONE|DICT|INTERRES
   185   94   95 1    
   186   94  215 1    
   187   95   96 1    
   188   95   97 1    
   189   95  216 1    
   190   96  217 1    
   191   96  218 1    
   192   96  219 1    
   193   97   98 2    
   194   97   99 am   BACKBONE|DICT|INTERRES
   195   99  100 1    
   196   99  220 1    
   197  100  101 1    
   198  100  102 1    
   199  100  221 1    
   200  101  222 1    
   201  101  223 1    
   202  101  224 1    
   203  102  103 2    
   204  102  104 am   BACKBONE|DICT|INTERRES
   205  104  105 1    
   206  104  225 1    
   207  105  106 1    
   208  105  107 1    
   209  105  226 1    
   210  106  227 1    
   211  106  228 1    
   212  106  229 1    
   213  107  108 2    
   214  107  109 am   BACKBONE|DICT|INTERRES
   215  109  110 1    
   216  109  230 1    
   217  110  111 1    
   218  110  112 1    
   219  110  231 1    
   220  111  232 1    
   221  111  233 1    
   222  111  234 1    
   223  112  113 2    
   224  112  114 am   BACKBONE|DICT|INTERRES
   225  114  115 1    
   226  114  235 1    
   227  115  116 1    
   228  115  117 1    
   229  115  236 1    
   230  116  237 1    
   231  116  238 1    
   232  116  239 1    
   233  117  118 2    
   234  117  119 am   BACKBONE|DICT|INTERRES
   235  119  120 1    
   236  119  240 1    
   237  120  121 1    
   238  120  124 1    
   239  120  241 1    
   240  121  122 am   BACKBONE|DICT|INTERRES
   241  121  123 2    
   242  122  242 1    
   243  122  243 1    
   244  124  125 1    
   245  124  244 1    
   246  124  245 1    
   247  125  126 1    
   248  126  246 1    
   249  126  247 1    
@<TRIPOS>SUBSTRUCTURE
     1 UNK         1 GROUP             0       ****    0 ROOT    
