@<TRIPOS>MOLECULE
3R540
247   249    1
SMALL
USER_CHARGES


@<TRIPOS>ATOM
      1 CA         -2.1489  -12.2806  -50.4201 C.3       0 UNK        -0.1800 
      2 C          -1.0274  -12.9769  -49.6643 C.2       0 UNK         0.5000 
      3 O          -0.9918  -12.9246  -48.4364 O.2       0 UNK        -0.5000 
      4 N          -0.1175  -13.6406  -50.3896 N.am      1 UNK        -0.5000 
      5 CA          1.0582  -14.3355  -49.8467 C.3       1 UNK         0.1400 
      6 C6          1.9816  -14.8218  -50.9885 C.3       23 UNK        -0.0398 
      7 S7          3.6418  -15.3135  -50.4137 S.3       23 UNK        -0.2404 
      8 C8          3.9952  -16.7371  -51.4922 C.3       23 UNK        -0.0205 
      9 C9          3.0749  -17.9217  -51.2295 C.ar      23 UNK        -0.0193 
     10 C10         2.1343  -18.3120  -52.1882 C.ar      23 UNK        -0.1150 
     11 C11         1.3263  -19.4318  -51.9738 C.ar      23 UNK        -0.0193 
     12 C12         1.4578  -20.1587  -50.7862 C.ar      23 UNK        -0.1150 
     13 C13         2.3921  -19.7776  -49.8200 C.ar      23 UNK        -0.0193 
     14 C14         3.1956  -18.6565  -50.0466 C.ar      23 UNK        -0.1150 
     15 C15         2.5830  -20.6067  -48.5596 C.3       23 UNK        -0.0205 
     16 S16         1.7020  -19.9096  -47.1288 S.3       23 UNK        -0.2404 
     17 C17         0.1045  -20.7949  -47.1679 C.3       23 UNK        -0.0398 
     18 CA          0.1984  -22.2400  -46.6172 C.3       11 UNK         0.1400 
     19 N           0.8320  -22.3210  -45.2970 N.am      11 UNK        -0.5000 
     20 C           1.2660  -23.4620  -44.7443 C.2       10 UNK         0.5000 
     21 O           1.1841  -24.5590  -45.2953 O.2       10 UNK        -0.5000 
     22 CA          1.8489  -23.3722  -43.3252 C.3       10 UNK         0.1400 
     23 CB          3.3265  -22.9539  -43.3616 C.3       10 UNK        -0.1800 
     24 N           1.0896  -22.4439  -42.4901 N.am      10 UNK        -0.5000 
     25 C          -0.1292  -22.7022  -41.9964 C.2       9 UNK         0.5000 
     26 O          -0.7225  -23.7681  -42.1644 O.2       9 UNK        -0.5000 
     27 CA         -0.8174  -21.5615  -41.2233 C.3       9 UNK         0.1400 
     28 CB         -0.3308  -21.5191  -39.7674 C.3       9 UNK        -0.1800 
     29 N          -0.6074  -20.2528  -41.8440 N.am      9 UNK        -0.5000 
     30 C          -1.0766  -19.9112  -43.0525 C.2       8 UNK         0.5000 
     31 O          -1.7623  -20.6550  -43.7498 O.2       8 UNK        -0.5000 
     32 CA         -0.6857  -18.5291  -43.6018 C.3       8 UNK         0.1400 
     33 CB         -1.7405  -17.4899  -43.1959 C.3       8 UNK        -0.1800 
     34 N           0.6437  -18.0612  -43.2039 N.am      8 UNK        -0.5000 
     35 C           1.7899  -18.7386  -43.3696 C.2       7 UNK         0.5000 
     36 O           1.8527  -19.8769  -43.8333 O.2       7 UNK        -0.5000 
     37 CA          3.0800  -18.0528  -42.8907 C.3       7 UNK         0.1400 
     38 CB          3.6373  -17.1353  -43.9882 C.3       7 UNK        -0.1800 
     39 N           2.9052  -17.2816  -41.6598 N.am      7 UNK        -0.5000 
     40 C           2.5215  -17.7681  -40.4728 C.2       6 UNK         0.5000 
     41 O           2.2609  -18.9558  -40.2769 O.2       6 UNK        -0.5000 
     42 CA          2.3736  -16.7637  -39.3108 C.3       6 UNK         0.1400 
     43 CB          3.7262  -16.5043  -38.6203 C.3       6 UNK        -0.1800 
     44 N           1.6977  -15.5094  -39.6757 N.am      6 UNK        -0.5000 
     45 C           2.1152  -14.5316  -40.4918 C.2       5 UNK         0.5000 
     46 O           3.2171  -14.5090  -41.0456 O.2       5 UNK        -0.5000 
     47 CA          1.1053  -13.4003  -40.7602 C.3       5 UNK         0.1400 
     48 CB          1.4970  -12.1328  -39.9856 C.3       5 UNK        -0.1800 
     49 N           0.9769  -13.0737  -42.1831 N.am      5 UNK        -0.5000 
     50 C           0.6650  -13.9392  -43.1578 C.2       4 UNK         0.5000 
     51 O           0.4972  -15.1482  -42.9787 O.2       4 UNK        -0.5000 
     52 CA          0.5354  -13.3484  -44.5747 C.3       4 UNK         0.1400 
     53 CB          1.8778  -13.4183  -45.3168 C.3       4 UNK        -0.1800 
     54 N          -0.4842  -14.0371  -45.3668 N.am      4 UNK        -0.5000 
     55 C          -1.8047  -13.9737  -45.1347 C.2       3 UNK         0.5000 
     56 O          -2.2980  -13.2861  -44.2389 O.2       3 UNK        -0.5000 
     57 CA         -2.7393  -14.8028  -46.0413 C.3       3 UNK         0.1400 
     58 CB         -3.8409  -13.9266  -46.6631 C.3       3 UNK        -0.1800 
     59 N          -2.0056  -15.4680  -47.1182 N.am      3 UNK        -0.5000 
     60 C          -1.8167  -16.7900  -47.2263 C.2       2 UNK         0.5000 
     61 O          -2.3180  -17.6098  -46.4587 O.2       2 UNK        -0.5000 
     62 CA         -0.9239  -17.2995  -48.3777 C.3       2 UNK         0.1400 
     63 CB         -1.6650  -18.3084  -49.2672 C.3       2 UNK        -0.1800 
     64 N          -0.3651  -16.2378  -49.2178 N.am      2 UNK        -0.5000 
     65 C           0.6764  -15.4707  -48.8688 C.2       1 UNK         0.5000 
     66 O           1.2657  -15.5794  -47.7938 O.2       1 UNK        -0.5000 
     67 C          -1.1699  -22.9560  -46.6366 C.2       11 UNK         0.5000 
     68 O          -1.4627  -23.6713  -47.5944 O.2       11 UNK        -0.5000 
     69 N          -1.9535  -22.8163  -45.5572 N.am      12 UNK        -0.5000 
     70 CA         -3.2081  -23.5389  -45.3435 C.3       12 UNK         0.1400 
     71 CB         -3.9379  -22.9696  -44.1182 C.3       12 UNK        -0.1800 
     72 C          -3.0000  -25.0562  -45.1920 C.2       12 UNK         0.5000 
     73 O          -3.7720  -25.8266  -45.7619 O.2       12 UNK        -0.5000 
     74 N          -1.9412  -25.4659  -44.4760 N.am      13 UNK        -0.5000 
     75 CA         -1.5339  -26.8688  -44.3349 C.3       13 UNK         0.1400 
     76 CB         -0.4356  -26.9869  -43.2680 C.3       13 UNK        -0.1800 
     77 C          -1.0790  -27.4992  -45.6673 C.2       13 UNK         0.5000 
     78 O          -1.3278  -28.6829  -45.8971 O.2       13 UNK        -0.5000 
     79 N          -0.4697  -26.6849  -46.5395 N.am      14 UNK        -0.5000 
     80 CA         -0.1109  -27.0276  -47.9179 C.3       14 UNK         0.1400 
     81 CB          1.0023  -26.0765  -48.3890 C.3       14 UNK        -0.1800 
     82 C          -1.3089  -27.0008  -48.8954 C.2       14 UNK         0.5000 
     83 O          -1.1270  -27.3311  -50.0679 O.2       14 UNK        -0.5000 
     84 N          -2.4983  -26.6125  -48.4090 N.am      15 UNK        -0.5000 
     85 CA         -3.7730  -26.4923  -49.1245 C.3       15 UNK         0.1400 
     86 CB         -4.2389  -27.8594  -49.6689 C.3       15 UNK        -0.1800 
     87 C          -3.7866  -25.3764  -50.1905 C.2       15 UNK         0.5000 
     88 O          -4.5402  -25.4652  -51.1622 O.2       15 UNK        -0.5000 
     89 N          -2.9747  -24.3328  -49.9836 N.am      16 UNK        -0.5000 
     90 CA         -2.9680  -23.1145  -50.7886 C.3       16 UNK         0.1400 
     91 CB         -1.5586  -22.5120  -50.7384 C.3       16 UNK        -0.1800 
     92 C          -4.0180  -22.1134  -50.2683 C.2       16 UNK         0.5000 
     93 O          -4.5099  -22.2564  -49.1452 O.2       16 UNK        -0.5000 
     94 N          -4.3367  -21.1078  -51.0895 N.am      17 UNK        -0.5000 
     95 CA         -5.3161  -20.0691  -50.7918 C.3       17 UNK         0.1400 
     96 CB         -6.7246  -20.5515  -51.1762 C.3       17 UNK        -0.1800 
     97 C          -4.9405  -18.8010  -51.5640 C.2       17 UNK         0.5000 
     98 O          -4.6841  -18.8768  -52.7702 O.2       17 UNK        -0.5000 
     99 N          -4.9204  -17.6619  -50.8610 N.am      18 UNK        -0.5000 
    100 CA        -4.5780  -16.3484  -51.4041 C.3       18 UNK         0.1400 
    101 CB        -4.5386  -15.3200  -50.2646 C.3       18 UNK        -0.1800 
    102 C         -5.5621  -15.9170  -52.5035 C.2       18 UNK         0.5000 
    103 O         -6.7749  -16.0003  -52.2968 O.2       18 UNK        -0.5000 
    104 N         -5.0162  -15.5079  -53.6567 N.am      19 UNK        -0.5000 
    105 CA        -5.6848  -15.1394  -54.9132 C.3       19 UNK         0.1400 
    106 CB        -6.6249  -13.9336  -54.7238 C.3       19 UNK        -0.1800 
    107 C         -6.4079  -16.3055  -55.6200 C.2       19 UNK         0.5000 
    108 O         -6.2715  -16.4460  -56.8353 O.2       19 UNK        -0.5000 
    109 N         -7.1442  -17.1240  -54.8588 N.am      20 UNK        -0.5000 
    110 CA        -7.9211  -18.2699  -55.3302 C.3       20 UNK         0.1400 
    111 CB        -8.7761  -18.8072  -54.1732 C.3       20 UNK        -0.1800 
    112 C         -7.0578  -19.3898  -55.9387 C.2       20 UNK         0.5000 
    113 O         -7.4517  -19.9649  -56.9546 O.2       20 UNK        -0.5000 
    114 N         -5.8995  -19.6618  -55.3244 N.am      21 UNK        -0.5000 
    115 CA        -4.8985  -20.6047  -55.8229 C.3       21 UNK         0.1400 
    116 CB        -4.6712  -21.7156  -54.7849 C.3       21 UNK        -0.1800 
    117 C         -3.5831  -19.8766  -56.1358 C.2       21 UNK         0.5000 
    118 O         -2.9745  -20.1480  -57.1713 O.2       21 UNK        -0.5000 
    119 N         -3.1713  -18.9629  -55.2468 N.am      22 UNK        -0.5000 
    120 CA        -1.8971  -18.2261  -55.3351 C.3       22 UNK         0.1400 
    121 C         -1.9044  -17.0163  -56.3157 C.2       22 UNK         0.5000 
    122 N         -3.0107  -16.6886  -56.9712 N.am      22 UNK        -0.7600 
    123 O         -0.8804  -16.3624  -56.4917 O.2       22 UNK        -0.5000 
    124 C124       -1.3649  -17.8109  -53.9374 C.3       23 UNK        -0.0398 
    125 S125       -1.3177  -19.2045  -52.7631 S.3       23 UNK        -0.2404 
    126 C126        0.3436  -19.8880  -53.0404 C.3       23 UNK        -0.0205 
    127 H127       -3.0912  -12.3922  -49.8840 H         1 UNK         0.0600 
    128 H128       -2.2758  -12.6916  -51.4218 H         1 UNK         0.0600 
    129 H129       -1.9339  -11.2159  -50.5087 H         1 UNK         0.0600 
    130 H130       -0.2021  -13.6395  -51.3960 H         1 UNK         0.3000 
    131 H131        1.6112  -13.5928  -49.2669 H         1 UNK         0.0600 
    132 H132        1.5081  -15.6352  -51.5389 H         1 UNK         0.0800 
    133 H133        2.1272  -14.0191  -51.7128 H         1 UNK         0.0800 
    134 H134        3.9337  -16.4200  -52.5344 H         1 UNK         0.0800 
    135 H135        5.0279  -17.0497  -51.3314 H         1 UNK         0.0800 
    136 H136        2.0440  -17.7569  -53.1112 H         1 UNK         0.1150 
    137 H137        0.8464  -21.0336  -50.6229 H         1 UNK         0.1150 
    138 H138        3.9276  -18.3629  -49.3072 H         1 UNK         0.1150 
    139 H139        2.2787  -21.6396  -48.7305 H         1 UNK         0.0800 
    140 H140        3.6461  -20.6482  -48.3183 H         1 UNK         0.0800 
    141 H141       -0.2648  -20.7936  -48.1932 H         1 UNK         0.0800 
    142 H142       -0.6123  -20.2139  -46.5851 H         1 UNK         0.0800 
    143 H143        0.8389  -22.7996  -47.3012 H         1 UNK         0.0600 
    144 H144        0.9907  -21.4468  -44.8055 H         1 UNK         0.3000 
    145 H145        1.7922  -24.3656  -42.8752 H         1 UNK         0.0600 
    146 H146        3.7496  -22.9128  -42.3579 H         1 UNK         0.0600 
    147 H147        3.9172  -23.6695  -43.9348 H         1 UNK         0.0600 
    148 H148        3.4625  -21.9758  -43.8234 H         1 UNK         0.0600 
    149 H149        1.4687  -21.5107  -42.3920 H         1 UNK         0.3000 
    150 H150       -1.8905  -21.7641  -41.2187 H         1 UNK         0.0600 
    151 H151       -0.4967  -22.4770  -39.2726 H         1 UNK         0.0600 
    152 H152       -0.8651  -20.7608  -39.1948 H         1 UNK         0.0600 
    153 H153        0.7353  -21.2970  -39.7049 H         1 UNK         0.0600 
    154 H154       -0.0127  -19.6007  -41.3516 H         1 UNK         0.3000 
    155 H155       -0.6775  -18.6089  -44.6892 H         1 UNK         0.0600 
    156 H156       -1.7189  -17.2888  -42.1244 H         1 UNK         0.0600 
    157 H157       -1.5815  -16.5495  -43.7192 H         1 UNK         0.0600 
    158 H158       -2.7454  -17.8289  -43.4518 H         1 UNK         0.0600 
    159 H159        0.6948  -17.1036  -42.8673 H         1 UNK         0.3000 
    160 H160        3.8146  -18.8355  -42.6907 H         1 UNK         0.0600 
    161 H161        4.6021  -16.7166  -43.7019 H         1 UNK         0.0600 
    162 H162        2.9598  -16.3068  -44.1949 H         1 UNK         0.0600 
    163 H163        3.7815  -17.6827  -44.9210 H         1 UNK         0.0600 
    164 H164        3.0892  -16.2835  -41.7114 H         1 UNK         0.3000 
    165 H165        1.7233  -17.2394  -38.5749 H         1 UNK         0.0600 
    166 H166        3.6115  -15.8356  -37.7672 H         1 UNK         0.0600 
    167 H167        4.1549  -17.4355  -38.2481 H         1 UNK         0.0600 
    168 H168        4.4560  -16.0616  -39.2985 H         1 UNK         0.0600 
    169 H169        0.7624  -15.4251  -39.3022 H         1 UNK         0.3000 
    170 H170        0.1201  -13.7211  -40.4154 H         1 UNK         0.0600 
    171 H171        1.5794  -12.3374  -38.9173 H         1 UNK         0.0600 
    172 H172        2.4583  -11.7396  -40.3192 H         1 UNK         0.0600 
    173 H173        0.7512  -11.3472  -40.1080 H         1 UNK         0.0600 
    174 H174        1.1328  -12.1071  -42.4279 H         1 UNK         0.3000 
    175 H175        0.2433  -12.2995  -44.4905 H         1 UNK         0.0600 
    176 H176        1.8076  -12.9550  -46.3014 H         1 UNK         0.0600 
    177 H177        2.2055  -14.4484  -45.4572 H         1 UNK         0.0600 
    178 H178        2.6606  -12.8965  -44.7650 H         1 UNK         0.0600 
    179 H179       -0.1453  -14.6424  -46.1016 H         1 UNK         0.3000 
    180 H180       -3.2240  -15.5386  -45.3969 H         1 UNK         0.0600 
    181 H181       -3.4254  -13.1390  -47.2918 H         1 UNK         0.0600 
    182 H182       -4.4435  -13.4459  -45.8916 H         1 UNK         0.0600 
    183 H183       -4.5183  -14.5222  -47.2747 H         1 UNK         0.0600 
    184 H184       -1.5476  -14.8460  -47.7746 H         1 UNK         0.3000 
    185 H185       -0.0972  -17.8275  -47.9029 H         1 UNK         0.0600 
    186 H186       -2.3960  -17.8179  -49.9060 H         1 UNK         0.0600 
    187 H187       -0.9618  -18.8382  -49.9073 H         1 UNK         0.0600 
    188 H188       -2.1895  -19.0631  -48.6798 H         1 UNK         0.0600 
    189 H189       -0.8186  -16.0708  -50.1032 H         1 UNK         0.3000 
    190 H190       -1.6855  -22.1591  -44.8281 H         1 UNK         0.3000 
    191 H191       -3.8391  -23.3765  -46.2203 H         1 UNK         0.0600 
    192 H192       -4.1814  -21.9166  -44.2604 H         1 UNK         0.0600 
    193 H193       -4.8751  -23.4980  -43.9396 H         1 UNK         0.0600 
    194 H194       -3.3335  -23.0545  -43.2142 H         1 UNK         0.0600 
    195 H195       -1.3730  -24.7766  -43.9980 H         1 UNK         0.3000 
    196 H196       -2.4021  -27.4319  -43.9863 H         1 UNK         0.0600 
    197 H197       -0.1498  -28.0286  -43.1170 H         1 UNK         0.0600 
    198 H198       -0.7761  -26.6011  -42.3070 H         1 UNK         0.0600 
    199 H199        0.4632  -26.4392  -43.5493 H         1 UNK         0.0600 
    200 H200       -0.2383  -25.7450  -46.2364 H         1 UNK         0.3000 
    201 H201        0.2888  -28.0435  -47.9272 H         1 UNK         0.0600 
    202 H202        1.8583  -26.1052  -47.7145 H         1 UNK         0.0600 
    203 H203        0.6551  -25.0452  -48.4448 H         1 UNK         0.0600 
    204 H204        1.3615  -26.3538  -49.3806 H         1 UNK         0.0600 
    205 H205       -2.5393  -26.3448  -47.4334 H         1 UNK         0.3000 
    206 H206       -4.5016  -26.1827  -48.3745 H         1 UNK         0.0600 
    207 H207       -4.2229  -28.6204  -48.8887 H         1 UNK         0.0600 
    208 H208       -5.2617  -27.8029  -50.0431 H         1 UNK         0.0600 
    209 H209       -3.6114  -28.2057  -50.4903 H         1 UNK         0.0600 
    210 H210       -2.4330  -24.2947  -49.1239 H         1 UNK         0.3000 
    211 H211       -3.2029  -23.3599  -51.8266 H         1 UNK         0.0600 
    212 H212       -1.3122  -22.1467  -49.7433 H         1 UNK         0.0600 
    213 H213       -1.4762  -21.6724  -51.4231 H         1 UNK         0.0600 
    214 H214       -0.8019  -23.2417  -51.0272 H         1 UNK         0.0600 
    215 H215       -3.8556  -20.9950  -51.9716 H         1 UNK         0.3000 
    216 H216       -5.2951  -19.8449  -49.7229 H         1 UNK         0.0600 
    217 H217       -7.4675  -19.7735  -50.9962 H         1 UNK         0.0600 
    218 H218       -7.0174  -21.4219  -50.5890 H         1 UNK         0.0600 
    219 H219       -6.7790  -20.8271  -52.2303 H         1 UNK         0.0600 
    220 H220       -5.1923  -17.6827  -49.8895 H         1 UNK         0.3000 
    221 H221       -3.5764  -16.4187  -51.8314 H         1 UNK         0.0600 
    222 H222       -5.4932  -15.2633  -49.7401 H         1 UNK         0.0600 
    223 H223       -3.7673  -15.5662  -49.5352 H         1 UNK         0.0600 
    224 H224       -4.3186  -14.3240  -50.6484 H         1 UNK         0.0600 
    225 H225       -4.0085  -15.4943  -53.7126 H         1 UNK         0.3000 
    226 H226       -4.8853  -14.8203  -55.5837 H         1 UNK         0.0600 
    227 H227       -6.0987  -13.0902  -54.2769 H         1 UNK         0.0600 
    228 H228       -7.0216  -13.5981  -55.6827 H         1 UNK         0.0600 
    229 H229       -7.4772  -14.1728  -54.0875 H         1 UNK         0.0600 
    230 H230       -7.1923  -16.9092  -53.8661 H         1 UNK         0.3000 
    231 H231       -8.5944  -17.9131  -56.1123 H         1 UNK         0.0600 
    232 H232       -8.1589  -19.1129  -53.3290 H         1 UNK         0.0600 
    233 H233       -9.3619  -19.6726  -54.4857 H         1 UNK         0.0600 
    234 H234       -9.4764  -18.0513  -53.8177 H         1 UNK         0.0600 
    235 H235       -5.6565  -19.1531  -54.4811 H         1 UNK         0.3000 
    236 H236       -5.2375  -21.0759  -56.7477 H         1 UNK         0.0600 
    237 H237       -5.6029  -22.2271  -54.5430 H         1 UNK         0.0600 
    238 H238       -3.9756  -22.4651  -55.1641 H         1 UNK         0.0600 
    239 H239       -4.2538  -21.3237  -53.8591 H         1 UNK         0.0600 
    240 H240       -3.6967  -18.8387  -54.3865 H         1 UNK         0.3000 
    241 H241       -1.1593  -18.9152  -55.7505 H         1 UNK         0.0600 
    242 H242       -3.8538  -17.2318  -56.8708 H         1 UNK         0.3800 
    243 H243       -2.9906  -15.9127  -57.6138 H         1 UNK         0.3800 
    244 H244       -0.3668  -17.3761  -54.0112 H         1 UNK         0.0800 
    245 H245       -2.0009  -17.0366  -53.5093 H         1 UNK         0.0800 
    246 H246        0.7041  -19.6206  -54.0346 H         1 UNK         0.0800 
    247 H247        0.2783  -20.9768  -53.0329 H         1 UNK         0.0800 
@<TRIPOS>BOND
     1    1    2 1    
     2    1  127 1    
     3    1  128 1    
     4    1  129 1    
     5    2    3 2    
     6    2    4 am   BACKBONE|DICT|INTERRES
     7    4    5 1    
     8    4  130 1    
     9    5    6 1    
    10    5   65 1    
    11    5  131 1    
    12    6    7 1    
    13    6  132 1    
    14    6  133 1    
    15    7    8 1    
    16    8    9 1    
    17    8  134 1    
    18    8  135 1    
    19    9   10 ar   
    20    9   14 ar   
    21   10   11 ar   
    22   10  136 1    
    23   11   12 ar   
    24   11  126 1    
    25   12   13 ar   
    26   12  137 1    
    27   13   14 ar   
    28   13   15 1    
    29   14  138 1    
    30   15   16 1    
    31   15  139 1    
    32   15  140 1    
    33   16   17 1    
    34   17   18 1    
    35   17  141 1    
    36   17  142 1    
    37   18   19 1    
    38   18   67 1    
    39   18  143 1    
    40   19   20 am   BACKBONE|DICT|INTERRES
    41   19  144 1    
    42   20   21 2    
    43   20   22 1    
    44   22   23 1    
    45   22   24 1    
    46   22  145 1    
    47   23  146 1    
    48   23  147 1    
    49   23  148 1    
    50   24   25 am   BACKBONE|DICT|INTERRES
    51   24  149 1    
    52   25   26 2    
    53   25   27 1    
    54   27   28 1    
    55   27   29 1    
    56   27  150 1    
    57   28  151 1    
    58   28  152 1    
    59   28  153 1    
    60   29   30 am   BACKBONE|DICT|INTERRES
    61   29  154 1    
    62   30   31 2    
    63   30   32 1    
    64   32   33 1    
    65   32   34 1    
    66   32  155 1    
    67   33  156 1    
    68   33  157 1    
    69   33  158 1    
    70   34   35 am   BACKBONE|DICT|INTERRES
    71   34  159 1    
    72   35   36 2    
    73   35   37 1    
    74   37   38 1    
    75   37   39 1    
    76   37  160 1    
    77   38  161 1    
    78   38  162 1    
    79   38  163 1    
    80   39   40 am   BACKBONE|DICT|INTERRES
    81   39  164 1    
    82   40   41 2    
    83   40   42 1    
    84   42   43 1    
    85   42   44 1    
    86   42  165 1    
    87   43  166 1    
    88   43  167 1    
    89   43  168 1    
    90   44   45 am   BACKBONE|DICT|INTERRES
    91   44  169 1    
    92   45   46 2    
    93   45   47 1    
    94   47   48 1    
    95   47   49 1    
    96   47  170 1    
    97   48  171 1    
    98   48  172 1    
    99   48  173 1    
   100   49   50 am   BACKBONE|DICT|INTERRES
   101   49  174 1    
   102   50   51 2    
   103   50   52 1    
   104   52   53 1    
   105   52   54 1    
   106   52  175 1    
   107   53  176 1    
   108   53  177 1    
   109   53  178 1    
   110   54   55 am   BACKBONE|DICT|INTERRES
   111   54  179 1    
   112   55   56 2    
   113   55   57 1    
   114   57   58 1    
   115   57   59 1    
   116   57  180 1    
   117   58  181 1    
   118   58  182 1    
   119   58  183 1    
   120   59   60 am   BACKBONE|DICT|INTERRES
   121   59  184 1    
   122   60   61 2    
   123   60   62 1    
   124   62   63 1    
   125   62   64 1    
   126   62  185 1    
   127   63  186 1    
   128   63  187 1    
   129   63  188 1    
   130   64   65 am   BACKBONE|DICT|INTERRES
   131   64  189 1    
   132   65   66 2    
   133   67   68 2    
   134   67   69 am   BACKBONE|DICT|INTERRES
   135   69   70 1    
   136   69  190 1    
   137   70   71 1    
   138   70   72 1    
   139   70  191 1    
   140   71  192 1    
   141   71  193 1    
   142   71  194 1    
   143   72   73 2    
   144   72   74 am   BACKBONE|DICT|INTERRES
   145   74   75 1    
   146   74  195 1    
   147   75   76 1    
   148   75   77 1    
   149   75  196 1    
   150   76  197 1    
   151   76  198 1    
   152   76  199 1    
   153   77   78 2    
   154   77   79 am   BACKBONE|DICT|INTERRES
   155   79   80 1    
   156   79  200 1    
   157   80   81 1    
   158   80   82 1    
   159   80  201 1    
   160   81  202 1    
   161   81  203 1    
   162   81  204 1    
   163   82   83 2    
   164   82   84 am   BACKBONE|DICT|INTERRES
   165   84   85 1    
   166   84  205 1    
   167   85   86 1    
   168   85   87 1    
   169   85  206 1    
   170   86  207 1    
   171   86  208 1    
   172   86  209 1    
   173   87   88 2    
   174   87   89 am   BACKBONE|DICT|INTERRES
   175   89   90 1    
   176   89  210 1    
   177   90   91 1    
   178   90   92 1    
   179   90  211 1    
   180   91  212 1    
   181   91  213 1    
   182   91  214 1    
   183   92   93 2    
   184   92   94 am   BACKBONE|DICT|INTERRES
   185   94   95 1    
   186   94  215 1    
   187   95   96 1    
   188   95   97 1    
   189   95  216 1    
   190   96  217 1    
   191   96  218 1    
   192   96  219 1    
   193   97   98 2    
   194   97   99 am   BACKBONE|DICT|INTERRES
   195   99  100 1    
   196   99  220 1    
   197  100  101 1    
   198  100  102 1    
   199  100  221 1    
   200  101  222 1    
   201  101  223 1    
   202  101  224 1    
   203  102  103 2    
   204  102  104 am   BACKBONE|DICT|INTERRES
   205  104  105 1    
   206  104  225 1    
   207  105  106 1    
   208  105  107 1    
   209  105  226 1    
   210  106  227 1    
   211  106  228 1    
   212  106  229 1    
   213  107  108 2    
   214  107  109 am   BACKBONE|DICT|INTERRES
   215  109  110 1    
   216  109  230 1    
   217  110  111 1    
   218  110  112 1    
   219  110  231 1    
   220  111  232 1    
   221  111  233 1    
   222  111  234 1    
   223  112  113 2    
   224  112  114 am   BACKBONE|DICT|INTERRES
   225  114  115 1    
   226  114  235 1    
   227  115  116 1    
   228  115  117 1    
   229  115  236 1    
   230  116  237 1    
   231  116  238 1    
   232  116  239 1    
   233  117  118 2    
   234  117  119 am   BACKBONE|DICT|INTERRES
   235  119  120 1    
   236  119  240 1    
   237  120  121 1    
   238  120  124 1    
   239  120  241 1    
   240  121  122 am   BACKBONE|DICT|INTERRES
   241  121  123 2    
   242  122  242 1    
   243  122  243 1    
   244  124  125 1    
   245  124  244 1    
   246  124  245 1    
   247  125  126 1    
   248  126  246 1    
   249  126  247 1    
@<TRIPOS>SUBSTRUCTURE
     1 UNK         1 GROUP             0       ****    0 ROOT    
