@<TRIPOS>MOLECULE
3R540
247   249    1
SMALL
USER_CHARGES


@<TRIPOS>ATOM
      1 CA         -0.8515  -10.2790  -45.7750 C.3       0 UNK        -0.1800 
      2 C          -0.9438  -11.7926  -45.8911 C.2       0 UNK         0.5000 
      3 O          -0.1213  -12.5023  -45.3098 O.2       0 UNK        -0.5000 
      4 N          -1.9593  -12.2857  -46.6137 N.am      1 UNK        -0.5000 
      5 CA         -2.2214  -13.6893  -46.9845 C.3       1 UNK         0.1400 
      6 C6         -3.2471  -13.7816  -48.1488 C.3       23 UNK        -0.0398 
      7 S7         -2.7479  -12.8352  -49.6326 S.3       23 UNK        -0.2404 
      8 C8         -3.1550  -13.9978  -50.9852 C.3       23 UNK        -0.0205 
      9 C9         -2.0592  -15.0068  -51.3344 C.ar      23 UNK        -0.0193 
     10 C10        -1.9650  -15.4793  -52.6486 C.ar      23 UNK        -0.1150 
     11 C11        -0.9855  -16.4103  -53.0124 C.ar      23 UNK        -0.0193 
     12 C12        -0.0950  -16.8767  -52.0412 C.ar      23 UNK        -0.1150 
     13 C13        -0.1905  -16.4358  -50.7206 C.ar      23 UNK        -0.0193 
     14 C14        -1.1643  -15.4975  -50.3771 C.ar      23 UNK        -0.1150 
     15 C15         0.7439  -16.9911  -49.6588 C.3       23 UNK        -0.0205 
     16 S16         0.1938  -18.6288  -49.0914 S.3       23 UNK        -0.2404 
     17 C17        -1.3408  -18.2116  -48.1916 C.3       23 UNK        -0.0398 
     18 CA         -2.0804  -19.4696  -47.6841 C.3       11 UNK         0.1400 
     19 N          -1.2152  -20.3491  -46.8896 N.am      11 UNK        -0.5000 
     20 C          -1.5046  -21.6000  -46.5080 C.2       10 UNK         0.5000 
     21 O          -2.5687  -22.1625  -46.7616 O.2       10 UNK        -0.5000 
     22 CA         -0.4249  -22.3280  -45.6865 C.3       10 UNK         0.1400 
     23 CB          0.6337  -22.9410  -46.6157 C.3       10 UNK        -0.1800 
     24 N           0.2280  -21.4268  -44.7344 N.am      10 UNK        -0.5000 
     25 C          -0.3362  -21.0090  -43.5913 C.2       9 UNK         0.5000 
     26 O          -1.4070  -21.4390  -43.1633 O.2       9 UNK        -0.5000 
     27 CA          0.3948  -19.8927  -42.8163 C.3       9 UNK         0.1400 
     28 CB          1.3515  -20.4897  -41.7751 C.3       9 UNK        -0.1800 
     29 N           1.1282  -18.9662  -43.6858 N.am      9 UNK        -0.5000 
     30 C           0.5488  -18.1891  -44.6117 C.2       8 UNK         0.5000 
     31 O          -0.6691  -18.1381  -44.7726 O.2       8 UNK        -0.5000 
     32 CA          1.4498  -17.3603  -45.5446 C.3       8 UNK         0.1400 
     33 CB          1.0407  -15.8806  -45.5374 C.3       8 UNK        -0.1800 
     34 N           2.8823  -17.4748  -45.2720 N.am      8 UNK        -0.5000 
     35 C           3.6536  -18.4951  -45.6722 C.2       7 UNK         0.5000 
     36 O           3.2017  -19.5170  -46.1898 O.2       7 UNK        -0.5000 
     37 CA          5.1698  -18.3651  -45.4537 C.3       7 UNK         0.1400 
     38 CB          5.8227  -17.6099  -46.6224 C.3       7 UNK        -0.1800 
     39 N           5.4868  -17.6864  -44.1968 N.am      7 UNK        -0.5000 
     40 C           6.4412  -18.0747  -43.3387 C.2       6 UNK         0.5000 
     41 O           7.2069  -19.0171  -43.5471 O.2       6 UNK        -0.5000 
     42 CA          6.5608  -17.2925  -42.0118 C.3       6 UNK         0.1400 
     43 CB          7.6641  -16.2284  -42.1143 C.3       6 UNK        -0.1800 
     44 N           5.3142  -16.6425  -41.6026 N.am      6 UNK        -0.5000 
     45 C           4.1726  -17.2805  -41.3137 C.2       5 UNK         0.5000 
     46 O           4.0878  -18.5048  -41.2245 O.2       5 UNK        -0.5000 
     47 CA          2.9010  -16.4261  -41.1371 C.3       5 UNK         0.1400 
     48 CB          2.4531  -16.4218  -39.6679 C.3       5 UNK        -0.1800 
     49 N           2.9796  -15.0373  -41.6055 N.am      5 UNK        -0.5000 
     50 C           3.2690  -14.6034  -42.8396 C.2       4 UNK         0.5000 
     51 O           3.7050  -15.3347  -43.7310 O.2       4 UNK        -0.5000 
     52 CA          2.9874  -13.1111  -43.1205 C.3       4 UNK         0.1400 
     53 CB          3.2715  -12.7169  -44.5804 C.3       4 UNK        -0.1800 
     54 N           1.6005  -12.7619  -42.7981 N.am      4 UNK        -0.5000 
     55 C           1.1330  -12.5310  -41.5625 C.2       3 UNK         0.5000 
     56 O           1.8455  -12.5382  -40.5576 O.2       3 UNK        -0.5000 
     57 CA         -0.3812  -12.3030  -41.4097 C.3       3 UNK         0.1400 
     58 CB         -0.7219  -10.8188  -41.6085 C.3       3 UNK        -0.1800 
     59 N          -1.1917  -13.1110  -42.3227 N.am      3 UNK        -0.5000 
     60 C          -1.2761  -14.4514  -42.3130 C.2       2 UNK         0.5000 
     61 O          -0.6572  -15.1760  -41.5345 O.2       2 UNK        -0.5000 
     62 CA         -2.2007  -15.0804  -43.3654 C.3       2 UNK         0.1400 
     63 CB         -3.6546  -15.1037  -42.8535 C.3       2 UNK        -0.1800 
     64 N          -2.0772  -14.3360  -44.6153 N.am      2 UNK        -0.5000 
     65 C          -2.6238  -14.6110  -45.8008 C.2       1 UNK         0.5000 
     66 O          -3.3943  -15.5523  -45.9886 O.2       1 UNK        -0.5000 
     67 C          -3.3758  -19.0851  -46.9420 C.2       11 UNK         0.5000 
     68 O          -4.4094  -18.9073  -47.5869 O.2       11 UNK        -0.5000 
     69 N          -3.3112  -19.0313  -45.6036 N.am      12 UNK        -0.5000 
     70 CA         -4.4236  -18.7741  -44.6855 C.3       12 UNK         0.1400 
     71 CB         -3.8825  -18.7639  -43.2475 C.3       12 UNK        -0.1800 
     72 C          -5.5942  -19.7737  -44.8012 C.2       12 UNK         0.5000 
     73 O          -6.7106  -19.4395  -44.4033 O.2       12 UNK        -0.5000 
     74 N          -5.3358  -20.9660  -45.3595 N.am      13 UNK        -0.5000 
     75 CA         -6.3457  -21.9745  -45.6872 C.3       13 UNK         0.1400 
     76 CB         -5.6382  -23.3155  -45.9402 C.3       13 UNK        -0.1800 
     77 C          -7.2231  -21.5996  -46.9020 C.2       13 UNK         0.5000 
     78 O          -8.2384  -22.2609  -47.1247 O.2       13 UNK        -0.5000 
     79 N          -6.8160  -20.5708  -47.6642 N.am      14 UNK        -0.5000 
     80 CA         -7.3793  -20.1205  -48.9399 C.3       14 UNK         0.1400 
     81 CB         -8.8464  -19.6651  -48.7776 C.3       14 UNK        -0.1800 
     82 C          -7.1779  -21.1685  -50.0547 C.2       14 UNK         0.5000 
     83 O          -6.3314  -22.0544  -49.9136 O.2       14 UNK        -0.5000 
     84 N          -7.9186  -21.0253  -51.1643 N.am      15 UNK        -0.5000 
     85 CA         -7.9375  -21.9209  -52.3304 C.3       15 UNK         0.1400 
     86 CB         -8.6371  -23.2475  -51.9654 C.3       15 UNK        -0.1800 
     87 C          -6.5433  -22.1404  -52.9581 C.2       15 UNK         0.5000 
     88 O          -6.1841  -23.2737  -53.2788 O.2       15 UNK        -0.5000 
     89 N          -5.7686  -21.0510  -53.0773 N.am      16 UNK        -0.5000 
     90 CA         -4.3774  -21.0128  -53.5474 C.3       16 UNK         0.1400 
     91 CB         -4.2997  -21.3449  -55.0510 C.3       16 UNK        -0.1800 
     92 C          -3.4455  -21.8901  -52.6834 C.2       16 UNK         0.5000 
     93 O          -2.6872  -22.7069  -53.2121 O.2       16 UNK        -0.5000 
     94 N          -3.5539  -21.7060  -51.3600 N.am      17 UNK        -0.5000 
     95 CA         -2.8526  -22.4350  -50.3002 C.3       17 UNK         0.1400 
     96 CB         -1.3308  -22.1817  -50.3675 C.3       17 UNK        -0.1800 
     97 C          -3.2326  -23.9278  -50.2731 C.2       17 UNK         0.5000 
     98 O          -2.3585  -24.7934  -50.3009 O.2       17 UNK        -0.5000 
     99 N          -4.5470  -24.1877  -50.2295 N.am      18 UNK        -0.5000 
    100 CA        -5.1945  -25.5017  -50.1923 C.3       18 UNK         0.1400 
    101 CB        -4.9022  -26.2145  -48.8553 C.3       18 UNK        -0.1800 
    102 C         -4.8627  -26.3621  -51.4292 C.2       18 UNK         0.5000 
    103 O         -4.4370  -27.5109  -51.2949 O.2       18 UNK        -0.5000 
    104 N         -5.0659  -25.7719  -52.6157 N.am      19 UNK        -0.5000 
    105 CA        -4.8596  -26.3458  -53.9490 C.3       19 UNK         0.1400 
    106 CB        -5.7908  -27.5533  -54.1865 C.3       19 UNK        -0.1800 
    107 C         -3.3835  -26.6463  -54.2850 C.2       19 UNK         0.5000 
    108 O         -3.1111  -27.4744  -55.1557 O.2       19 UNK        -0.5000 
    109 N         -2.4530  -25.9422  -53.6266 N.am      20 UNK        -0.5000 
    110 CA        -1.0126  -26.0155  -53.8865 C.3       20 UNK         0.1400 
    111 CB        -0.2554  -25.7004  -52.5879 C.3       20 UNK        -0.1800 
    112 C         -0.5613  -25.0677  -55.0159 C.2       20 UNK         0.5000 
    113 O          0.6332  -25.0183  -55.3138 O.2       20 UNK        -0.5000 
    114 N         -1.5015  -24.3012  -55.5916 N.am      21 UNK        -0.5000 
    115 CA        -1.3035  -23.2685  -56.6156 C.3       21 UNK         0.1400 
    116 CB        -0.8603  -23.9009  -57.9514 C.3       21 UNK        -0.1800 
    117 C         -0.3619  -22.1443  -56.1326 C.2       21 UNK         0.5000 
    118 O          0.4651  -21.6543  -56.9033 O.2       21 UNK        -0.5000 
    119 N         -0.4905  -21.7938  -54.8450 N.am      22 UNK        -0.5000 
    120 CA         0.3691  -20.8650  -54.0916 C.3       22 UNK         0.1400 
    121 C          1.8156  -21.3913  -53.8288 C.2       22 UNK         0.5000 
    122 N          2.1401  -22.6498  -54.1056 N.am      22 UNK        -0.7600 
    123 O          2.6603  -20.6535  -53.3291 O.2       22 UNK        -0.5000 
    124 C124        0.3595  -19.4177  -54.6620 C.3       23 UNK        -0.0398 
    125 S125       -1.3014  -18.6547  -54.6445 S.3       23 UNK        -0.2404 
    126 C126       -0.8834  -16.8891  -54.4560 C.3       23 UNK        -0.0205 
    127 H127        0.1889   -9.9596  -45.8368 H         1 UNK         0.0600 
    128 H128       -1.2562   -9.9484  -44.8192 H         1 UNK         0.0600 
    129 H129       -1.4051   -9.7820  -46.5719 H         1 UNK         0.0600 
    130 H130       -2.6012  -11.6268  -47.0313 H         1 UNK         0.3000 
    131 H131       -1.2741  -14.0904  -47.3476 H         1 UNK         0.0600 
    132 H132       -3.4024  -14.8221  -48.4397 H         1 UNK         0.0800 
    133 H133       -4.2220  -13.4139  -47.8242 H         1 UNK         0.0800 
    134 H134       -4.0742  -14.5347  -50.7474 H         1 UNK         0.0800 
    135 H135       -3.3777  -13.3954  -51.8673 H         1 UNK         0.0800 
    136 H136       -2.6574  -15.1157  -53.3951 H         1 UNK         0.1150 
    137 H137        0.6649  -17.5981  -52.2986 H         1 UNK         0.1150 
    138 H138       -1.2231  -15.1671  -49.3540 H         1 UNK         0.1150 
    139 H139        1.7512  -17.0786  -50.0685 H         1 UNK         0.0800 
    140 H140        0.8175  -16.3118  -48.8080 H         1 UNK         0.0800 
    141 H141       -1.9961  -17.6539  -48.8618 H         1 UNK         0.0800 
    142 H142       -1.0993  -17.5393  -47.3676 H         1 UNK         0.0800 
    143 H143       -2.3881  -20.0353  -48.5632 H         1 UNK         0.0600 
    144 H144       -0.3202  -19.9648  -46.6307 H         1 UNK         0.3000 
    145 H145       -0.9076  -23.1387  -45.1364 H         1 UNK         0.0600 
    146 H146        1.3768  -23.5025  -46.0493 H         1 UNK         0.0600 
    147 H147        0.1761  -23.6322  -47.3248 H         1 UNK         0.0600 
    148 H148        1.1580  -22.1775  -47.1922 H         1 UNK         0.0600 
    149 H149        1.1190  -21.0360  -45.0071 H         1 UNK         0.3000 
    150 H150       -0.3670  -19.3177  -42.2852 H         1 UNK         0.0600 
    151 H151        0.8446  -21.2296  -41.1542 H         1 UNK         0.0600 
    152 H152        1.7305  -19.7180  -41.1060 H         1 UNK         0.0600 
    153 H153        2.2048  -20.9812  -42.2438 H         1 UNK         0.0600 
    154 H154        2.1351  -18.9682  -43.6168 H         1 UNK         0.3000 
    155 H155        1.2793  -17.7354  -46.5534 H         1 UNK         0.0600 
    156 H156        0.0358  -15.7612  -45.9376 H         1 UNK         0.0600 
    157 H157        1.7042  -15.2809  -46.1598 H         1 UNK         0.0600 
    158 H158        1.0420  -15.4618  -44.5314 H         1 UNK         0.0600 
    159 H159        3.3028  -16.6657  -44.8197 H         1 UNK         0.3000 
    160 H160        5.5676  -19.3821  -45.4381 H         1 UNK         0.0600 
    161 H161        5.4738  -16.5779  -46.6782 H         1 UNK         0.0600 
    162 H162        5.5934  -18.0882  -47.5755 H         1 UNK         0.0600 
    163 H163        6.9079  -17.5912  -46.5206 H         1 UNK         0.0600 
    164 H164        4.9118  -16.8883  -43.9477 H         1 UNK         0.3000 
    165 H165        6.8395  -18.0053  -41.2330 H         1 UNK         0.0600 
    166 H166        7.8117  -15.7190  -41.1619 H         1 UNK         0.0600 
    167 H167        8.6178  -16.6797  -42.3913 H         1 UNK         0.0600 
    168 H168        7.4267  -15.4749  -42.8665 H         1 UNK         0.0600 
    169 H169        5.2869  -15.6356  -41.6647 H         1 UNK         0.3000 
    170 H170        2.1180  -16.9102  -41.7241 H         1 UNK         0.0600 
    171 H171        2.3377  -17.4377  -39.2877 H         1 UNK         0.0600 
    172 H172        3.1755  -15.9105  -39.0306 H         1 UNK         0.0600 
    173 H173        1.4901  -15.9235  -39.5525 H         1 UNK         0.0600 
    174 H174        2.6345  -14.3372  -40.9570 H         1 UNK         0.3000 
    175 H175        3.6596  -12.5308  -42.4852 H         1 UNK         0.0600 
    176 H176        2.6249  -13.2518  -45.2758 H         1 UNK         0.0600 
    177 H177        3.1142  -11.6496  -44.7365 H         1 UNK         0.0600 
    178 H178        4.3043  -12.9365  -44.8538 H         1 UNK         0.0600 
    179 H179        0.9516  -12.7463  -43.5780 H         1 UNK         0.3000 
    180 H180       -0.6552  -12.5821  -40.3901 H         1 UNK         0.0600 
    181 H181       -0.4618  -10.4780  -42.6107 H         1 UNK         0.0600 
    182 H182       -0.1748  -10.1957  -40.8997 H         1 UNK         0.0600 
    183 H183       -1.7842  -10.6306  -41.4520 H         1 UNK         0.0600 
    184 H184       -1.7689  -12.5998  -42.9731 H         1 UNK         0.3000 
    185 H185       -1.8613  -16.1011  -43.5429 H         1 UNK         0.0600 
    186 H186       -3.7173  -15.5977  -41.8830 H         1 UNK         0.0600 
    187 H187       -4.0559  -14.0965  -42.7374 H         1 UNK         0.0600 
    188 H188       -4.3122  -15.6493  -43.5292 H         1 UNK         0.0600 
    189 H189       -1.3679  -13.6061  -44.6211 H         1 UNK         0.3000 
    190 H190       -2.3921  -19.1009  -45.1799 H         1 UNK         0.3000 
    191 H191       -4.8128  -17.7812  -44.9184 H         1 UNK         0.0600 
    192 H192       -3.0488  -18.0720  -43.1386 H         1 UNK         0.0600 
    193 H193       -4.6552  -18.4568  -42.5418 H         1 UNK         0.0600 
    194 H194       -3.5347  -19.7518  -42.9444 H         1 UNK         0.0600 
    195 H195       -4.3904  -21.1648  -45.6615 H         1 UNK         0.3000 
    196 H196       -7.0063  -22.0923  -44.8259 H         1 UNK         0.0600 
    197 H197       -6.3629  -24.1176  -46.0857 H         1 UNK         0.0600 
    198 H198       -5.0051  -23.5977  -45.0988 H         1 UNK         0.0600 
    199 H199       -5.0138  -23.2759  -46.8338 H         1 UNK         0.0600 
    200 H200       -5.9494  -20.1077  -47.4090 H         1 UNK         0.3000 
    201 H201       -6.7909  -19.2492  -49.2301 H         1 UNK         0.0600 
    202 H202       -8.9603  -19.0109  -47.9130 H         1 UNK         0.0600 
    203 H203       -9.5244  -20.5093  -48.6480 H         1 UNK         0.0600 
    204 H204       -9.1862  -19.1024  -49.6473 H         1 UNK         0.0600 
    205 H205       -8.5675  -20.2518  -51.2031 H         1 UNK         0.3000 
    206 H206       -8.5403  -21.4284  -53.0945 H         1 UNK         0.0600 
    207 H207       -9.6331  -23.0686  -51.5606 H         1 UNK         0.0600 
    208 H208       -8.7546  -23.8849  -52.8427 H         1 UNK         0.0600 
    209 H209       -8.0718  -23.8120  -51.2234 H         1 UNK         0.0600 
    210 H210       -6.1542  -20.1679  -52.7742 H         1 UNK         0.3000 
    211 H211       -4.0351  -19.9845  -53.4217 H         1 UNK         0.0600 
    212 H212       -4.5203  -22.3939  -55.2511 H         1 UNK         0.0600 
    213 H213       -3.3032  -21.1337  -55.4372 H         1 UNK         0.0600 
    214 H214       -5.0002  -20.7390  -55.6254 H         1 UNK         0.0600 
    215 H215       -4.2627  -21.0628  -51.0386 H         1 UNK         0.3000 
    216 H216       -3.2176  -22.0242  -49.3593 H         1 UNK         0.0600 
    217 H217       -0.8249  -22.6253  -49.5098 H         1 UNK         0.0600 
    218 H218       -1.1071  -21.1156  -50.3611 H         1 UNK         0.0600 
    219 H219       -0.8833  -22.6061  -51.2653 H         1 UNK         0.0600 
    220 H220       -5.1853  -23.3926  -50.2010 H         1 UNK         0.3000 
    221 H221       -6.2680  -25.3119  -50.2316 H         1 UNK         0.0600 
    222 H222       -3.8459  -26.4627  -48.7486 H         1 UNK         0.0600 
    223 H223       -5.1873  -25.5923  -48.0074 H         1 UNK         0.0600 
    224 H224       -5.4659  -27.1449  -48.7782 H         1 UNK         0.0600 
    225 H225       -5.4162  -24.8152  -52.6295 H         1 UNK         0.3000 
    226 H226       -5.1628  -25.5657  -54.6487 H         1 UNK         0.0600 
    227 H227       -6.8258  -27.3047  -53.9517 H         1 UNK         0.0600 
    228 H228       -5.7644  -27.8688  -55.2301 H         1 UNK         0.0600 
    229 H229       -5.5050  -28.4129  -53.5800 H         1 UNK         0.0600 
    230 H230       -2.7500  -25.2715  -52.9293 H         1 UNK         0.3000 
    231 H231       -0.7506  -27.0312  -54.1894 H         1 UNK         0.0600 
    232 H232       -0.4296  -24.6743  -52.2652 H         1 UNK         0.0600 
    233 H233        0.8203  -25.8246  -52.7175 H         1 UNK         0.0600 
    234 H234       -0.5629  -26.3644  -51.7800 H         1 UNK         0.0600 
    235 H235       -2.4350  -24.3686  -55.2125 H         1 UNK         0.3000 
    236 H236       -2.2765  -22.8064  -56.7822 H         1 UNK         0.0600 
    237 H237       -1.5471  -24.6887  -58.2610 H         1 UNK         0.0600 
    238 H238       -0.8412  -23.1566  -58.7482 H         1 UNK         0.0600 
    239 H239        0.1383  -24.3336  -57.8852 H         1 UNK         0.0600 
    240 H240       -1.2079  -22.2589  -54.2939 H         1 UNK         0.3000 
    241 H241       -0.0767  -20.8161  -53.0975 H         1 UNK         0.0600 
    242 H242        3.0776  -22.9650  -53.9145 H         1 UNK         0.3800 
    243 H243        1.4812  -23.2867  -54.5367 H         1 UNK         0.3800 
    244 H244        1.0379  -18.7847  -54.0921 H         1 UNK         0.0800 
    245 H245        0.7401  -19.3972  -55.6831 H         1 UNK         0.0800 
    246 H246        0.1191  -16.6917  -54.8378 H         1 UNK         0.0800 
    247 H247       -1.5599  -16.3146  -55.0905 H         1 UNK         0.0800 
@<TRIPOS>BOND
     1    1    2 1    
     2    1  127 1    
     3    1  128 1    
     4    1  129 1    
     5    2    3 2    
     6    2    4 am   BACKBONE|DICT|INTERRES
     7    4    5 1    
     8    4  130 1    
     9    5    6 1    
    10    5   65 1    
    11    5  131 1    
    12    6    7 1    
    13    6  132 1    
    14    6  133 1    
    15    7    8 1    
    16    8    9 1    
    17    8  134 1    
    18    8  135 1    
    19    9   10 ar   
    20    9   14 ar   
    21   10   11 ar   
    22   10  136 1    
    23   11   12 ar   
    24   11  126 1    
    25   12   13 ar   
    26   12  137 1    
    27   13   14 ar   
    28   13   15 1    
    29   14  138 1    
    30   15   16 1    
    31   15  139 1    
    32   15  140 1    
    33   16   17 1    
    34   17   18 1    
    35   17  141 1    
    36   17  142 1    
    37   18   19 1    
    38   18   67 1    
    39   18  143 1    
    40   19   20 am   BACKBONE|DICT|INTERRES
    41   19  144 1    
    42   20   21 2    
    43   20   22 1    
    44   22   23 1    
    45   22   24 1    
    46   22  145 1    
    47   23  146 1    
    48   23  147 1    
    49   23  148 1    
    50   24   25 am   BACKBONE|DICT|INTERRES
    51   24  149 1    
    52   25   26 2    
    53   25   27 1    
    54   27   28 1    
    55   27   29 1    
    56   27  150 1    
    57   28  151 1    
    58   28  152 1    
    59   28  153 1    
    60   29   30 am   BACKBONE|DICT|INTERRES
    61   29  154 1    
    62   30   31 2    
    63   30   32 1    
    64   32   33 1    
    65   32   34 1    
    66   32  155 1    
    67   33  156 1    
    68   33  157 1    
    69   33  158 1    
    70   34   35 am   BACKBONE|DICT|INTERRES
    71   34  159 1    
    72   35   36 2    
    73   35   37 1    
    74   37   38 1    
    75   37   39 1    
    76   37  160 1    
    77   38  161 1    
    78   38  162 1    
    79   38  163 1    
    80   39   40 am   BACKBONE|DICT|INTERRES
    81   39  164 1    
    82   40   41 2    
    83   40   42 1    
    84   42   43 1    
    85   42   44 1    
    86   42  165 1    
    87   43  166 1    
    88   43  167 1    
    89   43  168 1    
    90   44   45 am   BACKBONE|DICT|INTERRES
    91   44  169 1    
    92   45   46 2    
    93   45   47 1    
    94   47   48 1    
    95   47   49 1    
    96   47  170 1    
    97   48  171 1    
    98   48  172 1    
    99   48  173 1    
   100   49   50 am   BACKBONE|DICT|INTERRES
   101   49  174 1    
   102   50   51 2    
   103   50   52 1    
   104   52   53 1    
   105   52   54 1    
   106   52  175 1    
   107   53  176 1    
   108   53  177 1    
   109   53  178 1    
   110   54   55 am   BACKBONE|DICT|INTERRES
   111   54  179 1    
   112   55   56 2    
   113   55   57 1    
   114   57   58 1    
   115   57   59 1    
   116   57  180 1    
   117   58  181 1    
   118   58  182 1    
   119   58  183 1    
   120   59   60 am   BACKBONE|DICT|INTERRES
   121   59  184 1    
   122   60   61 2    
   123   60   62 1    
   124   62   63 1    
   125   62   64 1    
   126   62  185 1    
   127   63  186 1    
   128   63  187 1    
   129   63  188 1    
   130   64   65 am   BACKBONE|DICT|INTERRES
   131   64  189 1    
   132   65   66 2    
   133   67   68 2    
   134   67   69 am   BACKBONE|DICT|INTERRES
   135   69   70 1    
   136   69  190 1    
   137   70   71 1    
   138   70   72 1    
   139   70  191 1    
   140   71  192 1    
   141   71  193 1    
   142   71  194 1    
   143   72   73 2    
   144   72   74 am   BACKBONE|DICT|INTERRES
   145   74   75 1    
   146   74  195 1    
   147   75   76 1    
   148   75   77 1    
   149   75  196 1    
   150   76  197 1    
   151   76  198 1    
   152   76  199 1    
   153   77   78 2    
   154   77   79 am   BACKBONE|DICT|INTERRES
   155   79   80 1    
   156   79  200 1    
   157   80   81 1    
   158   80   82 1    
   159   80  201 1    
   160   81  202 1    
   161   81  203 1    
   162   81  204 1    
   163   82   83 2    
   164   82   84 am   BACKBONE|DICT|INTERRES
   165   84   85 1    
   166   84  205 1    
   167   85   86 1    
   168   85   87 1    
   169   85  206 1    
   170   86  207 1    
   171   86  208 1    
   172   86  209 1    
   173   87   88 2    
   174   87   89 am   BACKBONE|DICT|INTERRES
   175   89   90 1    
   176   89  210 1    
   177   90   91 1    
   178   90   92 1    
   179   90  211 1    
   180   91  212 1    
   181   91  213 1    
   182   91  214 1    
   183   92   93 2    
   184   92   94 am   BACKBONE|DICT|INTERRES
   185   94   95 1    
   186   94  215 1    
   187   95   96 1    
   188   95   97 1    
   189   95  216 1    
   190   96  217 1    
   191   96  218 1    
   192   96  219 1    
   193   97   98 2    
   194   97   99 am   BACKBONE|DICT|INTERRES
   195   99  100 1    
   196   99  220 1    
   197  100  101 1    
   198  100  102 1    
   199  100  221 1    
   200  101  222 1    
   201  101  223 1    
   202  101  224 1    
   203  102  103 2    
   204  102  104 am   BACKBONE|DICT|INTERRES
   205  104  105 1    
   206  104  225 1    
   207  105  106 1    
   208  105  107 1    
   209  105  226 1    
   210  106  227 1    
   211  106  228 1    
   212  106  229 1    
   213  107  108 2    
   214  107  109 am   BACKBONE|DICT|INTERRES
   215  109  110 1    
   216  109  230 1    
   217  110  111 1    
   218  110  112 1    
   219  110  231 1    
   220  111  232 1    
   221  111  233 1    
   222  111  234 1    
   223  112  113 2    
   224  112  114 am   BACKBONE|DICT|INTERRES
   225  114  115 1    
   226  114  235 1    
   227  115  116 1    
   228  115  117 1    
   229  115  236 1    
   230  116  237 1    
   231  116  238 1    
   232  116  239 1    
   233  117  118 2    
   234  117  119 am   BACKBONE|DICT|INTERRES
   235  119  120 1    
   236  119  240 1    
   237  120  121 1    
   238  120  124 1    
   239  120  241 1    
   240  121  122 am   BACKBONE|DICT|INTERRES
   241  121  123 2    
   242  122  242 1    
   243  122  243 1    
   244  124  125 1    
   245  124  244 1    
   246  124  245 1    
   247  125  126 1    
   248  126  246 1    
   249  126  247 1    
@<TRIPOS>SUBSTRUCTURE
     1 UNK         1 GROUP             0       ****    0 ROOT    
