@<TRIPOS>MOLECULE
3R540
247   249    1
SMALL
USER_CHARGES


@<TRIPOS>ATOM
      1 CA          5.2295  -10.0449  -48.7338 C.3       0 UNK        -0.1800 
      2 C           4.0918  -11.0352  -48.5323 C.2       0 UNK         0.5000 
      3 O           2.9679  -10.7705  -48.9602 O.2       0 UNK        -0.5000 
      4 N           4.3772  -12.1679  -47.8748 N.am      1 UNK        -0.5000 
      5 CA          3.4574  -13.2612  -47.5320 C.3       1 UNK         0.1400 
      6 C6          2.7569  -13.8931  -48.7652 C.3       23 UNK        -0.0398 
      7 S7          2.0748  -15.5525  -48.4375 S.3       23 UNK        -0.2404 
      8 C8          1.7510  -16.0958  -50.1414 C.3       23 UNK        -0.0205 
      9 C9          0.9186  -17.3670  -50.1741 C.ar      23 UNK        -0.0193 
     10 C10        -0.4753  -17.2893  -50.2408 C.ar      23 UNK        -0.1150 
     11 C11        -1.2495  -18.4505  -50.3111 C.ar      23 UNK        -0.0193 
     12 C12        -0.6195  -19.6979  -50.2869 C.ar      23 UNK        -0.1150 
     13 C13         0.7739  -19.7908  -50.2119 C.ar      23 UNK        -0.0193 
     14 C14         1.5380  -18.6199  -50.1648 C.ar      23 UNK        -0.1150 
     15 C15         1.4438  -21.1599  -50.2093 C.3       23 UNK        -0.0205 
     16 S16         2.5980  -21.4214  -48.8182 S.3       23 UNK        -0.2404 
     17 C17         1.5991  -20.9938  -47.3510 C.3       23 UNK        -0.0398 
     18 CA          0.8439  -22.1998  -46.7404 C.3       11 UNK         0.1400 
     19 N           0.5935  -22.0225  -45.3083 N.am      11 UNK        -0.5000 
     20 C           0.0625  -22.9453  -44.4937 C.2       10 UNK         0.5000 
     21 O          -0.2166  -24.0915  -44.8459 O.2       10 UNK        -0.5000 
     22 CA         -0.2654  -22.4918  -43.0585 C.3       10 UNK         0.1400 
     23 CB          0.9865  -22.5220  -42.1697 C.3       10 UNK        -0.1800 
     24 N          -0.8728  -21.1592  -43.0194 N.am      10 UNK        -0.5000 
     25 C          -2.0644  -20.8619  -43.5588 C.2       9 UNK         0.5000 
     26 O          -2.7978  -21.6955  -44.0894 O.2       9 UNK        -0.5000 
     27 CA         -2.4930  -19.3839  -43.5468 C.3       9 UNK         0.1400 
     28 CB         -3.0847  -18.9988  -42.1831 C.3       9 UNK        -0.1800 
     29 N          -1.4001  -18.4730  -43.8888 N.am      9 UNK        -0.5000 
     30 C          -0.7704  -18.4466  -45.0728 C.2       8 UNK         0.5000 
     31 O          -1.0763  -19.1632  -46.0244 O.2       8 UNK        -0.5000 
     32 CA          0.4434  -17.5073  -45.1940 C.3       8 UNK         0.1400 
     33 CB         -0.0081  -16.0587  -45.4269 C.3       8 UNK        -0.1800 
     34 N           1.3151  -17.5753  -44.0193 N.am      8 UNK        -0.5000 
     35 C           1.9555  -18.6810  -43.6122 C.2       7 UNK         0.5000 
     36 O           1.9305  -19.7485  -44.2218 O.2       7 UNK        -0.5000 
     37 CA          2.6979  -18.6030  -42.2694 C.3       7 UNK         0.1400 
     38 CB          4.1039  -18.0102  -42.4469 C.3       7 UNK        -0.1800 
     39 N           1.9426  -17.8252  -41.2883 N.am      7 UNK        -0.5000 
     40 C           0.8323  -18.2619  -40.6774 C.2       6 UNK         0.5000 
     41 O           0.3597  -19.3864  -40.8460 O.2       6 UNK        -0.5000 
     42 CA          0.1101  -17.2636  -39.7519 C.3       6 UNK         0.1400 
     43 CB          0.7346  -17.2779  -38.3489 C.3       6 UNK        -0.1800 
     44 N           0.1202  -15.8950  -40.2733 N.am      6 UNK        -0.5000 
     45 C          -0.5359  -15.5045  -41.3747 C.2       5 UNK         0.5000 
     46 O          -1.2536  -16.2514  -42.0381 O.2       5 UNK        -0.5000 
     47 CA         -0.3217  -14.0520  -41.8444 C.3       5 UNK         0.1400 
     48 CB         -1.3446  -13.1172  -41.1830 C.3       5 UNK        -0.1800 
     49 N           1.0283  -13.5217  -41.6250 N.am      5 UNK        -0.5000 
     50 C           2.1682  -14.0874  -42.0453 C.2       4 UNK         0.5000 
     51 O           2.2209  -15.1914  -42.5874 O.2       4 UNK        -0.5000 
     52 CA          3.4416  -13.2492  -41.8612 C.3       4 UNK         0.1400 
     53 CB          4.7224  -14.0188  -42.2313 C.3       4 UNK        -0.1800 
     54 N           3.3213  -12.0846  -42.7284 N.am      4 UNK        -0.5000 
     55 C           3.3178  -10.8052  -42.3338 C.2       3 UNK         0.5000 
     56 O           3.5051  -10.4488  -41.1700 O.2       3 UNK        -0.5000 
     57 CA          3.0398   -9.7382  -43.4148 C.3       3 UNK         0.1400 
     58 CB          4.3560   -9.1161  -43.9062 C.3       3 UNK        -0.1800 
     59 N           2.3069  -10.2596  -44.5704 N.am      3 UNK        -0.5000 
     60 C           1.0438  -10.7082  -44.5490 C.2       2 UNK         0.5000 
     61 O           0.3089  -10.6300  -43.5644 O.2       2 UNK        -0.5000 
     62 CA          0.5237  -11.3900  -45.8309 C.3       2 UNK         0.1400 
     63 CB         -0.3755  -10.4304  -46.6243 C.3       2 UNK        -0.1800 
     64 N           1.5759  -11.8954  -46.7199 N.am      2 UNK        -0.5000 
     65 C           2.4699  -12.8479  -46.4207 C.2       1 UNK         0.5000 
     66 O           2.5692  -13.3550  -45.3047 O.2       1 UNK        -0.5000 
     67 C          -0.4618  -22.4916  -47.5042 C.2       11 UNK         0.5000 
     68 O          -0.5172  -23.4612  -48.2586 O.2       11 UNK        -0.5000 
     69 N          -1.5022  -21.6818  -47.2603 N.am      12 UNK        -0.5000 
     70 CA         -2.8357  -21.8444  -47.8359 C.3       12 UNK         0.1400 
     71 CB         -3.7254  -20.6590  -47.4350 C.3       12 UNK        -0.1800 
     72 C          -3.4961  -23.1807  -47.4567 C.2       12 UNK         0.5000 
     73 O          -4.0890  -23.8197  -48.3238 O.2       12 UNK        -0.5000 
     74 N          -3.3544  -23.6037  -46.1944 N.am      13 UNK        -0.5000 
     75 CA         -3.8319  -24.8983  -45.7080 C.3       13 UNK         0.1400 
     76 CB         -3.6882  -24.9612  -44.1798 C.3       13 UNK        -0.1800 
     77 C          -3.1166  -26.0871  -46.3784 C.2       13 UNK         0.5000 
     78 O          -3.7763  -27.0556  -46.7569 O.2       13 UNK        -0.5000 
     79 N          -1.7894  -25.9848  -46.5297 N.am      14 UNK        -0.5000 
     80 CA         -0.9459  -27.0050  -47.1513 C.3       14 UNK         0.1400 
     81 CB          0.5264  -26.7159  -46.8192 C.3       14 UNK        -0.1800 
     82 C          -1.1456  -27.1128  -48.6745 C.2       14 UNK         0.5000 
     83 O          -1.2470  -28.2235  -49.1967 O.2       14 UNK        -0.5000 
     84 N          -1.1863  -25.9632  -49.3593 N.am      15 UNK        -0.5000 
     85 CA         -1.2140  -25.8609  -50.8203 C.3       15 UNK         0.1400 
     86 CB         -0.4016  -24.6237  -51.2387 C.3       15 UNK        -0.1800 
     87 C          -2.6347  -25.8069  -51.4149 C.2       15 UNK         0.5000 
     88 O          -2.7616  -25.5953  -52.6218 O.2       15 UNK        -0.5000 
     89 N          -3.6730  -25.9578  -50.5786 N.am      16 UNK        -0.5000 
     90 CA         -5.1003  -25.8976  -50.9241 C.3       16 UNK         0.1400 
     91 CB         -5.5012  -27.1000  -51.8038 C.3       16 UNK        -0.1800 
     92 C          -5.4780  -24.5401  -51.5515 C.2       16 UNK         0.5000 
     93 O          -5.9722  -24.4795  -52.6795 O.2       16 UNK        -0.5000 
     94 N          -5.1619  -23.4679  -50.8130 N.am      17 UNK        -0.5000 
     95 CA         -5.2852  -22.0569  -51.1876 C.3       17 UNK         0.1400 
     96 CB         -6.7708  -21.6515  -51.2903 C.3       17 UNK        -0.1800 
     97 C          -4.4581  -21.7114  -52.4426 C.2       17 UNK         0.5000 
     98 O          -4.9214  -20.9506  -53.2902 O.2       17 UNK        -0.5000 
     99 N          -3.2608  -22.3117  -52.5415 N.am      18 UNK        -0.5000 
    100 CA        -2.3356  -22.2622  -53.6804 C.3       18 UNK         0.1400 
    101 CB        -1.7328  -20.8514  -53.8375 C.3       18 UNK        -0.1800 
    102 C         -2.9926  -22.7889  -54.9723 C.2       18 UNK         0.5000 
    103 O         -2.9925  -22.1024  -55.9937 O.2       18 UNK        -0.5000 
    104 N         -3.5934  -23.9844  -54.8783 N.am      19 UNK        -0.5000 
    105 CA        -4.4370  -24.6257  -55.8940 C.3       19 UNK         0.1400 
    106 CB        -3.5881  -25.0897  -57.0956 C.3       19 UNK        -0.1800 
    107 C         -5.6328  -23.7339  -56.2979 C.2       19 UNK         0.5000 
    108 O         -5.8930  -23.5319  -57.4852 O.2       19 UNK        -0.5000 
    109 N         -6.3076  -23.1897  -55.2762 N.am      20 UNK        -0.5000 
    110 CA        -7.4401  -22.2588  -55.3183 C.3       20 UNK         0.1400 
    111 CB        -8.6484  -22.8896  -56.0404 C.3       20 UNK        -0.1800 
    112 C         -7.1251  -20.8410  -55.8475 C.2       20 UNK         0.5000 
    113 O         -8.0485  -20.0290  -55.9358 O.2       20 UNK        -0.5000 
    114 N         -5.8567  -20.5260  -56.1531 N.am      21 UNK        -0.5000 
    115 CA        -5.4253  -19.2120  -56.6446 C.3       21 UNK         0.1400 
    116 CB        -3.9646  -19.2809  -57.1106 C.3       21 UNK        -0.1800 
    117 C         -5.6100  -18.0716  -55.6235 C.2       21 UNK         0.5000 
    118 O         -5.8489  -16.9341  -56.0323 O.2       21 UNK        -0.5000 
    119 N         -5.5283  -18.3919  -54.3260 N.am      22 UNK        -0.5000 
    120 CA        -5.8331  -17.4737  -53.2162 C.3       22 UNK         0.1400 
    121 C         -7.3588  -17.2988  -52.9445 C.2       22 UNK         0.5000 
    122 N         -8.2573  -17.9879  -53.6403 N.am      22 UNK        -0.7600 
    123 O         -7.7407  -16.5084  -52.0858 O.2       22 UNK        -0.5000 
    124 C124       -5.0787  -17.8528  -51.9135 C.3       23 UNK        -0.0398 
    125 S125       -3.2670  -17.8903  -52.1115 S.3       23 UNK        -0.2404 
    126 C126       -2.7627  -18.3512  -50.4254 C.3       23 UNK        -0.0205 
    127 H127        6.1652  -10.4088  -48.3086 H         1 UNK         0.0600 
    128 H128        4.9870   -9.0942  -48.2588 H         1 UNK         0.0600 
    129 H129        5.3862   -9.8657  -49.7975 H         1 UNK         0.0600 
    130 H130        5.3223  -12.2995  -47.5412 H         1 UNK         0.3000 
    131 H131        4.0988  -14.0315  -47.0998 H         1 UNK         0.0600 
    132 H132        1.9605  -13.2532  -49.1480 H         1 UNK         0.0800 
    133 H133        3.4794  -13.9895  -49.5768 H         1 UNK         0.0800 
    134 H134        1.2336  -15.3032  -50.6844 H         1 UNK         0.0800 
    135 H135        2.6991  -16.2544  -50.6577 H         1 UNK         0.0800 
    136 H136       -0.9594  -16.3229  -50.2584 H         1 UNK         0.1150 
    137 H137       -1.2146  -20.5978  -50.3428 H         1 UNK         0.1150 
    138 H138        2.6160  -18.6849  -50.1170 H         1 UNK         0.1150 
    139 H139        0.6978  -21.9543  -50.1978 H         1 UNK         0.0800 
    140 H140        1.9935  -21.2787  -51.1437 H         1 UNK         0.0800 
    141 H141        0.9334  -20.1551  -47.5582 H         1 UNK         0.0800 
    142 H142        2.3166  -20.6119  -46.6251 H         1 UNK         0.0800 
    143 H143        1.4795  -23.0834  -46.8297 H         1 UNK         0.0600 
    144 H144        0.8453  -21.1189  -44.9157 H         1 UNK         0.3000 
    145 H145       -0.9882  -23.1985  -42.6456 H         1 UNK         0.0600 
    146 H146        0.7456  -22.2549  -41.1406 H         1 UNK         0.0600 
    147 H147        1.4275  -23.5193  -42.1529 H         1 UNK         0.0600 
    148 H148        1.7519  -21.8316  -42.5234 H         1 UNK         0.0600 
    149 H149       -0.3449  -20.4274  -42.5575 H         1 UNK         0.3000 
    150 H150       -3.2736  -19.2603  -44.3001 H         1 UNK         0.0600 
    151 H151       -3.4772  -17.9820  -42.1977 H         1 UNK         0.0600 
    152 H152       -3.9081  -19.6612  -41.9130 H         1 UNK         0.0600 
    153 H153       -2.3403  -19.0581  -41.3888 H         1 UNK         0.0600 
    154 H154       -1.1280  -17.8040  -43.1740 H         1 UNK         0.3000 
    155 H155        1.0293  -17.8236  -46.0598 H         1 UNK         0.0600 
    156 H156       -0.6580  -15.7018  -44.6292 H         1 UNK         0.0600 
    157 H157       -0.5599  -15.9716  -46.3637 H         1 UNK         0.0600 
    158 H158        0.8463  -15.3863  -45.4891 H         1 UNK         0.0600 
    159 H159        1.4382  -16.7222  -43.4809 H         1 UNK         0.3000 
    160 H160        2.8103  -19.6198  -41.8870 H         1 UNK         0.0600 
    161 H161        4.0748  -17.0131  -42.8857 H         1 UNK         0.0600 
    162 H162        4.7054  -18.6363  -43.1069 H         1 UNK         0.0600 
    163 H163        4.6288  -17.9435  -41.4940 H         1 UNK         0.0600 
    164 H164        2.2086  -16.8550  -41.1852 H         1 UNK         0.3000 
    165 H165       -0.9298  -17.5859  -39.6646 H         1 UNK         0.0600 
    166 H166        0.1816  -16.6341  -37.6647 H         1 UNK         0.0600 
    167 H167        0.7234  -18.2840  -37.9276 H         1 UNK         0.0600 
    168 H168        1.7716  -16.9400  -38.3649 H         1 UNK         0.0600 
    169 H169        0.6926  -15.2204  -39.7875 H         1 UNK         0.3000 
    170 H170       -0.4964  -14.0313  -42.9214 H         1 UNK         0.0600 
    171 H171       -2.3630  -13.4711  -41.3493 H         1 UNK         0.0600 
    172 H172       -1.1909  -13.0505  -40.1053 H         1 UNK         0.0600 
    173 H173       -1.2817  -12.1097  -41.5951 H         1 UNK         0.0600 
    174 H174        1.0796  -12.5995  -41.2166 H         1 UNK         0.3000 
    175 H175        3.5014  -12.9601  -40.8102 H         1 UNK         0.0600 
    176 H176        4.7095  -14.3466  -43.2719 H         1 UNK         0.0600 
    177 H177        5.6074  -13.3991  -42.0877 H         1 UNK         0.0600 
    178 H178        4.8398  -14.9047  -41.6062 H         1 UNK         0.0600 
    179 H179        3.0997  -12.3021  -43.6959 H         1 UNK         0.3000 
    180 H180        2.4361   -8.9526  -42.9558 H         1 UNK         0.0600 
    181 H181        4.9939   -9.8557  -44.3918 H         1 UNK         0.0600 
    182 H182        4.9207   -8.6898  -43.0759 H         1 UNK         0.0600 
    183 H183        4.1711   -8.3116  -44.6184 H         1 UNK         0.0600 
    184 H184        2.8279  -10.3617  -45.4284 H         1 UNK         0.3000 
    185 H185       -0.0787  -12.2450  -45.5168 H         1 UNK         0.0600 
    186 H186       -1.1894  -10.0521  -46.0042 H         1 UNK         0.0600 
    187 H187        0.1842   -9.5702  -46.9941 H         1 UNK         0.0600 
    188 H188       -0.8272  -10.9308  -47.4810 H         1 UNK         0.0600 
    189 H189        1.6466  -11.4637  -47.6361 H         1 UNK         0.3000 
    190 H190       -1.3655  -20.8738  -46.6561 H         1 UNK         0.3000 
    191 H191       -2.7239  -21.8320  -48.9213 H         1 UNK         0.0600 
    192 H192       -3.2781  -19.7105  -47.7316 H         1 UNK         0.0600 
    193 H193       -4.7041  -20.7240  -47.9117 H         1 UNK         0.0600 
    194 H194       -3.8874  -20.6246  -46.3578 H         1 UNK         0.0600 
    195 H195       -2.9068  -22.9930  -45.5164 H         1 UNK         0.3000 
    196 H196       -4.8943  -24.9728  -45.9494 H         1 UNK         0.0600 
    197 H197       -4.0603  -25.9097  -43.7910 H         1 UNK         0.0600 
    198 H198       -4.2573  -24.1659  -43.6981 H         1 UNK         0.0600 
    199 H199       -2.6485  -24.8630  -43.8673 H         1 UNK         0.0600 
    200 H200       -1.3157  -25.1672  -46.1578 H         1 UNK         0.3000 
    201 H201       -1.2048  -27.9713  -46.7134 H         1 UNK         0.0600 
    202 H202        0.6960  -26.7276  -45.7424 H         1 UNK         0.0600 
    203 H203        0.8404  -25.7411  -47.1946 H         1 UNK         0.0600 
    204 H204        1.1829  -27.4666  -47.2608 H         1 UNK         0.0600 
    205 H205       -1.0661  -25.0863  -48.8536 H         1 UNK         0.3000 
    206 H206       -0.7235  -26.7368  -51.2497 H         1 UNK         0.0600 
    207 H207        0.5870  -24.6253  -50.7788 H         1 UNK         0.0600 
    208 H208       -0.2513  -24.6012  -52.3182 H         1 UNK         0.0600 
    209 H209       -0.9016  -23.6983  -50.9517 H         1 UNK         0.0600 
    210 H210       -3.4636  -26.0690  -49.5958 H         1 UNK         0.3000 
    211 H211       -5.6525  -25.9731  -49.9862 H         1 UNK         0.0600 
    212 H212       -5.0080  -27.0785  -52.7761 H         1 UNK         0.0600 
    213 H213       -6.5766  -27.1070  -51.9849 H         1 UNK         0.0600 
    214 H214       -5.2467  -28.0430  -51.3202 H         1 UNK         0.0600 
    215 H215       -4.7562  -23.6424  -49.8921 H         1 UNK         0.3000 
    216 H216       -4.8453  -21.4782  -50.3751 H         1 UNK         0.0600 
    217 H217       -6.8879  -20.6014  -51.5562 H         1 UNK         0.0600 
    218 H218       -7.2791  -21.7998  -50.3377 H         1 UNK         0.0600 
    219 H219       -7.3011  -22.2370  -52.0391 H         1 UNK         0.0600 
    220 H220       -3.0121  -22.9607  -51.8108 H         1 UNK         0.3000 
    221 H221       -1.5168  -22.9447  -53.4548 H         1 UNK         0.0600 
    222 H222       -2.4936  -20.1091  -54.0780 H         1 UNK         0.0600 
    223 H223       -1.2330  -20.5315  -52.9247 H         1 UNK         0.0600 
    224 H224       -0.9914  -20.8295  -54.6367 H         1 UNK         0.0600 
    225 H225       -3.5076  -24.4924  -54.0009 H         1 UNK         0.3000 
    226 H226       -4.8606  -25.5145  -55.4238 H         1 UNK         0.0600 
    227 H227       -2.7688  -25.7321  -56.7730 H         1 UNK         0.0600 
    228 H228       -4.1915  -25.6625  -57.8006 H         1 UNK         0.0600 
    229 H229       -3.1598  -24.2480  -57.6405 H         1 UNK         0.0600 
    230 H230       -6.0172  -23.4595  -54.3395 H         1 UNK         0.3000 
    231 H231       -7.7314  -22.1159  -54.2786 H         1 UNK         0.0600 
    232 H232       -8.4713  -22.9994  -57.1105 H         1 UNK         0.0600 
    233 H233       -9.5406  -22.2737  -55.9219 H         1 UNK         0.0600 
    234 H234       -8.8809  -23.8740  -55.6343 H         1 UNK         0.0600 
    235 H235       -5.1318  -21.2180  -56.0089 H         1 UNK         0.3000 
    236 H236       -6.0413  -18.9731  -57.5139 H         1 UNK         0.0600 
    237 H237       -3.8193  -20.0720  -57.8466 H         1 UNK         0.0600 
    238 H238       -3.6595  -18.3427  -57.5754 H         1 UNK         0.0600 
    239 H239       -3.2871  -19.4661  -56.2771 H         1 UNK         0.0600 
    240 H240       -5.3131  -19.3528  -54.0640 H         1 UNK         0.3000 
    241 H241       -5.4791  -16.4822  -53.5044 H         1 UNK         0.0600 
    242 H242       -7.9803  -18.6231  -54.3787 H         1 UNK         0.3800 
    243 H243       -9.2368  -17.8501  -53.4484 H         1 UNK         0.3800 
    244 H244       -5.3062  -17.1374  -51.1213 H         1 UNK         0.0800 
    245 H245       -5.4091  -18.8250  -51.5505 H         1 UNK         0.0800 
    246 H246       -3.2279  -19.3016  -50.1622 H         1 UNK         0.0800 
    247 H247       -3.1352  -17.6120  -49.7146 H         1 UNK         0.0800 
@<TRIPOS>BOND
     1    1    2 1    
     2    1  127 1    
     3    1  128 1    
     4    1  129 1    
     5    2    3 2    
     6    2    4 am   BACKBONE|DICT|INTERRES
     7    4    5 1    
     8    4  130 1    
     9    5    6 1    
    10    5   65 1    
    11    5  131 1    
    12    6    7 1    
    13    6  132 1    
    14    6  133 1    
    15    7    8 1    
    16    8    9 1    
    17    8  134 1    
    18    8  135 1    
    19    9   10 ar   
    20    9   14 ar   
    21   10   11 ar   
    22   10  136 1    
    23   11   12 ar   
    24   11  126 1    
    25   12   13 ar   
    26   12  137 1    
    27   13   14 ar   
    28   13   15 1    
    29   14  138 1    
    30   15   16 1    
    31   15  139 1    
    32   15  140 1    
    33   16   17 1    
    34   17   18 1    
    35   17  141 1    
    36   17  142 1    
    37   18   19 1    
    38   18   67 1    
    39   18  143 1    
    40   19   20 am   BACKBONE|DICT|INTERRES
    41   19  144 1    
    42   20   21 2    
    43   20   22 1    
    44   22   23 1    
    45   22   24 1    
    46   22  145 1    
    47   23  146 1    
    48   23  147 1    
    49   23  148 1    
    50   24   25 am   BACKBONE|DICT|INTERRES
    51   24  149 1    
    52   25   26 2    
    53   25   27 1    
    54   27   28 1    
    55   27   29 1    
    56   27  150 1    
    57   28  151 1    
    58   28  152 1    
    59   28  153 1    
    60   29   30 am   BACKBONE|DICT|INTERRES
    61   29  154 1    
    62   30   31 2    
    63   30   32 1    
    64   32   33 1    
    65   32   34 1    
    66   32  155 1    
    67   33  156 1    
    68   33  157 1    
    69   33  158 1    
    70   34   35 am   BACKBONE|DICT|INTERRES
    71   34  159 1    
    72   35   36 2    
    73   35   37 1    
    74   37   38 1    
    75   37   39 1    
    76   37  160 1    
    77   38  161 1    
    78   38  162 1    
    79   38  163 1    
    80   39   40 am   BACKBONE|DICT|INTERRES
    81   39  164 1    
    82   40   41 2    
    83   40   42 1    
    84   42   43 1    
    85   42   44 1    
    86   42  165 1    
    87   43  166 1    
    88   43  167 1    
    89   43  168 1    
    90   44   45 am   BACKBONE|DICT|INTERRES
    91   44  169 1    
    92   45   46 2    
    93   45   47 1    
    94   47   48 1    
    95   47   49 1    
    96   47  170 1    
    97   48  171 1    
    98   48  172 1    
    99   48  173 1    
   100   49   50 am   BACKBONE|DICT|INTERRES
   101   49  174 1    
   102   50   51 2    
   103   50   52 1    
   104   52   53 1    
   105   52   54 1    
   106   52  175 1    
   107   53  176 1    
   108   53  177 1    
   109   53  178 1    
   110   54   55 am   BACKBONE|DICT|INTERRES
   111   54  179 1    
   112   55   56 2    
   113   55   57 1    
   114   57   58 1    
   115   57   59 1    
   116   57  180 1    
   117   58  181 1    
   118   58  182 1    
   119   58  183 1    
   120   59   60 am   BACKBONE|DICT|INTERRES
   121   59  184 1    
   122   60   61 2    
   123   60   62 1    
   124   62   63 1    
   125   62   64 1    
   126   62  185 1    
   127   63  186 1    
   128   63  187 1    
   129   63  188 1    
   130   64   65 am   BACKBONE|DICT|INTERRES
   131   64  189 1    
   132   65   66 2    
   133   67   68 2    
   134   67   69 am   BACKBONE|DICT|INTERRES
   135   69   70 1    
   136   69  190 1    
   137   70   71 1    
   138   70   72 1    
   139   70  191 1    
   140   71  192 1    
   141   71  193 1    
   142   71  194 1    
   143   72   73 2    
   144   72   74 am   BACKBONE|DICT|INTERRES
   145   74   75 1    
   146   74  195 1    
   147   75   76 1    
   148   75   77 1    
   149   75  196 1    
   150   76  197 1    
   151   76  198 1    
   152   76  199 1    
   153   77   78 2    
   154   77   79 am   BACKBONE|DICT|INTERRES
   155   79   80 1    
   156   79  200 1    
   157   80   81 1    
   158   80   82 1    
   159   80  201 1    
   160   81  202 1    
   161   81  203 1    
   162   81  204 1    
   163   82   83 2    
   164   82   84 am   BACKBONE|DICT|INTERRES
   165   84   85 1    
   166   84  205 1    
   167   85   86 1    
   168   85   87 1    
   169   85  206 1    
   170   86  207 1    
   171   86  208 1    
   172   86  209 1    
   173   87   88 2    
   174   87   89 am   BACKBONE|DICT|INTERRES
   175   89   90 1    
   176   89  210 1    
   177   90   91 1    
   178   90   92 1    
   179   90  211 1    
   180   91  212 1    
   181   91  213 1    
   182   91  214 1    
   183   92   93 2    
   184   92   94 am   BACKBONE|DICT|INTERRES
   185   94   95 1    
   186   94  215 1    
   187   95   96 1    
   188   95   97 1    
   189   95  216 1    
   190   96  217 1    
   191   96  218 1    
   192   96  219 1    
   193   97   98 2    
   194   97   99 am   BACKBONE|DICT|INTERRES
   195   99  100 1    
   196   99  220 1    
   197  100  101 1    
   198  100  102 1    
   199  100  221 1    
   200  101  222 1    
   201  101  223 1    
   202  101  224 1    
   203  102  103 2    
   204  102  104 am   BACKBONE|DICT|INTERRES
   205  104  105 1    
   206  104  225 1    
   207  105  106 1    
   208  105  107 1    
   209  105  226 1    
   210  106  227 1    
   211  106  228 1    
   212  106  229 1    
   213  107  108 2    
   214  107  109 am   BACKBONE|DICT|INTERRES
   215  109  110 1    
   216  109  230 1    
   217  110  111 1    
   218  110  112 1    
   219  110  231 1    
   220  111  232 1    
   221  111  233 1    
   222  111  234 1    
   223  112  113 2    
   224  112  114 am   BACKBONE|DICT|INTERRES
   225  114  115 1    
   226  114  235 1    
   227  115  116 1    
   228  115  117 1    
   229  115  236 1    
   230  116  237 1    
   231  116  238 1    
   232  116  239 1    
   233  117  118 2    
   234  117  119 am   BACKBONE|DICT|INTERRES
   235  119  120 1    
   236  119  240 1    
   237  120  121 1    
   238  120  124 1    
   239  120  241 1    
   240  121  122 am   BACKBONE|DICT|INTERRES
   241  121  123 2    
   242  122  242 1    
   243  122  243 1    
   244  124  125 1    
   245  124  244 1    
   246  124  245 1    
   247  125  126 1    
   248  126  246 1    
   249  126  247 1    
@<TRIPOS>SUBSTRUCTURE
     1 UNK         1 GROUP             0       ****    0 ROOT    
