@<TRIPOS>MOLECULE
3R540
247   249    1
SMALL
USER_CHARGES


@<TRIPOS>ATOM
      1 CA          5.3332   -9.5620  -47.2379 C.3       0 UNK        -0.1800 
      2 C           4.3803   -9.6903  -48.4253 C.2       0 UNK         0.5000 
      3 O           4.4018   -8.8385  -49.3111 O.2       0 UNK        -0.5000 
      4 N           3.5304  -10.7254  -48.4952 N.am      1 UNK        -0.5000 
      5 CA          3.3609  -11.7967  -47.5033 C.3       1 UNK         0.1400 
      6 C6          2.8169  -13.0919  -48.1598 C.3       23 UNK        -0.0398 
      7 S7          3.2692  -14.6021  -47.2293 S.3       23 UNK        -0.2404 
      8 C8          4.2798  -15.5268  -48.4317 C.3       23 UNK        -0.0205 
      9 C9          3.4557  -16.4805  -49.2906 C.ar      23 UNK        -0.0193 
     10 C10         2.4333  -16.0012  -50.1154 C.ar      23 UNK        -0.1150 
     11 C11         1.6939  -16.8732  -50.9174 C.ar      23 UNK        -0.0193 
     12 C12         1.9907  -18.2388  -50.9073 C.ar      23 UNK        -0.1150 
     13 C13         3.0235  -18.7309  -50.1039 C.ar      23 UNK        -0.0193 
     14 C14         3.7434  -17.8495  -49.2909 C.ar      23 UNK        -0.1150 
     15 C15         3.3936  -20.2062  -50.1437 C.3       23 UNK        -0.0205 
     16 S16         2.7336  -21.1207  -48.7185 S.3       23 UNK        -0.2404 
     17 C17         0.9592  -21.1931  -49.1282 C.3       23 UNK        -0.0398 
     18 CA          0.2351  -22.2940  -48.3183 C.3       11 UNK         0.1400 
     19 N           0.1390  -21.9802  -46.8881 N.am      11 UNK        -0.5000 
     20 C          -0.3181  -22.8234  -45.9505 C.2       10 UNK         0.5000 
     21 O          -0.6681  -23.9807  -46.1813 O.2       10 UNK        -0.5000 
     22 CA         -0.4563  -22.2712  -44.5210 C.3       10 UNK         0.1400 
     23 CB          0.8920  -22.3070  -43.7865 C.3       10 UNK        -0.1800 
     24 N          -1.0142  -20.9181  -44.4884 N.am      10 UNK        -0.5000 
     25 C          -2.2498  -20.5993  -44.9012 C.2       9 UNK         0.5000 
     26 O          -3.0630  -21.4238  -45.3155 O.2       9 UNK        -0.5000 
     27 CA         -2.6342  -19.1091  -44.8969 C.3       9 UNK         0.1400 
     28 CB         -3.0180  -18.6458  -43.4845 C.3       9 UNK        -0.1800 
     29 N          -1.5763  -18.2520  -45.4287 N.am      9 UNK        -0.5000 
     30 C          -1.1058  -18.3106  -46.6832 C.2       8 UNK         0.5000 
     31 O          -1.5490  -19.0674  -47.5490 O.2       8 UNK        -0.5000 
     32 CA          0.0983  -17.4043  -47.0009 C.3       8 UNK         0.1400 
     33 CB         -0.3599  -15.9614  -47.2652 C.3       8 UNK        -0.1800 
     34 N           1.1009  -17.4113  -45.9328 N.am      8 UNK        -0.5000 
     35 C           1.7667  -18.4992  -45.5205 C.2       7 UNK         0.5000 
     36 O           1.6251  -19.6164  -46.0134 O.2       7 UNK        -0.5000 
     37 CA          2.6919  -18.3228  -44.3049 C.3       7 UNK         0.1400 
     38 CB          3.9849  -17.5905  -44.6941 C.3       7 UNK        -0.1800 
     39 N           2.0243  -17.6147  -43.2114 N.am      7 UNK        -0.5000 
     40 C           0.9997  -18.1187  -42.5046 C.2       6 UNK         0.5000 
     41 O           0.5557  -19.2537  -42.6688 O.2       6 UNK        -0.5000 
     42 CA          0.3229  -17.1984  -41.4676 C.3       6 UNK         0.1400 
     43 CB          0.9887  -17.3575  -40.0930 C.3       6 UNK        -0.1800 
     44 N           0.3388  -15.7868  -41.8469 N.am      6 UNK        -0.5000 
     45 C          -0.1895  -15.2831  -42.9702 C.2       5 UNK         0.5000 
     46 O          -0.8742  -15.9430  -43.7525 O.2       5 UNK        -0.5000 
     47 CA          0.1393  -13.8149  -43.3073 C.3       5 UNK         0.1400 
     48 CB         -1.0798  -12.9196  -43.0417 C.3       5 UNK        -0.1800 
     49 N           1.3059  -13.2464  -42.6179 N.am      5 UNK        -0.5000 
     50 C           2.5608  -13.7237  -42.6459 C.2       4 UNK         0.5000 
     51 O           2.8707  -14.8102  -43.1376 O.2       4 UNK        -0.5000 
     52 CA          3.6384  -12.8073  -42.0437 C.3       4 UNK         0.1400 
     53 CB          5.0720  -13.3138  -42.2903 C.3       4 UNK        -0.1800 
     54 N           3.4881  -11.4706  -42.6118 N.am      4 UNK        -0.5000 
     55 C           3.6787  -10.3159  -41.9618 C.2       3 UNK         0.5000 
     56 O           4.0151  -10.2518  -40.7787 O.2       3 UNK        -0.5000 
     57 CA          3.4693   -9.0059  -42.7541 C.3       3 UNK         0.1400 
     58 CB          4.8250   -8.3750  -43.1093 C.3       3 UNK        -0.1800 
     59 N           2.6963   -9.1715  -43.9871 N.am      3 UNK        -0.5000 
     60 C           1.3876   -9.4517  -44.0489 C.2       2 UNK         0.5000 
     61 O           0.6619   -9.5387  -43.0582 O.2       2 UNK        -0.5000 
     62 CA          0.7966   -9.7164  -45.4507 C.3       2 UNK         0.1400 
     63 CB          0.1501   -8.4390  -46.0071 C.3       2 UNK        -0.1800 
     64 N           1.7480  -10.2391  -46.4427 N.am      2 UNK        -0.5000 
     65 C           2.4780  -11.3585  -46.3128 C.2       1 UNK         0.5000 
     66 O           2.4954  -12.0245  -45.2825 O.2       1 UNK        -0.5000 
     67 C          -1.1403  -22.6179  -48.9332 C.2       11 UNK         0.5000 
     68 O          -1.2399  -23.5819  -49.6898 O.2       11 UNK        -0.5000 
     69 N          -2.1788  -21.8539  -48.5641 N.am      12 UNK        -0.5000 
     70 CA         -3.5643  -22.1342  -48.9387 C.3       12 UNK         0.1400 
     71 CB         -4.4572  -20.9424  -48.5574 C.3       12 UNK        -0.1800 
     72 C          -4.0816  -23.4388  -48.3052 C.2       12 UNK         0.5000 
     73 O          -4.5749  -24.3107  -49.0220 O.2       12 UNK        -0.5000 
     74 N          -3.9378  -23.5617  -46.9773 N.am      13 UNK        -0.5000 
     75 CA         -4.4097  -24.6922  -46.1720 C.3       13 UNK         0.1400 
     76 CB         -4.1290  -24.4213  -44.6873 C.3       13 UNK        -0.1800 
     77 C          -3.8255  -26.0539  -46.5875 C.2       13 UNK         0.5000 
     78 O          -4.5310  -27.0594  -46.4969 O.2       13 UNK        -0.5000 
     79 N          -2.5829  -26.0582  -47.0911 N.am      14 UNK        -0.5000 
     80 CA         -1.8821  -27.2270  -47.6321 C.3       14 UNK         0.1400 
     81 CB         -0.4633  -26.8125  -48.0511 C.3       14 UNK        -0.1800 
     82 C          -2.6041  -27.9271  -48.8039 C.2       14 UNK         0.5000 
     83 O          -2.3690  -29.1162  -49.0233 O.2       14 UNK        -0.5000 
     84 N          -3.4787  -27.2009  -49.5120 N.am      15 UNK        -0.5000 
     85 CA         -4.3520  -27.7247  -50.5615 C.3       15 UNK         0.1400 
     86 CB         -3.8061  -27.2997  -51.9338 C.3       15 UNK        -0.1800 
     87 C          -5.8135  -27.2937  -50.3277 C.2       15 UNK         0.5000 
     88 O          -6.5726  -27.1519  -51.2881 O.2       15 UNK        -0.5000 
     89 N          -6.1836  -27.0826  -49.0526 N.am      16 UNK        -0.5000 
     90 CA         -7.5222  -26.7411  -48.5476 C.3       16 UNK         0.1400 
     91 CB         -8.4473  -27.9704  -48.6565 C.3       16 UNK        -0.1800 
     92 C          -8.1515  -25.4788  -49.1826 C.2       16 UNK         0.5000 
     93 O          -9.3768  -25.3706  -49.2489 O.2       16 UNK        -0.5000 
     94 N          -7.2985  -24.5643  -49.6653 N.am      17 UNK        -0.5000 
     95 CA         -7.5992  -23.3539  -50.4352 C.3       17 UNK         0.1400 
     96 CB         -8.3831  -22.3379  -49.5808 C.3       17 UNK        -0.1800 
     97 C          -8.2591  -23.6100  -51.8105 C.2       17 UNK         0.5000 
     98 O          -8.7127  -22.6567  -52.4453 O.2       17 UNK        -0.5000 
     99 N          -8.2780  -24.8692  -52.2737 N.am      18 UNK        -0.5000 
    100 CA        -8.7475  -25.2589  -53.6068 C.3       18 UNK         0.1400 
    101 CB        -9.1716  -26.7351  -53.5770 C.3       18 UNK        -0.1800 
    102 C         -7.6682  -25.0249  -54.6815 C.2       18 UNK         0.5000 
    103 O         -7.9932  -24.8759  -55.8601 O.2       18 UNK        -0.5000 
    104 N         -6.4089  -24.9777  -54.2421 N.am      19 UNK        -0.5000 
    105 CA        -5.2153  -24.6240  -54.9934 C.3       19 UNK         0.1400 
    106 CB        -4.6490  -25.8772  -55.6854 C.3       19 UNK        -0.1800 
    107 C         -4.2188  -24.0121  -53.9947 C.2       19 UNK         0.5000 
    108 O         -4.5296  -23.9210  -52.8033 O.2       19 UNK        -0.5000 
    109 N         -3.0496  -23.5865  -54.4921 N.am      20 UNK        -0.5000 
    110 CA        -1.8717  -23.0932  -53.7544 C.3       20 UNK         0.1400 
    111 CB        -1.2956  -24.2094  -52.8625 C.3       20 UNK        -0.1800 
    112 C         -2.0525  -21.7744  -52.9645 C.2       20 UNK         0.5000 
    113 O         -1.0547  -21.1814  -52.5507 O.2       20 UNK        -0.5000 
    114 N         -3.2987  -21.3187  -52.7958 N.am      21 UNK        -0.5000 
    115 CA        -3.6786  -20.0324  -52.2218 C.3       21 UNK         0.1400 
    116 CB        -5.1985  -20.0333  -51.9917 C.3       21 UNK        -0.1800 
    117 C         -3.2670  -18.8531  -53.1227 C.2       21 UNK         0.5000 
    118 O         -3.0955  -19.0203  -54.3332 O.2       21 UNK        -0.5000 
    119 N         -3.1334  -17.6752  -52.5074 N.am      22 UNK        -0.5000 
    120 CA        -2.6304  -16.4468  -53.1454 C.3       22 UNK         0.1400 
    121 C         -3.6277  -15.7395  -54.1107 C.2       22 UNK         0.5000 
    122 N         -4.8916  -16.1394  -54.1768 N.am      22 UNK        -0.7600 
    123 O         -3.2443  -14.8112  -54.8174 O.2       22 UNK        -0.5000 
    124 C124       -2.0719  -15.4430  -52.1026 C.3       23 UNK        -0.0398 
    125 S125       -0.9687  -16.2058  -50.8641 S.3       23 UNK        -0.2404 
    126 C126        0.5822  -16.3300  -51.7982 C.3       23 UNK        -0.0205 
    127 H127        6.0650  -10.3697  -47.2451 H         1 UNK         0.0600 
    128 H128        5.8787   -8.6193  -47.2868 H         1 UNK         0.0600 
    129 H129        4.7971   -9.5821  -46.2907 H         1 UNK         0.0600 
    130 H130        2.9210  -10.7840  -49.2990 H         1 UNK         0.3000 
    131 H131        4.3463  -12.0299  -47.0957 H         1 UNK         0.0600 
    132 H132        1.7324  -13.0574  -48.2805 H         1 UNK         0.0800 
    133 H133        3.2215  -13.1775  -49.1683 H         1 UNK         0.0800 
    134 H134        4.8362  -14.8414  -49.0721 H         1 UNK         0.0800 
    135 H135        5.0301  -16.0848  -47.8695 H         1 UNK         0.0800 
    136 H136        2.2003  -14.9481  -50.1349 H         1 UNK         0.1150 
    137 H137        1.4251  -18.9155  -51.5329 H         1 UNK         0.1150 
    138 H138        4.5403  -18.2332  -48.6693 H         1 UNK         0.1150 
    139 H139        3.0491  -20.6682  -51.0703 H         1 UNK         0.0800 
    140 H140        4.4802  -20.3027  -50.1460 H         1 UNK         0.0800 
    141 H141        0.8678  -21.3829  -50.1998 H         1 UNK         0.0800 
    142 H142        0.5101  -20.2151  -48.9484 H         1 UNK         0.0800 
    143 H143        0.8260  -23.2093  -48.3995 H         1 UNK         0.0600 
    144 H144        0.4709  -21.0623  -46.6027 H         1 UNK         0.3000 
    145 H145       -1.1450  -22.9235  -43.9812 H         1 UNK         0.0600 
    146 H146        0.7784  -22.0167  -42.7420 H         1 UNK         0.0600 
    147 H147        1.3171  -23.3113  -43.7996 H         1 UNK         0.0600 
    148 H148        1.6200  -21.6363  -44.2428 H         1 UNK         0.0600 
    149 H149       -0.4113  -20.1902  -44.1175 H         1 UNK         0.3000 
    150 H150       -3.5077  -18.9900  -45.5413 H         1 UNK         0.0600 
    151 H151       -3.8534  -19.2302  -43.0973 H         1 UNK         0.0600 
    152 H152       -3.3218  -17.5988  -43.4802 H         1 UNK         0.0600 
    153 H153       -2.1894  -18.7574  -42.7860 H         1 UNK         0.0600 
    154 H154       -1.1818  -17.5630  -44.7944 H         1 UNK         0.3000 
    155 H155        0.5695  -17.7858  -47.9095 H         1 UNK         0.0600 
    156 H156        0.4381  -15.3733  -47.7162 H         1 UNK         0.0600 
    157 H157       -0.6753  -15.4579  -46.3520 H         1 UNK         0.0600 
    158 H158       -1.2049  -15.9377  -47.9532 H         1 UNK         0.0600 
    159 H159        1.2627  -16.5374  -45.4551 H         1 UNK         0.3000 
    160 H160        2.9649  -19.3179  -43.9473 H         1 UNK         0.0600 
    161 H161        3.7880  -16.5699  -45.0219 H         1 UNK         0.0600 
    162 H162        4.4944  -18.1042  -45.5103 H         1 UNK         0.0600 
    163 H163        4.6776  -17.5416  -43.8540 H         1 UNK         0.0600 
    164 H164        2.3143  -16.6533  -43.0502 H         1 UNK         0.3000 
    165 H165       -0.7205  -17.5055  -41.3798 H         1 UNK         0.0600 
    166 H166        2.0308  -17.0356  -40.1113 H         1 UNK         0.0600 
    167 H167        0.4692  -16.7744  -39.3324 H         1 UNK         0.0600 
    168 H168        0.9722  -18.3993  -39.7700 H         1 UNK         0.0600 
    169 H169        0.8937  -15.1700  -41.2729 H         1 UNK         0.3000 
    170 H170        0.3576  -13.7818  -44.3767 H         1 UNK         0.0600 
    171 H171       -1.9615  -13.2910  -43.5660 H         1 UNK         0.0600 
    172 H172       -1.3221  -12.8775  -41.9792 H         1 UNK         0.0600 
    173 H173       -0.9053  -11.9008  -43.3872 H         1 UNK         0.0600 
    174 H174        1.1637  -12.3398  -42.1958 H         1 UNK         0.3000 
    175 H175        3.4591  -12.7789  -40.9671 H         1 UNK         0.0600 
    176 H176        5.2166  -14.3062  -41.8617 H         1 UNK         0.0600 
    177 H177        5.8084  -12.6525  -41.8336 H         1 UNK         0.0600 
    178 H178        5.2940  -13.3784  -43.3563 H         1 UNK         0.0600 
    179 H179        3.1683  -11.4557  -43.5776 H         1 UNK         0.3000 
    180 H180        2.9292   -8.3144  -42.1040 H         1 UNK         0.0600 
    181 H181        5.4111   -9.0222  -43.7630 H         1 UNK         0.0600 
    182 H182        5.4183   -8.1917  -42.2124 H         1 UNK         0.0600 
    183 H183        4.6958   -7.4163  -43.6121 H         1 UNK         0.0600 
    184 H184        3.2090   -9.1140  -44.8531 H         1 UNK         0.3000 
    185 H185        0.0143  -10.4682  -45.3291 H         1 UNK         0.0600 
    186 H186       -0.3712   -8.6354  -46.9441 H         1 UNK         0.0600 
    187 H187       -0.5838   -8.0348  -45.3084 H         1 UNK         0.0600 
    188 H188        0.8919   -7.6609  -46.1909 H         1 UNK         0.0600 
    189 H189        1.8034   -9.7371  -47.3172 H         1 UNK         0.3000 
    190 H190       -2.0136  -21.0545  -47.9612 H         1 UNK         0.3000 
    191 H191       -3.6036  -22.2560  -50.0231 H         1 UNK         0.0600 
    192 H192       -4.1189  -20.0239  -49.0362 H         1 UNK         0.0600 
    193 H193       -5.4885  -21.1130  -48.8672 H         1 UNK         0.0600 
    194 H194       -4.4652  -20.7663  -47.4820 H         1 UNK         0.0600 
    195 H195       -3.5233  -22.7896  -46.4585 H         1 UNK         0.3000 
    196 H196       -5.4916  -24.7510  -46.3064 H         1 UNK         0.0600 
    197 H197       -4.4948  -25.2377  -44.0633 H         1 UNK         0.0600 
    198 H198       -4.6239  -23.5100  -44.3514 H         1 UNK         0.0600 
    199 H199       -3.0612  -24.3143  -44.4964 H         1 UNK         0.0600 
    200 H200       -2.0577  -25.1895  -47.0731 H         1 UNK         0.3000 
    201 H201       -1.7992  -27.9566  -46.8243 H         1 UNK         0.0600 
    202 H202        0.0992  -26.4168  -47.2055 H         1 UNK         0.0600 
    203 H203       -0.4829  -26.0484  -48.8287 H         1 UNK         0.0600 
    204 H204        0.0960  -27.6639  -48.4411 H         1 UNK         0.0600 
    205 H205       -3.6158  -26.2243  -49.2714 H         1 UNK         0.3000 
    206 H206       -4.3661  -28.8157  -50.5315 H         1 UNK         0.0600 
    207 H207       -2.8061  -27.7001  -52.1000 H         1 UNK         0.0600 
    208 H208       -4.4394  -27.6606  -52.7446 H         1 UNK         0.0600 
    209 H209       -3.7456  -26.2167  -52.0107 H         1 UNK         0.0600 
    210 H210       -5.4797  -27.2092  -48.3332 H         1 UNK         0.3000 
    211 H211       -7.3965  -26.5128  -47.4884 H         1 UNK         0.0600 
    212 H212       -8.6579  -28.2238  -49.6962 H         1 UNK         0.0600 
    213 H213       -9.4027  -27.7913  -48.1620 H         1 UNK         0.0600 
    214 H214       -7.9994  -28.8438  -48.1826 H         1 UNK         0.0600 
    215 H215       -6.3038  -24.7343  -49.5296 H         1 UNK         0.3000 
    216 H216       -6.6280  -22.9111  -50.6591 H         1 UNK         0.0600 
    217 H217       -7.8889  -22.1620  -48.6254 H         1 UNK         0.0600 
    218 H218       -9.3985  -22.6784  -49.3768 H         1 UNK         0.0600 
    219 H219       -8.4576  -21.3751  -50.0876 H         1 UNK         0.0600 
    220 H220       -7.8530  -25.6029  -51.7156 H         1 UNK         0.3000 
    221 H221       -9.6207  -24.6582  -53.8698 H         1 UNK         0.0600 
    222 H222       -8.3307  -27.3920  -53.3519 H         1 UNK         0.0600 
    223 H223       -9.9430  -26.9089  -52.8265 H         1 UNK         0.0600 
    224 H224       -9.5788  -27.0429  -54.5409 H         1 UNK         0.0600 
    225 H225       -6.2450  -25.0527  -53.2450 H         1 UNK         0.3000 
    226 H226       -5.4632  -23.8654  -55.7385 H         1 UNK         0.0600 
    227 H227       -5.3876  -26.3299  -56.3472 H         1 UNK         0.0600 
    228 H228       -3.7781  -25.6352  -56.2950 H         1 UNK         0.0600 
    229 H229       -4.3440  -26.6327  -54.9610 H         1 UNK         0.0600 
    230 H230       -2.9159  -23.6553  -55.4915 H         1 UNK         0.3000 
    231 H231       -1.1235  -22.8728  -54.5172 H         1 UNK         0.0600 
    232 H232       -0.3696  -23.8901  -52.3829 H         1 UNK         0.0600 
    233 H233       -1.0694  -25.1035  -53.4432 H         1 UNK         0.0600 
    234 H234       -1.9896  -24.4917  -52.0709 H         1 UNK         0.0600 
    235 H235       -4.0499  -21.9139  -53.1162 H         1 UNK         0.3000 
    236 H236       -3.1688  -19.9296  -51.2619 H         1 UNK         0.0600 
    237 H237       -5.5213  -19.1220  -51.4871 H         1 UNK         0.0600 
    238 H238       -5.7473  -20.1019  -52.9320 H         1 UNK         0.0600 
    239 H239       -5.5040  -20.8732  -51.3689 H         1 UNK         0.0600 
    240 H240       -3.2977  -17.6131  -51.5133 H         1 UNK         0.3000 
    241 H241       -1.7902  -16.7451  -53.7753 H         1 UNK         0.0600 
    242 H242       -5.2161  -16.9055  -53.6094 H         1 UNK         0.3800 
    243 H243       -5.5271  -15.6771  -54.8081 H         1 UNK         0.3800 
    244 H244       -1.5367  -14.6309  -52.5980 H         1 UNK         0.0800 
    245 H245       -2.8932  -14.9737  -51.5583 H         1 UNK         0.0800 
    246 H246        0.8593  -15.3479  -52.1846 H         1 UNK         0.0800 
    247 H247        0.4366  -16.9773  -52.6642 H         1 UNK         0.0800 
@<TRIPOS>BOND
     1    1    2 1    
     2    1  127 1    
     3    1  128 1    
     4    1  129 1    
     5    2    3 2    
     6    2    4 am   BACKBONE|DICT|INTERRES
     7    4    5 1    
     8    4  130 1    
     9    5    6 1    
    10    5   65 1    
    11    5  131 1    
    12    6    7 1    
    13    6  132 1    
    14    6  133 1    
    15    7    8 1    
    16    8    9 1    
    17    8  134 1    
    18    8  135 1    
    19    9   10 ar   
    20    9   14 ar   
    21   10   11 ar   
    22   10  136 1    
    23   11   12 ar   
    24   11  126 1    
    25   12   13 ar   
    26   12  137 1    
    27   13   14 ar   
    28   13   15 1    
    29   14  138 1    
    30   15   16 1    
    31   15  139 1    
    32   15  140 1    
    33   16   17 1    
    34   17   18 1    
    35   17  141 1    
    36   17  142 1    
    37   18   19 1    
    38   18   67 1    
    39   18  143 1    
    40   19   20 am   BACKBONE|DICT|INTERRES
    41   19  144 1    
    42   20   21 2    
    43   20   22 1    
    44   22   23 1    
    45   22   24 1    
    46   22  145 1    
    47   23  146 1    
    48   23  147 1    
    49   23  148 1    
    50   24   25 am   BACKBONE|DICT|INTERRES
    51   24  149 1    
    52   25   26 2    
    53   25   27 1    
    54   27   28 1    
    55   27   29 1    
    56   27  150 1    
    57   28  151 1    
    58   28  152 1    
    59   28  153 1    
    60   29   30 am   BACKBONE|DICT|INTERRES
    61   29  154 1    
    62   30   31 2    
    63   30   32 1    
    64   32   33 1    
    65   32   34 1    
    66   32  155 1    
    67   33  156 1    
    68   33  157 1    
    69   33  158 1    
    70   34   35 am   BACKBONE|DICT|INTERRES
    71   34  159 1    
    72   35   36 2    
    73   35   37 1    
    74   37   38 1    
    75   37   39 1    
    76   37  160 1    
    77   38  161 1    
    78   38  162 1    
    79   38  163 1    
    80   39   40 am   BACKBONE|DICT|INTERRES
    81   39  164 1    
    82   40   41 2    
    83   40   42 1    
    84   42   43 1    
    85   42   44 1    
    86   42  165 1    
    87   43  166 1    
    88   43  167 1    
    89   43  168 1    
    90   44   45 am   BACKBONE|DICT|INTERRES
    91   44  169 1    
    92   45   46 2    
    93   45   47 1    
    94   47   48 1    
    95   47   49 1    
    96   47  170 1    
    97   48  171 1    
    98   48  172 1    
    99   48  173 1    
   100   49   50 am   BACKBONE|DICT|INTERRES
   101   49  174 1    
   102   50   51 2    
   103   50   52 1    
   104   52   53 1    
   105   52   54 1    
   106   52  175 1    
   107   53  176 1    
   108   53  177 1    
   109   53  178 1    
   110   54   55 am   BACKBONE|DICT|INTERRES
   111   54  179 1    
   112   55   56 2    
   113   55   57 1    
   114   57   58 1    
   115   57   59 1    
   116   57  180 1    
   117   58  181 1    
   118   58  182 1    
   119   58  183 1    
   120   59   60 am   BACKBONE|DICT|INTERRES
   121   59  184 1    
   122   60   61 2    
   123   60   62 1    
   124   62   63 1    
   125   62   64 1    
   126   62  185 1    
   127   63  186 1    
   128   63  187 1    
   129   63  188 1    
   130   64   65 am   BACKBONE|DICT|INTERRES
   131   64  189 1    
   132   65   66 2    
   133   67   68 2    
   134   67   69 am   BACKBONE|DICT|INTERRES
   135   69   70 1    
   136   69  190 1    
   137   70   71 1    
   138   70   72 1    
   139   70  191 1    
   140   71  192 1    
   141   71  193 1    
   142   71  194 1    
   143   72   73 2    
   144   72   74 am   BACKBONE|DICT|INTERRES
   145   74   75 1    
   146   74  195 1    
   147   75   76 1    
   148   75   77 1    
   149   75  196 1    
   150   76  197 1    
   151   76  198 1    
   152   76  199 1    
   153   77   78 2    
   154   77   79 am   BACKBONE|DICT|INTERRES
   155   79   80 1    
   156   79  200 1    
   157   80   81 1    
   158   80   82 1    
   159   80  201 1    
   160   81  202 1    
   161   81  203 1    
   162   81  204 1    
   163   82   83 2    
   164   82   84 am   BACKBONE|DICT|INTERRES
   165   84   85 1    
   166   84  205 1    
   167   85   86 1    
   168   85   87 1    
   169   85  206 1    
   170   86  207 1    
   171   86  208 1    
   172   86  209 1    
   173   87   88 2    
   174   87   89 am   BACKBONE|DICT|INTERRES
   175   89   90 1    
   176   89  210 1    
   177   90   91 1    
   178   90   92 1    
   179   90  211 1    
   180   91  212 1    
   181   91  213 1    
   182   91  214 1    
   183   92   93 2    
   184   92   94 am   BACKBONE|DICT|INTERRES
   185   94   95 1    
   186   94  215 1    
   187   95   96 1    
   188   95   97 1    
   189   95  216 1    
   190   96  217 1    
   191   96  218 1    
   192   96  219 1    
   193   97   98 2    
   194   97   99 am   BACKBONE|DICT|INTERRES
   195   99  100 1    
   196   99  220 1    
   197  100  101 1    
   198  100  102 1    
   199  100  221 1    
   200  101  222 1    
   201  101  223 1    
   202  101  224 1    
   203  102  103 2    
   204  102  104 am   BACKBONE|DICT|INTERRES
   205  104  105 1    
   206  104  225 1    
   207  105  106 1    
   208  105  107 1    
   209  105  226 1    
   210  106  227 1    
   211  106  228 1    
   212  106  229 1    
   213  107  108 2    
   214  107  109 am   BACKBONE|DICT|INTERRES
   215  109  110 1    
   216  109  230 1    
   217  110  111 1    
   218  110  112 1    
   219  110  231 1    
   220  111  232 1    
   221  111  233 1    
   222  111  234 1    
   223  112  113 2    
   224  112  114 am   BACKBONE|DICT|INTERRES
   225  114  115 1    
   226  114  235 1    
   227  115  116 1    
   228  115  117 1    
   229  115  236 1    
   230  116  237 1    
   231  116  238 1    
   232  116  239 1    
   233  117  118 2    
   234  117  119 am   BACKBONE|DICT|INTERRES
   235  119  120 1    
   236  119  240 1    
   237  120  121 1    
   238  120  124 1    
   239  120  241 1    
   240  121  122 am   BACKBONE|DICT|INTERRES
   241  121  123 2    
   242  122  242 1    
   243  122  243 1    
   244  124  125 1    
   245  124  244 1    
   246  124  245 1    
   247  125  126 1    
   248  126  246 1    
   249  126  247 1    
@<TRIPOS>SUBSTRUCTURE
     1 UNK         1 GROUP             0       ****    0 ROOT    
