@<TRIPOS>MOLECULE
3R540
247   249    1
SMALL
USER_CHARGES


@<TRIPOS>ATOM
      1 CA         -6.3128  -16.4656  -45.8665 C.3       0 UNK        -0.1800 
      2 C          -5.2272  -15.3988  -45.8258 C.2       0 UNK         0.5000 
      3 O          -5.5064  -14.2537  -45.4700 O.2       0 UNK        -0.5000 
      4 N          -3.9963  -15.7672  -46.2024 N.am      1 UNK        -0.5000 
      5 CA         -2.8149  -14.9013  -46.1752 C.3       1 UNK         0.1400 
      6 C6         -1.6443  -15.5462  -46.9579 C.3       23 UNK        -0.0398 
      7 S7         -0.2706  -14.3841  -47.2779 S.3       23 UNK        -0.2404 
      8 C8         -0.2986  -14.2386  -49.0972 C.3       23 UNK        -0.0205 
      9 C9          0.0491  -15.5239  -49.8482 C.ar      23 UNK        -0.0193 
     10 C10        -0.5149  -15.7497  -51.1078 C.ar      23 UNK        -0.1150 
     11 C11        -0.2073  -16.9046  -51.8331 C.ar      23 UNK        -0.0193 
     12 C12         0.6720  -17.8443  -51.2903 C.ar      23 UNK        -0.1150 
     13 C13         1.2380  -17.6380  -50.0294 C.ar      23 UNK        -0.0193 
     14 C14         0.9351  -16.4720  -49.3218 C.ar      23 UNK        -0.1150 
     15 C15         2.1570  -18.6841  -49.4137 C.3       23 UNK        -0.0205 
     16 S16         1.3117  -20.2752  -49.1372 S.3       23 UNK        -0.2404 
     17 C17        -0.2279  -19.7404  -48.3174 C.3       23 UNK        -0.0398 
     18 CA         -0.8614  -20.8819  -47.4945 C.3       11 UNK         0.1400 
     19 N          -0.0883  -21.1926  -46.2906 N.am      11 UNK        -0.5000 
     20 C           0.0834  -22.4240  -45.7924 C.2       10 UNK         0.5000 
     21 O          -0.3300  -23.4472  -46.3369 O.2       10 UNK        -0.5000 
     22 CA          0.8433  -22.5463  -44.4557 C.3       10 UNK         0.1400 
     23 CB          2.3254  -22.8579  -44.7132 C.3       10 UNK        -0.1800 
     24 N           0.7483  -21.3578  -43.6067 N.am      10 UNK        -0.5000 
     25 C          -0.3847  -20.8791  -43.0744 C.2       9 UNK         0.5000 
     26 O          -1.4829  -21.4200  -43.2035 O.2       9 UNK        -0.5000 
     27 CA         -0.2831  -19.5321  -42.3327 C.3       9 UNK         0.1400 
     28 CB          0.1186  -19.7510  -40.8681 C.3       9 UNK        -0.1800 
     29 N           0.6467  -18.5908  -42.9647 N.am      9 UNK        -0.5000 
     30 C           0.5369  -18.1379  -44.2230 C.2       8 UNK         0.5000 
     31 O          -0.3531  -18.4841  -44.9980 O.2       8 UNK        -0.5000 
     32 CA          1.6279  -17.1808  -44.7191 C.3       8 UNK         0.1400 
     33 CB          1.3577  -15.7520  -44.2378 C.3       8 UNK        -0.1800 
     34 N           2.9487  -17.6153  -44.2712 N.am      8 UNK        -0.5000 
     35 C           3.6758  -18.5495  -44.8993 C.2       7 UNK         0.5000 
     36 O           3.3387  -19.0824  -45.9558 O.2       7 UNK        -0.5000 
     37 CA          4.9925  -18.9790  -44.2248 C.3       7 UNK         0.1400 
     38 CB          6.1483  -18.0746  -44.6787 C.3       7 UNK        -0.1800 
     39 N           4.9258  -18.9755  -42.7623 N.am      7 UNK        -0.5000 
     40 C           4.1329  -19.7717  -42.0316 C.2       6 UNK         0.5000 
     41 O           3.3677  -20.6061  -42.5136 O.2       6 UNK        -0.5000 
     42 CA          4.1684  -19.5699  -40.5048 C.3       6 UNK         0.1400 
     43 CB          5.2708  -20.4355  -39.8768 C.3       6 UNK        -0.1800 
     44 N           4.3478  -18.1777  -40.0789 N.am      6 UNK        -0.5000 
     45 C           3.5700  -17.1411  -40.4244 C.2       5 UNK         0.5000 
     46 O           2.6393  -17.2350  -41.2282 O.2       5 UNK        -0.5000 
     47 CA          3.8924  -15.7718  -39.7869 C.3       5 UNK         0.1400 
     48 CB          5.0083  -15.8173  -38.7228 C.3       5 UNK        -0.1800 
     49 N           4.2762  -14.8189  -40.8263 N.am      5 UNK        -0.5000 
     50 C           3.4214  -14.0665  -41.5284 C.2       4 UNK         0.5000 
     51 O           2.2096  -14.0082  -41.2992 O.2       4 UNK        -0.5000 
     52 CA          4.0204  -13.2483  -42.6861 C.3       4 UNK         0.1400 
     53 CB          4.9440  -14.0928  -43.5899 C.3       4 UNK        -0.1800 
     54 N           2.9224  -12.7090  -43.4776 N.am      4 UNK        -0.5000 
     55 C           2.9477  -11.6220  -44.2530 C.2       3 UNK         0.5000 
     56 O           3.9438  -10.9117  -44.3964 O.2       3 UNK        -0.5000 
     57 CA          1.6504  -11.2746  -45.0148 C.3       3 UNK         0.1400 
     58 CB          1.8556  -11.4567  -46.5276 C.3       3 UNK        -0.1800 
     59 N           0.4889  -12.0728  -44.6036 N.am      3 UNK        -0.5000 
     60 C          -0.2272  -11.8704  -43.4868 C.2       2 UNK         0.5000 
     61 O           0.0297  -10.9809  -42.6748 O.2       2 UNK        -0.5000 
     62 CA         -1.4279  -12.8085  -43.2484 C.3       2 UNK         0.1400 
     63 CB         -2.5626  -12.1384  -42.4511 C.3       2 UNK        -0.1800 
     64 N          -1.9544  -13.3156  -44.5165 N.am      2 UNK        -0.5000 
     65 C          -2.4062  -14.5576  -44.7238 C.2       1 UNK         0.5000 
     66 O          -2.4675  -15.4213  -43.8461 O.2       1 UNK        -0.5000 
     67 C          -2.3233  -20.5521  -47.1426 C.2       11 UNK         0.5000 
     68 O          -3.2080  -20.8488  -47.9429 O.2       11 UNK        -0.5000 
     69 N          -2.5770  -19.9605  -45.9659 N.am      12 UNK        -0.5000 
     70 CA         -3.9249  -19.7251  -45.4420 C.3       12 UNK         0.1400 
     71 CB         -3.8480  -18.8859  -44.1590 C.3       12 UNK        -0.1800 
     72 C          -4.6824  -21.0432  -45.1985 C.2       12 UNK         0.5000 
     73 O          -5.8575  -21.1492  -45.5552 O.2       12 UNK        -0.5000 
     74 N          -3.9684  -22.0421  -44.6606 N.am      13 UNK        -0.5000 
     75 CA         -4.3979  -23.4350  -44.5788 C.3       13 UNK         0.1400 
     76 CB         -3.3203  -24.2526  -43.8504 C.3       13 UNK        -0.1800 
     77 C          -4.6733  -24.0107  -45.9816 C.2       13 UNK         0.5000 
     78 O          -3.7941  -23.9716  -46.8438 O.2       13 UNK        -0.5000 
     79 N          -5.9030  -24.5013  -46.1824 N.am      14 UNK        -0.5000 
     80 CA         -6.4456  -25.0445  -47.4336 C.3       14 UNK         0.1400 
     81 CB         -5.6667  -26.3002  -47.8828 C.3       14 UNK        -0.1800 
     82 C          -6.6008  -24.0100  -48.5716 C.2       14 UNK         0.5000 
     83 O          -6.7680  -24.4184  -49.7205 O.2       14 UNK        -0.5000 
     84 N          -6.5774  -22.7066  -48.2441 N.am      15 UNK        -0.5000 
     85 CA         -6.8336  -21.5614  -49.1285 C.3       15 UNK         0.1400 
     86 CB         -8.3397  -21.4760  -49.4492 C.3       15 UNK        -0.1800 
     87 C          -5.9624  -21.5687  -50.4024 C.2       15 UNK         0.5000 
     88 O          -6.4704  -21.7781  -51.5071 O.2       15 UNK        -0.5000 
     89 N          -4.6488  -21.3874  -50.2117 N.am      16 UNK        -0.5000 
     90 CA         -3.5969  -21.4091  -51.2337 C.3       16 UNK         0.1400 
     91 CB         -3.7433  -20.2026  -52.1873 C.3       16 UNK        -0.1800 
     92 C          -3.4977  -22.7729  -51.9497 C.2       16 UNK         0.5000 
     93 O          -3.2129  -22.8252  -53.1470 O.2       16 UNK        -0.5000 
     94 N          -3.7607  -23.8497  -51.1913 N.am      17 UNK        -0.5000 
     95 CA         -3.8605  -25.2459  -51.6287 C.3       17 UNK         0.1400 
     96 CB         -2.4746  -25.7862  -52.0375 C.3       17 UNK        -0.1800 
     97 C          -4.9362  -25.4245  -52.7199 C.2       17 UNK         0.5000 
     98 O          -4.6458  -25.9329  -53.8026 O.2       17 UNK        -0.5000 
     99 N          -6.1525  -24.9492  -52.4161 N.am      18 UNK        -0.5000 
    100 CA        -7.3150  -24.8420  -53.3028 C.3       18 UNK         0.1400 
    101 CB        -7.8527  -26.2390  -53.6771 C.3       18 UNK        -0.1800 
    102 C         -7.0323  -23.9445  -54.5266 C.2       18 UNK         0.5000 
    103 O         -7.3693  -24.3057  -55.6559 O.2       18 UNK        -0.5000 
    104 N         -6.3992  -22.7913  -54.2638 N.am      19 UNK        -0.5000 
    105 CA        -5.9637  -21.7717  -55.2248 C.3       19 UNK         0.1400 
    106 CB        -7.1830  -21.0638  -55.8513 C.3       19 UNK        -0.1800 
    107 C         -4.9534  -22.2800  -56.2786 C.2       19 UNK         0.5000 
    108 O         -4.9267  -21.7660  -57.3988 O.2       19 UNK        -0.5000 
    109 N         -4.1326  -23.2720  -55.9080 N.am      20 UNK        -0.5000 
    110 CA        -3.0359  -23.7811  -56.7299 C.3       20 UNK         0.1400 
    111 CB        -2.6841  -25.2122  -56.3008 C.3       20 UNK        -0.1800 
    112 C         -1.8005  -22.8697  -56.6449 C.2       20 UNK         0.5000 
    113 O         -1.1521  -22.6302  -57.6654 O.2       20 UNK        -0.5000 
    114 N         -1.5038  -22.3596  -55.4408 N.am      21 UNK        -0.5000 
    115 CA        -0.4623  -21.3593  -55.2175 C.3       21 UNK         0.1400 
    116 CB        -0.0891  -21.3164  -53.7271 C.3       21 UNK        -0.1800 
    117 C         -0.9297  -19.9829  -55.7226 C.2       21 UNK         0.5000 
    118 O         -2.1118  -19.6539  -55.5990 O.2       21 UNK        -0.5000 
    119 N          0.0102  -19.2147  -56.2854 N.am      22 UNK        -0.5000 
    120 CA        -0.2106  -17.9108  -56.9420 C.3       22 UNK         0.1400 
    121 C         -0.9936  -17.9870  -58.2913 C.2       22 UNK         0.5000 
    122 N         -1.2071  -19.1600  -58.8765 N.am      22 UNK        -0.7600 
    123 O         -1.3856  -16.9616  -58.8422 O.2       22 UNK        -0.5000 
    124 C124       -0.7822  -16.8164  -55.9939 C.3       23 UNK        -0.0398 
    125 S125        0.2568  -16.5239  -54.5219 S.3       23 UNK        -0.2404 
    126 C126       -0.8285  -17.1395  -53.1993 C.3       23 UNK        -0.0205 
    127 H127       -7.2207  -16.0623  -46.3153 H         1 UNK         0.0600 
    128 H128       -6.5500  -16.7982  -44.8560 H         1 UNK         0.0600 
    129 H129       -6.0074  -17.3324  -46.4519 H         1 UNK         0.0600 
    130 H130       -3.8270  -16.7271  -46.4609 H         1 UNK         0.3000 
    131 H131       -3.0906  -13.9745  -46.6838 H         1 UNK         0.0600 
    132 H132       -1.2518  -16.4143  -46.4266 H         1 UNK         0.0800 
    133 H133       -2.0073  -15.9266  -47.9137 H         1 UNK         0.0800 
    134 H134       -1.2838  -13.8791  -49.3984 H         1 UNK         0.0800 
    135 H135        0.4147  -13.4678  -49.3914 H         1 UNK         0.0800 
    136 H136       -1.1921  -15.0207  -51.5307 H         1 UNK         0.1150 
    137 H137        0.9070  -18.7434  -51.8422 H         1 UNK         0.1150 
    138 H138        1.3865  -16.3113  -48.3536 H         1 UNK         0.1150 
    139 H139        3.0129  -18.8439  -50.0704 H         1 UNK         0.0800 
    140 H140        2.5599  -18.3337  -48.4623 H         1 UNK         0.0800 
    141 H141       -0.9085  -19.4006  -49.1010 H         1 UNK         0.0800 
    142 H142       -0.0270  -18.8741  -47.6846 H         1 UNK         0.0800 
    143 H143       -0.8988  -21.7654  -48.1362 H         1 UNK         0.0600 
    144 H144        0.2675  -20.4006  -45.7715 H         1 UNK         0.3000 
    145 H145        0.4062  -23.3830  -43.9069 H         1 UNK         0.0600 
    146 H146        2.4382  -23.7410  -45.3435 H         1 UNK         0.0600 
    147 H147        2.8274  -22.0285  -45.2138 H         1 UNK         0.0600 
    148 H148        2.8543  -23.0557  -43.7807 H         1 UNK         0.0600 
    149 H149        1.6217  -20.8831  -43.3969 H         1 UNK         0.3000 
    150 H150       -1.2696  -19.0663  -42.3464 H         1 UNK         0.0600 
    151 H151       -0.6311  -20.3466  -40.3459 H         1 UNK         0.0600 
    152 H152        0.2143  -18.8048  -40.3349 H         1 UNK         0.0600 
    153 H153        1.0665  -20.2813  -40.7901 H         1 UNK         0.0600 
    154 H154        1.3972  -18.2311  -42.3827 H         1 UNK         0.3000 
    155 H155        1.5964  -17.1743  -45.8112 H         1 UNK         0.0600 
    156 H156        0.3602  -15.4270  -44.5269 H         1 UNK         0.0600 
    157 H157        2.0674  -15.0534  -44.6783 H         1 UNK         0.0600 
    158 H158        1.4184  -15.6770  -43.1533 H         1 UNK         0.0600 
    159 H159        3.2530  -17.2861  -43.3645 H         1 UNK         0.3000 
    160 H160        5.2089  -19.9998  -44.5473 H         1 UNK         0.0600 
    161 H161        6.0042  -17.0428  -44.3562 H         1 UNK         0.0600 
    162 H162        6.2359  -18.0692  -45.7661 H         1 UNK         0.0600 
    163 H163        7.1013  -18.4217  -44.2792 H         1 UNK         0.0600 
    164 H164        5.5183  -18.3169  -42.2791 H         1 UNK         0.3000 
    165 H165        3.2114  -19.9074  -40.1061 H         1 UNK         0.0600 
    166 H166        5.2393  -20.3870  -38.7882 H         1 UNK         0.0600 
    167 H167        5.1522  -21.4832  -40.1568 H         1 UNK         0.0600 
    168 H168        6.2638  -20.1198  -40.1992 H         1 UNK         0.0600 
    169 H169        5.0967  -18.0084  -39.4233 H         1 UNK         0.3000 
    170 H170        2.9802  -15.4310  -39.2929 H         1 UNK         0.0600 
    171 H171        4.7543  -16.4994  -37.9101 H         1 UNK         0.0600 
    172 H172        5.9657  -16.1299  -39.1418 H         1 UNK         0.0600 
    173 H173        5.1538  -14.8341  -38.2747 H         1 UNK         0.0600 
    174 H174        5.2521  -14.8115  -41.0845 H         1 UNK         0.3000 
    175 H175        4.5882  -12.4242  -42.2498 H         1 UNK         0.0600 
    176 H176        4.4316  -14.9735  -43.9777 H         1 UNK         0.0600 
    177 H177        5.2990  -13.5148  -44.4432 H         1 UNK         0.0600 
    178 H178        5.8285  -14.4346  -43.0521 H         1 UNK         0.0600 
    179 H179        2.0403  -13.1807  -43.3308 H         1 UNK         0.3000 
    180 H180        1.4336  -10.2211  -44.8258 H         1 UNK         0.0600 
    181 H181        2.1171  -12.4860  -46.7763 H         1 UNK         0.0600 
    182 H182        2.6605  -10.8180  -46.8935 H         1 UNK         0.0600 
    183 H183        0.9562  -11.1941  -47.0849 H         1 UNK         0.0600 
    184 H184        0.2336  -12.8346  -45.2163 H         1 UNK         0.3000 
    185 H185       -1.0388  -13.6399  -42.6565 H         1 UNK         0.0600 
    186 H186       -2.2132  -11.7991  -41.4753 H         1 UNK         0.0600 
    187 H187       -2.9645  -11.2729  -42.9788 H         1 UNK         0.0600 
    188 H188       -3.3833  -12.8339  -42.2747 H         1 UNK         0.0600 
    189 H189       -1.9450  -12.6603  -45.2865 H         1 UNK         0.3000 
    190 H190       -1.7971  -19.6548  -45.3919 H         1 UNK         0.3000 
    191 H191       -4.4758  -19.1567  -46.1928 H         1 UNK         0.0600 
    192 H192       -3.2646  -17.9783  -44.3114 H         1 UNK         0.0600 
    193 H193       -4.8438  -18.5845  -43.8324 H         1 UNK         0.0600 
    194 H194       -3.3924  -19.4420  -43.3404 H         1 UNK         0.0600 
    195 H195       -3.0142  -21.8490  -44.3713 H         1 UNK         0.3000 
    196 H196       -5.3144  -23.4683  -43.9864 H         1 UNK         0.0600 
    197 H197       -3.6171  -25.2981  -43.7595 H         1 UNK         0.0600 
    198 H198       -3.1499  -23.8720  -42.8430 H         1 UNK         0.0600 
    199 H199       -2.3682  -24.2250  -44.3822 H         1 UNK         0.0600 
    200 H200       -6.5595  -24.4641  -45.4145 H         1 UNK         0.3000 
    201 H201       -7.4608  -25.3656  -47.1968 H         1 UNK         0.0600 
    202 H202       -5.5828  -27.0232  -47.0716 H         1 UNK         0.0600 
    203 H203       -4.6593  -26.0563  -48.2204 H         1 UNK         0.0600 
    204 H204       -6.1725  -26.8014  -48.7089 H         1 UNK         0.0600 
    205 H205       -6.3918  -22.4664  -47.2775 H         1 UNK         0.3000 
    206 H206       -6.5631  -20.6660  -48.5666 H         1 UNK         0.0600 
    207 H207       -8.9318  -21.3936  -48.5378 H         1 UNK         0.0600 
    208 H208       -8.5594  -20.5996  -50.0599 H         1 UNK         0.0600 
    209 H209       -8.6887  -22.3522  -49.9970 H         1 UNK         0.0600 
    210 H210       -4.3040  -21.2395  -49.2624 H         1 UNK         0.3000 
    211 H211       -2.6496  -21.2904  -50.7060 H         1 UNK         0.0600 
    212 H212       -4.7244  -20.1676  -52.6569 H         1 UNK         0.0600 
    213 H213       -3.0065  -20.2193  -52.9883 H         1 UNK         0.0600 
    214 H214       -3.6062  -19.2659  -51.6472 H         1 UNK         0.0600 
    215 H215       -4.0087  -23.6797  -50.2268 H         1 UNK         0.3000 
    216 H216       -4.1987  -25.8218  -50.7662 H         1 UNK         0.0600 
    217 H217       -2.5314  -26.8402  -52.3116 H         1 UNK         0.0600 
    218 H218       -1.7639  -25.7026  -51.2154 H         1 UNK         0.0600 
    219 H219       -2.0612  -25.2478  -52.8900 H         1 UNK         0.0600 
    220 H220       -6.2975  -24.5760  -51.4787 H         1 UNK         0.3000 
    221 H221       -8.0892  -24.3348  -52.7253 H         1 UNK         0.0600 
    222 H222       -7.1496  -26.7924  -54.3002 H         1 UNK         0.0600 
    223 H223       -8.0531  -26.8347  -52.7866 H         1 UNK         0.0600 
    224 H224       -8.7883  -26.1601  -54.2318 H         1 UNK         0.0600 
    225 H225       -6.2139  -22.5726  -53.2882 H         1 UNK         0.3000 
    226 H226       -5.4213  -21.0263  -54.6449 H         1 UNK         0.0600 
    227 H227       -7.8605  -20.6928  -55.0822 H         1 UNK         0.0600 
    228 H228       -6.8741  -20.2057  -56.4492 H         1 UNK         0.0600 
    229 H229       -7.7472  -21.7310  -56.5034 H         1 UNK         0.0600 
    230 H230       -4.1834  -23.6102  -54.9544 H         1 UNK         0.3000 
    231 H231       -3.3594  -23.8156  -57.7724 H         1 UNK         0.0600 
    232 H232       -2.3494  -25.2506  -55.2643 H         1 UNK         0.0600 
    233 H233       -1.8845  -25.6204  -56.9200 H         1 UNK         0.0600 
    234 H234       -3.5440  -25.8751  -56.3998 H         1 UNK         0.0600 
    235 H235       -2.1229  -22.5552  -54.6576 H         1 UNK         0.3000 
    236 H236        0.4268  -21.6575  -55.7774 H         1 UNK         0.0600 
    237 H237        0.2562  -22.2904  -53.3805 H         1 UNK         0.0600 
    238 H238        0.7166  -20.6034  -53.5488 H         1 UNK         0.0600 
    239 H239       -0.9288  -21.0215  -53.1013 H         1 UNK         0.0600 
    240 H240        0.9560  -19.5651  -56.3385 H         1 UNK         0.3000 
    241 H241        0.7848  -17.5774  -57.2370 H         1 UNK         0.0600 
    242 H242       -1.7037  -19.1910  -59.7531 H         1 UNK         0.3800 
    243 H243       -0.9014  -20.0189  -58.4453 H         1 UNK         0.3800 
    244 H244       -0.8504  -15.8623  -56.5187 H         1 UNK         0.0800 
    245 H245       -1.8022  -17.0583  -55.6934 H         1 UNK         0.0800 
    246 H246       -1.0182  -18.2037  -53.3430 H         1 UNK         0.0800 
    247 H247       -1.7978  -16.6423  -53.2598 H         1 UNK         0.0800 
@<TRIPOS>BOND
     1    1    2 1    
     2    1  127 1    
     3    1  128 1    
     4    1  129 1    
     5    2    3 2    
     6    2    4 am   BACKBONE|DICT|INTERRES
     7    4    5 1    
     8    4  130 1    
     9    5    6 1    
    10    5   65 1    
    11    5  131 1    
    12    6    7 1    
    13    6  132 1    
    14    6  133 1    
    15    7    8 1    
    16    8    9 1    
    17    8  134 1    
    18    8  135 1    
    19    9   10 ar   
    20    9   14 ar   
    21   10   11 ar   
    22   10  136 1    
    23   11   12 ar   
    24   11  126 1    
    25   12   13 ar   
    26   12  137 1    
    27   13   14 ar   
    28   13   15 1    
    29   14  138 1    
    30   15   16 1    
    31   15  139 1    
    32   15  140 1    
    33   16   17 1    
    34   17   18 1    
    35   17  141 1    
    36   17  142 1    
    37   18   19 1    
    38   18   67 1    
    39   18  143 1    
    40   19   20 am   BACKBONE|DICT|INTERRES
    41   19  144 1    
    42   20   21 2    
    43   20   22 1    
    44   22   23 1    
    45   22   24 1    
    46   22  145 1    
    47   23  146 1    
    48   23  147 1    
    49   23  148 1    
    50   24   25 am   BACKBONE|DICT|INTERRES
    51   24  149 1    
    52   25   26 2    
    53   25   27 1    
    54   27   28 1    
    55   27   29 1    
    56   27  150 1    
    57   28  151 1    
    58   28  152 1    
    59   28  153 1    
    60   29   30 am   BACKBONE|DICT|INTERRES
    61   29  154 1    
    62   30   31 2    
    63   30   32 1    
    64   32   33 1    
    65   32   34 1    
    66   32  155 1    
    67   33  156 1    
    68   33  157 1    
    69   33  158 1    
    70   34   35 am   BACKBONE|DICT|INTERRES
    71   34  159 1    
    72   35   36 2    
    73   35   37 1    
    74   37   38 1    
    75   37   39 1    
    76   37  160 1    
    77   38  161 1    
    78   38  162 1    
    79   38  163 1    
    80   39   40 am   BACKBONE|DICT|INTERRES
    81   39  164 1    
    82   40   41 2    
    83   40   42 1    
    84   42   43 1    
    85   42   44 1    
    86   42  165 1    
    87   43  166 1    
    88   43  167 1    
    89   43  168 1    
    90   44   45 am   BACKBONE|DICT|INTERRES
    91   44  169 1    
    92   45   46 2    
    93   45   47 1    
    94   47   48 1    
    95   47   49 1    
    96   47  170 1    
    97   48  171 1    
    98   48  172 1    
    99   48  173 1    
   100   49   50 am   BACKBONE|DICT|INTERRES
   101   49  174 1    
   102   50   51 2    
   103   50   52 1    
   104   52   53 1    
   105   52   54 1    
   106   52  175 1    
   107   53  176 1    
   108   53  177 1    
   109   53  178 1    
   110   54   55 am   BACKBONE|DICT|INTERRES
   111   54  179 1    
   112   55   56 2    
   113   55   57 1    
   114   57   58 1    
   115   57   59 1    
   116   57  180 1    
   117   58  181 1    
   118   58  182 1    
   119   58  183 1    
   120   59   60 am   BACKBONE|DICT|INTERRES
   121   59  184 1    
   122   60   61 2    
   123   60   62 1    
   124   62   63 1    
   125   62   64 1    
   126   62  185 1    
   127   63  186 1    
   128   63  187 1    
   129   63  188 1    
   130   64   65 am   BACKBONE|DICT|INTERRES
   131   64  189 1    
   132   65   66 2    
   133   67   68 2    
   134   67   69 am   BACKBONE|DICT|INTERRES
   135   69   70 1    
   136   69  190 1    
   137   70   71 1    
   138   70   72 1    
   139   70  191 1    
   140   71  192 1    
   141   71  193 1    
   142   71  194 1    
   143   72   73 2    
   144   72   74 am   BACKBONE|DICT|INTERRES
   145   74   75 1    
   146   74  195 1    
   147   75   76 1    
   148   75   77 1    
   149   75  196 1    
   150   76  197 1    
   151   76  198 1    
   152   76  199 1    
   153   77   78 2    
   154   77   79 am   BACKBONE|DICT|INTERRES
   155   79   80 1    
   156   79  200 1    
   157   80   81 1    
   158   80   82 1    
   159   80  201 1    
   160   81  202 1    
   161   81  203 1    
   162   81  204 1    
   163   82   83 2    
   164   82   84 am   BACKBONE|DICT|INTERRES
   165   84   85 1    
   166   84  205 1    
   167   85   86 1    
   168   85   87 1    
   169   85  206 1    
   170   86  207 1    
   171   86  208 1    
   172   86  209 1    
   173   87   88 2    
   174   87   89 am   BACKBONE|DICT|INTERRES
   175   89   90 1    
   176   89  210 1    
   177   90   91 1    
   178   90   92 1    
   179   90  211 1    
   180   91  212 1    
   181   91  213 1    
   182   91  214 1    
   183   92   93 2    
   184   92   94 am   BACKBONE|DICT|INTERRES
   185   94   95 1    
   186   94  215 1    
   187   95   96 1    
   188   95   97 1    
   189   95  216 1    
   190   96  217 1    
   191   96  218 1    
   192   96  219 1    
   193   97   98 2    
   194   97   99 am   BACKBONE|DICT|INTERRES
   195   99  100 1    
   196   99  220 1    
   197  100  101 1    
   198  100  102 1    
   199  100  221 1    
   200  101  222 1    
   201  101  223 1    
   202  101  224 1    
   203  102  103 2    
   204  102  104 am   BACKBONE|DICT|INTERRES
   205  104  105 1    
   206  104  225 1    
   207  105  106 1    
   208  105  107 1    
   209  105  226 1    
   210  106  227 1    
   211  106  228 1    
   212  106  229 1    
   213  107  108 2    
   214  107  109 am   BACKBONE|DICT|INTERRES
   215  109  110 1    
   216  109  230 1    
   217  110  111 1    
   218  110  112 1    
   219  110  231 1    
   220  111  232 1    
   221  111  233 1    
   222  111  234 1    
   223  112  113 2    
   224  112  114 am   BACKBONE|DICT|INTERRES
   225  114  115 1    
   226  114  235 1    
   227  115  116 1    
   228  115  117 1    
   229  115  236 1    
   230  116  237 1    
   231  116  238 1    
   232  116  239 1    
   233  117  118 2    
   234  117  119 am   BACKBONE|DICT|INTERRES
   235  119  120 1    
   236  119  240 1    
   237  120  121 1    
   238  120  124 1    
   239  120  241 1    
   240  121  122 am   BACKBONE|DICT|INTERRES
   241  121  123 2    
   242  122  242 1    
   243  122  243 1    
   244  124  125 1    
   245  124  244 1    
   246  124  245 1    
   247  125  126 1    
   248  126  246 1    
   249  126  247 1    
@<TRIPOS>SUBSTRUCTURE
     1 UNK         1 GROUP             0       ****    0 ROOT    
