@<TRIPOS>MOLECULE
3R540
247   249    1
SMALL
USER_CHARGES


@<TRIPOS>ATOM
      1 CA         -3.9391  -13.8777  -51.3589 C.3       0 UNK        -0.1800 
      2 C          -2.5002  -13.7335  -50.8845 C.2       0 UNK         0.5000 
      3 O          -1.8269  -12.7763  -51.2661 O.2       0 UNK        -0.5000 
      4 N          -2.0347  -14.6732  -50.0521 N.am      1 UNK        -0.5000 
      5 CA         -0.7029  -14.6851  -49.4375 C.3       1 UNK         0.1400 
      6 C6         -0.4040  -16.0066  -48.6902 C.3       23 UNK        -0.0398 
      7 S7         -0.1935  -17.4156  -49.8178 S.3       23 UNK        -0.2404 
      8 C8          1.4042  -18.0886  -49.2872 C.3       23 UNK        -0.0205 
      9 C9          1.6438  -19.4389  -49.9381 C.ar      23 UNK        -0.0193 
     10 C10         2.4520  -19.5486  -51.0730 C.ar      23 UNK        -0.1150 
     11 C11         2.6571  -20.7920  -51.6784 C.ar      23 UNK        -0.0193 
     12 C12         2.0620  -21.9316  -51.1280 C.ar      23 UNK        -0.1150 
     13 C13         1.2531  -21.8329  -49.9926 C.ar      23 UNK        -0.0193 
     14 C14         1.0387  -20.5817  -49.4093 C.ar      23 UNK        -0.1150 
     15 C15         0.6018  -23.0761  -49.4080 C.3       23 UNK        -0.0205 
     16 S16         1.7300  -23.9792  -48.2985 S.3       23 UNK        -0.2404 
     17 C17         1.7358  -22.9322  -46.7999 C.3       23 UNK        -0.0398 
     18 CA          0.9670  -23.5674  -45.6121 C.3       11 UNK         0.1400 
     19 N           1.5447  -23.1433  -44.3357 N.am      11 UNK        -0.5000 
     20 C           2.0618  -23.9477  -43.3993 C.2       10 UNK         0.5000 
     21 O           2.0462  -25.1778  -43.4704 O.2       10 UNK        -0.5000 
     22 CA          2.7022  -23.2478  -42.1796 C.3       10 UNK         0.1400 
     23 CB          3.6651  -24.1593  -41.3910 C.3       10 UNK        -0.1800 
     24 N           3.3475  -21.9747  -42.5219 N.am      10 UNK        -0.5000 
     25 C           4.3833  -21.7708  -43.3515 C.2       9 UNK         0.5000 
     26 O           4.9998  -22.6779  -43.9115 O.2       9 UNK        -0.5000 
     27 CA          4.7923  -20.3077  -43.6326 C.3       9 UNK         0.1400 
     28 CB          4.4948  -19.9434  -45.0968 C.3       9 UNK        -0.1800 
     29 N           4.1272  -19.3328  -42.7647 N.am      9 UNK        -0.5000 
     30 C           4.4426  -19.0943  -41.4843 C.2       8 UNK         0.5000 
     31 O           5.3924  -19.6212  -40.9044 O.2       8 UNK        -0.5000 
     32 CA          3.5069  -18.1443  -40.7088 C.3       8 UNK         0.1400 
     33 CB          3.9333  -16.6806  -40.8953 C.3       8 UNK        -0.1800 
     34 N           2.0993  -18.2985  -41.0891 N.am      8 UNK        -0.5000 
     35 C           1.3799  -19.4140  -40.8954 C.2       7 UNK         0.5000 
     36 O           1.8113  -20.4146  -40.3236 O.2       7 UNK        -0.5000 
     37 CA         -0.0329  -19.4489  -41.4997 C.3       7 UNK         0.1400 
     38 CB         -1.0464  -18.7544  -40.5794 C.3       7 UNK        -0.1800 
     39 N          -0.0782  -18.8537  -42.8350 N.am      7 UNK        -0.5000 
     40 C           0.5129  -19.3736  -43.9193 C.2       6 UNK         0.5000 
     41 O           1.1099  -20.4481  -43.9145 O.2       6 UNK        -0.5000 
     42 CA          0.4527  -18.5541  -45.2198 C.3       6 UNK         0.1400 
     43 CB         -0.8426  -18.8478  -45.9869 C.3       6 UNK        -0.1800 
     44 N           0.5912  -17.1169  -44.9784 N.am      6 UNK        -0.5000 
     45 C           1.6996  -16.5528  -44.4745 C.2       5 UNK         0.5000 
     46 O           2.7364  -17.1747  -44.2453 O.2       5 UNK        -0.5000 
     47 CA          1.6170  -15.0635  -44.1063 C.3       5 UNK         0.1400 
     48 CB          1.9134  -14.1783  -45.3255 C.3       5 UNK        -0.1800 
     49 N           0.3082  -14.7245  -43.5481 N.am      5 UNK        -0.5000 
     50 C          -0.0883  -15.0504  -42.3101 C.2       4 UNK         0.5000 
     51 O           0.6312  -15.6338  -41.4986 O.2       4 UNK        -0.5000 
     52 CA         -1.5407  -14.7007  -41.9275 C.3       4 UNK         0.1400 
     53 CB         -1.6332  -13.2499  -41.4323 C.3       4 UNK        -0.1800 
     54 N          -2.4894  -14.8974  -43.0266 N.am      4 UNK        -0.5000 
     55 C          -2.7933  -16.0900  -43.5571 C.2       3 UNK         0.5000 
     56 O          -2.3370  -17.1524  -43.1409 O.2       3 UNK        -0.5000 
     57 CA         -3.7176  -16.1067  -44.7914 C.3       3 UNK         0.1400 
     58 CB         -5.1840  -16.2362  -44.3541 C.3       3 UNK        -0.1800 
     59 N          -3.5830  -14.9588  -45.6971 N.am      3 UNK        -0.5000 
     60 C          -2.4387  -14.4965  -46.2198 C.2       2 UNK         0.5000 
     61 O          -1.3300  -14.9446  -45.9214 O.2       2 UNK        -0.5000 
     62 CA         -2.5609  -13.3370  -47.2275 C.3       2 UNK         0.1400 
     63 CB         -3.2568  -12.1274  -46.5787 C.3       2 UNK        -0.1800 
     64 N          -1.2564  -12.8800  -47.7199 N.am      2 UNK        -0.5000 
     65 C          -0.3741  -13.4423  -48.5664 C.2       1 UNK         0.5000 
     66 O           0.7425  -12.9424  -48.6974 O.2       1 UNK        -0.5000 
     67 C          -0.5459  -23.2652  -45.6827 C.2       11 UNK         0.5000 
     68 O          -1.2033  -23.7545  -46.5990 O.2       11 UNK        -0.5000 
     69 N          -1.0997  -22.5106  -44.7173 N.am      12 UNK        -0.5000 
     70 CA         -2.5137  -22.1001  -44.6671 C.3       12 UNK         0.1400 
     71 CB         -2.7569  -21.2140  -43.4357 C.3       12 UNK        -0.1800 
     72 C          -3.5304  -23.2591  -44.6895 C.2       12 UNK         0.5000 
     73 O          -4.6489  -23.0749  -45.1701 O.2       12 UNK        -0.5000 
     74 N          -3.1161  -24.4337  -44.1956 N.am      13 UNK        -0.5000 
     75 CA         -3.8769  -25.6817  -44.2589 C.3       13 UNK         0.1400 
     76 CB         -3.2102  -26.7162  -43.3392 C.3       13 UNK        -0.1800 
     77 C          -4.0135  -26.2415  -45.6905 C.2       13 UNK         0.5000 
     78 O          -4.9760  -26.9606  -45.9619 O.2       13 UNK        -0.5000 
     79 N          -3.0618  -25.9085  -46.5736 N.am      14 UNK        -0.5000 
     80 CA         -3.0819  -26.2606  -47.9895 C.3       14 UNK         0.1400 
     81 CB         -1.6495  -26.5165  -48.4881 C.3       14 UNK        -0.1800 
     82 C          -3.7671  -25.1564  -48.8086 C.2       14 UNK         0.5000 
     83 O          -4.6826  -25.4638  -49.5736 O.2       14 UNK        -0.5000 
     84 N          -3.3380  -23.8981  -48.6297 N.am      15 UNK        -0.5000 
     85 CA         -3.8754  -22.7415  -49.3432 C.3       15 UNK         0.1400 
     86 CB         -3.3919  -22.7473  -50.8080 C.3       15 UNK        -0.1800 
     87 C          -3.4538  -21.4275  -48.6717 C.2       15 UNK         0.5000 
     88 O          -2.3270  -21.3160  -48.1905 O.2       15 UNK        -0.5000 
     89 N          -4.3462  -20.4313  -48.7318 N.am      16 UNK        -0.5000 
     90 CA         -4.0628  -19.0255  -48.4147 C.3       16 UNK         0.1400 
     91 CB         -5.2096  -18.4691  -47.5553 C.3       16 UNK        -0.1800 
     92 C          -3.8729  -18.1757  -49.6914 C.2       16 UNK         0.5000 
     93 O          -3.6816  -16.9636  -49.5874 O.2       16 UNK        -0.5000 
     94 N          -3.9511  -18.8261  -50.8638 N.am      17 UNK        -0.5000 
     95 CA         -3.7921  -18.2962  -52.2231 C.3       17 UNK         0.1400 
     96 CB         -2.3620  -17.7813  -52.4596 C.3       17 UNK        -0.1800 
     97 C          -4.8611  -17.2699  -52.6498 C.2       17 UNK         0.5000 
     98 O          -4.6093  -16.4522  -53.5359 O.2       17 UNK        -0.5000 
     99 N          -6.0476  -17.3361  -52.0314 N.am      18 UNK        -0.5000 
    100 CA        -7.1792  -16.4570  -52.3318 C.3       18 UNK         0.1400 
    101 CB        -8.2285  -16.5909  -51.2179 C.3       18 UNK        -0.1800 
    102 C         -7.8084  -16.7328  -53.7122 C.2       18 UNK         0.5000 
    103 O         -8.2760  -15.7969  -54.3620 O.2       18 UNK        -0.5000 
    104 N         -7.8106  -18.0063  -54.1315 N.am      19 UNK        -0.5000 
    105 CA        -8.3482  -18.4496  -55.4190 C.3       19 UNK         0.1400 
    106 CB        -8.7264  -19.9362  -55.3243 C.3       19 UNK        -0.1800 
    107 C         -7.3643  -18.2153  -56.5795 C.2       19 UNK         0.5000 
    108 O         -7.7846  -17.7927  -57.6574 O.2       19 UNK        -0.5000 
    109 N         -6.0789  -18.4943  -56.3377 N.am      20 UNK        -0.5000 
    110 CA        -4.9710  -18.3851  -57.2818 C.3       20 UNK         0.1400 
    111 CB        -5.0646  -19.4889  -58.3535 C.3       20 UNK        -0.1800 
    112 C         -3.6584  -18.5104  -56.4963 C.2       20 UNK         0.5000 
    113 O         -3.6662  -19.0569  -55.3891 O.2       20 UNK        -0.5000 
    114 N         -2.5589  -18.0221  -57.0871 N.am      21 UNK        -0.5000 
    115 CA        -1.2063  -18.0222  -56.5211 C.3       21 UNK         0.1400 
    116 CB        -0.2265  -17.4419  -57.5532 C.3       21 UNK        -0.1800 
    117 C         -0.7500  -19.4202  -56.0581 C.2       21 UNK         0.5000 
    118 O         -0.7212  -20.3500  -56.8673 O.2       21 UNK        -0.5000 
    119 N         -0.4370  -19.5308  -54.7614 N.am      22 UNK        -0.5000 
    120 CA        -0.0835  -20.7706  -54.0454 C.3       22 UNK         0.1400 
    121 C         -1.2409  -21.8111  -53.9227 C.2       22 UNK         0.5000 
    122 N         -2.4907  -21.4668  -54.2147 N.am      22 UNK        -0.7600 
    123 O         -1.0107  -22.9496  -53.5250 O.2       22 UNK        -0.5000 
    124 C124        1.2444  -21.4105  -54.5455 C.3       23 UNK        -0.0398 
    125 S125        2.6662  -20.2701  -54.4104 S.3       23 UNK        -0.2404 
    126 C126        3.5186  -20.9028  -52.9283 C.3       23 UNK        -0.0205 
    127 H127       -4.5116  -12.9880  -51.0974 H         1 UNK         0.0600 
    128 H128       -4.4317  -14.7397  -50.9094 H         1 UNK         0.0600 
    129 H129       -3.9665  -13.9956  -52.4420 H         1 UNK         0.0600 
    130 H130       -2.6289  -15.4697  -49.8263 H         1 UNK         0.3000 
    131 H131       -0.0005  -14.6355  -50.2727 H         1 UNK         0.0600 
    132 H132        0.4833  -15.9157  -48.0609 H         1 UNK         0.0800 
    133 H133       -1.2295  -16.2653  -48.0314 H         1 UNK         0.0800 
    134 H134        1.4187  -18.1983  -48.2025 H         1 UNK         0.0800 
    135 H135        2.1998  -17.3871  -49.5429 H         1 UNK         0.0800 
    136 H136        2.9096  -18.6654  -51.4963 H         1 UNK         0.1150 
    137 H137        2.2214  -22.8980  -51.5854 H         1 UNK         0.1150 
    138 H138        0.3920  -20.4928  -48.5473 H         1 UNK         0.1150 
    139 H139       -0.3119  -22.8151  -48.8757 H         1 UNK         0.0800 
    140 H140        0.2960  -23.7409  -50.2172 H         1 UNK         0.0800 
    141 H141        1.3746  -21.9269  -47.0150 H         1 UNK         0.0800 
    142 H142        2.7864  -22.8061  -46.5328 H         1 UNK         0.0800 
    143 H143        1.0555  -24.6526  -45.6942 H         1 UNK         0.0600 
    144 H144        1.5764  -22.1368  -44.1757 H         1 UNK         0.3000 
    145 H145        1.8756  -22.9948  -41.5145 H         1 UNK         0.0600 
    146 H146        4.0908  -23.6346  -40.5356 H         1 UNK         0.0600 
    147 H147        3.1451  -25.0370  -41.0056 H         1 UNK         0.0600 
    148 H148        4.4885  -24.5144  -42.0112 H         1 UNK         0.0600 
    149 H149        2.9113  -21.1562  -42.1174 H         1 UNK         0.3000 
    150 H150        5.8702  -20.2338  -43.4753 H         1 UNK         0.0600 
    151 H151        5.0256  -20.6052  -45.7823 H         1 UNK         0.0600 
    152 H152        4.8086  -18.9240  -45.3222 H         1 UNK         0.0600 
    153 H153        3.4317  -20.0238  -45.3232 H         1 UNK         0.0600 
    154 H154        3.3774  -18.7936  -43.1852 H         1 UNK         0.3000 
    155 H155        3.5927  -18.3890  -39.6481 H         1 UNK         0.0600 
    156 H156        4.9624  -16.5300  -40.5669 H         1 UNK         0.0600 
    157 H157        3.3035  -16.0086  -40.3119 H         1 UNK         0.0600 
    158 H158        3.8745  -16.3720  -41.9388 H         1 UNK         0.0600 
    159 H159        1.6543  -17.5007  -41.5286 H         1 UNK         0.3000 
    160 H160       -0.3255  -20.4970  -41.5892 H         1 UNK         0.0600 
    161 H161       -0.8352  -17.6904  -40.4746 H         1 UNK         0.0600 
    162 H162       -1.0320  -19.1927  -39.5808 H         1 UNK         0.0600 
    163 H163       -2.0610  -18.8580  -40.9645 H         1 UNK         0.0600 
    164 H164       -0.6452  -18.0171  -42.9386 H         1 UNK         0.3000 
    165 H165        1.2906  -18.8693  -45.8442 H         1 UNK         0.0600 
    166 H166       -0.8811  -18.3001  -46.9259 H         1 UNK         0.0600 
    167 H167       -0.9117  -19.9074  -46.2347 H         1 UNK         0.0600 
    168 H168       -1.7271  -18.5895  -45.4068 H         1 UNK         0.0600 
    169 H169       -0.2132  -16.5263  -45.1571 H         1 UNK         0.3000 
    170 H170        2.3791  -14.8604  -43.3511 H         1 UNK         0.0600 
    171 H171        1.8623  -13.1204  -45.0681 H         1 UNK         0.0600 
    172 H172        2.9151  -14.3719  -45.7108 H         1 UNK         0.0600 
    173 H173        1.2126  -14.3588  -46.1394 H         1 UNK         0.0600 
    174 H174       -0.3706  -14.3465  -44.1978 H         1 UNK         0.3000 
    175 H175       -1.8336  -15.3594  -41.1071 H         1 UNK         0.0600 
    176 H176       -0.9500  -13.0778  -40.5994 H         1 UNK         0.0600 
    177 H177       -1.3786  -12.5381  -42.2186 H         1 UNK         0.0600 
    178 H178       -2.6382  -13.0168  -41.0802 H         1 UNK         0.0600 
    179 H179       -2.9012  -14.0702  -43.4319 H         1 UNK         0.3000 
    180 H180       -3.4605  -16.9949  -45.3701 H         1 UNK         0.0600 
    181 H181       -5.5150  -15.3598  -43.7954 H         1 UNK         0.0600 
    182 H182       -5.3250  -17.1074  -43.7126 H         1 UNK         0.0600 
    183 H183       -5.8466  -16.3570  -45.2110 H         1 UNK         0.0600 
    184 H184       -4.4493  -14.5250  -45.9810 H         1 UNK         0.3000 
    185 H185       -3.1876  -13.6715  -48.0510 H         1 UNK         0.0600 
    186 H186       -4.2747  -12.3652  -46.2682 H         1 UNK         0.0600 
    187 H187       -2.7177  -11.7760  -45.6977 H         1 UNK         0.0600 
    188 H188       -3.3285  -11.2945  -47.2789 H         1 UNK         0.0600 
    189 H189       -0.9203  -12.0622  -47.2357 H         1 UNK         0.3000 
    190 H190       -0.4945  -22.1409  -43.9985 H         1 UNK         0.3000 
    191 H191       -2.7103  -21.4976  -45.5550 H         1 UNK         0.0600 
    192 H192       -2.4082  -21.6892  -42.5185 H         1 UNK         0.0600 
    193 H193       -3.8183  -20.9961  -43.3085 H         1 UNK         0.0600 
    194 H194       -2.2571  -20.2538  -43.5368 H         1 UNK         0.0600 
    195 H195       -2.1832  -24.4889  -43.8149 H         1 UNK         0.3000 
    196 H196       -4.8836  -25.4869  -43.8830 H         1 UNK         0.0600 
    197 H197       -3.7663  -27.6546  -43.3391 H         1 UNK         0.0600 
    198 H198       -3.1726  -26.3624  -42.3087 H         1 UNK         0.0600 
    199 H199       -2.1906  -26.9388  -43.6565 H         1 UNK         0.0600 
    200 H200       -2.3420  -25.2479  -46.2981 H         1 UNK         0.3000 
    201 H201       -3.6461  -27.1852  -48.1294 H         1 UNK         0.0600 
    202 H202       -1.1713  -27.3131  -47.9182 H         1 UNK         0.0600 
    203 H203       -1.0213  -25.6293  -48.4118 H         1 UNK         0.0600 
    204 H204       -1.6530  -26.8220  -49.5350 H         1 UNK         0.0600 
    205 H205       -2.5882  -23.7016  -47.9693 H         1 UNK         0.3000 
    206 H206       -4.9656  -22.8023  -49.3239 H         1 UNK         0.0600 
    207 H207       -3.7325  -23.6325  -51.3446 H         1 UNK         0.0600 
    208 H208       -3.7676  -21.8825  -51.3549 H         1 UNK         0.0600 
    209 H209       -2.3028  -22.7228  -50.8678 H         1 UNK         0.0600 
    210 H210       -5.2665  -20.6233  -49.1022 H         1 UNK         0.3000 
    211 H211       -3.1383  -18.9431  -47.8407 H         1 UNK         0.0600 
    212 H212       -5.0417  -17.4205  -47.3080 H         1 UNK         0.0600 
    213 H213       -5.2954  -19.0142  -46.6150 H         1 UNK         0.0600 
    214 H214       -6.1685  -18.5331  -48.0708 H         1 UNK         0.0600 
    215 H215       -4.1026  -19.8214  -50.8152 H         1 UNK         0.3000 
    216 H216       -3.9378  -19.1582  -52.8724 H         1 UNK         0.0600 
    217 H217       -2.2047  -17.5389  -53.5094 H         1 UNK         0.0600 
    218 H218       -1.6229  -18.5319  -52.1813 H         1 UNK         0.0600 
    219 H219       -2.1652  -16.8742  -51.8901 H         1 UNK         0.0600 
    220 H220       -6.1783  -18.0231  -51.3046 H         1 UNK         0.3000 
    221 H221       -6.8177  -15.4262  -52.3335 H         1 UNK         0.0600 
    222 H222       -8.6175  -17.6076  -51.1494 H         1 UNK         0.0600 
    223 H223       -7.8089  -16.3250  -50.2474 H         1 UNK         0.0600 
    224 H224       -9.0751  -15.9270  -51.3979 H         1 UNK         0.0600 
    225 H225       -7.4123  -18.7128  -53.5316 H         1 UNK         0.3000 
    226 H226       -9.2592  -17.8867  -55.6345 H         1 UNK         0.0600 
    227 H227       -9.4781  -20.1029  -54.5525 H         1 UNK         0.0600 
    228 H228       -9.1451  -20.2925  -56.2665 H         1 UNK         0.0600 
    229 H229       -7.8626  -20.5605  -55.0925 H         1 UNK         0.0600 
    230 H230       -5.7931  -18.8007  -55.4168 H         1 UNK         0.3000 
    231 H231       -5.0041  -17.4016  -57.7547 H         1 UNK         0.0600 
    232 H232       -5.9693  -19.3914  -58.9533 H         1 UNK         0.0600 
    233 H233       -5.0671  -20.4824  -57.9034 H         1 UNK         0.0600 
    234 H234       -4.2192  -19.4426  -59.0409 H         1 UNK         0.0600 
    235 H235       -2.6473  -17.6236  -58.0103 H         1 UNK         0.3000 
    236 H236       -1.2176  -17.3508  -55.6609 H         1 UNK         0.0600 
    237 H237        0.7892  -17.4184  -57.1560 H         1 UNK         0.0600 
    238 H238       -0.2071  -18.0360  -58.4679 H         1 UNK         0.0600 
    239 H239       -0.4932  -16.4195  -57.8216 H         1 UNK         0.0600 
    240 H240       -0.4905  -18.7074  -54.1814 H         1 UNK         0.3000 
    241 H241        0.0855  -20.4564  -53.0150 H         1 UNK         0.0600 
    242 H242       -3.2153  -22.1599  -54.1295 H         1 UNK         0.3800 
    243 H243       -2.7190  -20.5495  -54.5850 H         1 UNK         0.3800 
    244 H244        1.4740  -22.3185  -53.9867 H         1 UNK         0.0800 
    245 H245        1.1507  -21.7238  -55.5857 H         1 UNK         0.0800 
    246 H246        3.8232  -21.9365  -53.0995 H         1 UNK         0.0800 
    247 H247        4.4387  -20.3355  -52.7817 H         1 UNK         0.0800 
@<TRIPOS>BOND
     1    1    2 1    
     2    1  127 1    
     3    1  128 1    
     4    1  129 1    
     5    2    3 2    
     6    2    4 am   BACKBONE|DICT|INTERRES
     7    4    5 1    
     8    4  130 1    
     9    5    6 1    
    10    5   65 1    
    11    5  131 1    
    12    6    7 1    
    13    6  132 1    
    14    6  133 1    
    15    7    8 1    
    16    8    9 1    
    17    8  134 1    
    18    8  135 1    
    19    9   10 ar   
    20    9   14 ar   
    21   10   11 ar   
    22   10  136 1    
    23   11   12 ar   
    24   11  126 1    
    25   12   13 ar   
    26   12  137 1    
    27   13   14 ar   
    28   13   15 1    
    29   14  138 1    
    30   15   16 1    
    31   15  139 1    
    32   15  140 1    
    33   16   17 1    
    34   17   18 1    
    35   17  141 1    
    36   17  142 1    
    37   18   19 1    
    38   18   67 1    
    39   18  143 1    
    40   19   20 am   BACKBONE|DICT|INTERRES
    41   19  144 1    
    42   20   21 2    
    43   20   22 1    
    44   22   23 1    
    45   22   24 1    
    46   22  145 1    
    47   23  146 1    
    48   23  147 1    
    49   23  148 1    
    50   24   25 am   BACKBONE|DICT|INTERRES
    51   24  149 1    
    52   25   26 2    
    53   25   27 1    
    54   27   28 1    
    55   27   29 1    
    56   27  150 1    
    57   28  151 1    
    58   28  152 1    
    59   28  153 1    
    60   29   30 am   BACKBONE|DICT|INTERRES
    61   29  154 1    
    62   30   31 2    
    63   30   32 1    
    64   32   33 1    
    65   32   34 1    
    66   32  155 1    
    67   33  156 1    
    68   33  157 1    
    69   33  158 1    
    70   34   35 am   BACKBONE|DICT|INTERRES
    71   34  159 1    
    72   35   36 2    
    73   35   37 1    
    74   37   38 1    
    75   37   39 1    
    76   37  160 1    
    77   38  161 1    
    78   38  162 1    
    79   38  163 1    
    80   39   40 am   BACKBONE|DICT|INTERRES
    81   39  164 1    
    82   40   41 2    
    83   40   42 1    
    84   42   43 1    
    85   42   44 1    
    86   42  165 1    
    87   43  166 1    
    88   43  167 1    
    89   43  168 1    
    90   44   45 am   BACKBONE|DICT|INTERRES
    91   44  169 1    
    92   45   46 2    
    93   45   47 1    
    94   47   48 1    
    95   47   49 1    
    96   47  170 1    
    97   48  171 1    
    98   48  172 1    
    99   48  173 1    
   100   49   50 am   BACKBONE|DICT|INTERRES
   101   49  174 1    
   102   50   51 2    
   103   50   52 1    
   104   52   53 1    
   105   52   54 1    
   106   52  175 1    
   107   53  176 1    
   108   53  177 1    
   109   53  178 1    
   110   54   55 am   BACKBONE|DICT|INTERRES
   111   54  179 1    
   112   55   56 2    
   113   55   57 1    
   114   57   58 1    
   115   57   59 1    
   116   57  180 1    
   117   58  181 1    
   118   58  182 1    
   119   58  183 1    
   120   59   60 am   BACKBONE|DICT|INTERRES
   121   59  184 1    
   122   60   61 2    
   123   60   62 1    
   124   62   63 1    
   125   62   64 1    
   126   62  185 1    
   127   63  186 1    
   128   63  187 1    
   129   63  188 1    
   130   64   65 am   BACKBONE|DICT|INTERRES
   131   64  189 1    
   132   65   66 2    
   133   67   68 2    
   134   67   69 am   BACKBONE|DICT|INTERRES
   135   69   70 1    
   136   69  190 1    
   137   70   71 1    
   138   70   72 1    
   139   70  191 1    
   140   71  192 1    
   141   71  193 1    
   142   71  194 1    
   143   72   73 2    
   144   72   74 am   BACKBONE|DICT|INTERRES
   145   74   75 1    
   146   74  195 1    
   147   75   76 1    
   148   75   77 1    
   149   75  196 1    
   150   76  197 1    
   151   76  198 1    
   152   76  199 1    
   153   77   78 2    
   154   77   79 am   BACKBONE|DICT|INTERRES
   155   79   80 1    
   156   79  200 1    
   157   80   81 1    
   158   80   82 1    
   159   80  201 1    
   160   81  202 1    
   161   81  203 1    
   162   81  204 1    
   163   82   83 2    
   164   82   84 am   BACKBONE|DICT|INTERRES
   165   84   85 1    
   166   84  205 1    
   167   85   86 1    
   168   85   87 1    
   169   85  206 1    
   170   86  207 1    
   171   86  208 1    
   172   86  209 1    
   173   87   88 2    
   174   87   89 am   BACKBONE|DICT|INTERRES
   175   89   90 1    
   176   89  210 1    
   177   90   91 1    
   178   90   92 1    
   179   90  211 1    
   180   91  212 1    
   181   91  213 1    
   182   91  214 1    
   183   92   93 2    
   184   92   94 am   BACKBONE|DICT|INTERRES
   185   94   95 1    
   186   94  215 1    
   187   95   96 1    
   188   95   97 1    
   189   95  216 1    
   190   96  217 1    
   191   96  218 1    
   192   96  219 1    
   193   97   98 2    
   194   97   99 am   BACKBONE|DICT|INTERRES
   195   99  100 1    
   196   99  220 1    
   197  100  101 1    
   198  100  102 1    
   199  100  221 1    
   200  101  222 1    
   201  101  223 1    
   202  101  224 1    
   203  102  103 2    
   204  102  104 am   BACKBONE|DICT|INTERRES
   205  104  105 1    
   206  104  225 1    
   207  105  106 1    
   208  105  107 1    
   209  105  226 1    
   210  106  227 1    
   211  106  228 1    
   212  106  229 1    
   213  107  108 2    
   214  107  109 am   BACKBONE|DICT|INTERRES
   215  109  110 1    
   216  109  230 1    
   217  110  111 1    
   218  110  112 1    
   219  110  231 1    
   220  111  232 1    
   221  111  233 1    
   222  111  234 1    
   223  112  113 2    
   224  112  114 am   BACKBONE|DICT|INTERRES
   225  114  115 1    
   226  114  235 1    
   227  115  116 1    
   228  115  117 1    
   229  115  236 1    
   230  116  237 1    
   231  116  238 1    
   232  116  239 1    
   233  117  118 2    
   234  117  119 am   BACKBONE|DICT|INTERRES
   235  119  120 1    
   236  119  240 1    
   237  120  121 1    
   238  120  124 1    
   239  120  241 1    
   240  121  122 am   BACKBONE|DICT|INTERRES
   241  121  123 2    
   242  122  242 1    
   243  122  243 1    
   244  124  125 1    
   245  124  244 1    
   246  124  245 1    
   247  125  126 1    
   248  126  246 1    
   249  126  247 1    
@<TRIPOS>SUBSTRUCTURE
     1 UNK         1 GROUP             0       ****    0 ROOT    
