@<TRIPOS>MOLECULE
3R540
247   249    1
SMALL
USER_CHARGES


@<TRIPOS>ATOM
      1 CA          5.5258  -11.9687  -47.7625 C.3       0 UNK        -0.1800 
      2 C           4.1809  -12.3968  -47.1959 C.2       0 UNK         0.5000 
      3 O           3.7500  -11.8630  -46.1737 O.2       0 UNK        -0.5000 
      4 N           3.5038  -13.3398  -47.8655 N.am      1 UNK        -0.5000 
      5 CA          2.2101  -13.9211  -47.4727 C.3       1 UNK         0.1400 
      6 C6          1.8233  -15.1228  -48.3748 C.3       23 UNK        -0.0398 
      7 S7          1.6660  -14.7141  -50.1487 S.3       23 UNK        -0.2404 
      8 C8          2.3613  -16.2048  -50.9405 C.3       23 UNK        -0.0205 
      9 C9          1.5482  -17.4800  -50.7189 C.ar      23 UNK        -0.0193 
     10 C10         0.1491  -17.4779  -50.7911 C.ar      23 UNK        -0.1150 
     11 C11        -0.5751  -18.6649  -50.6416 C.ar      23 UNK        -0.0193 
     12 C12         0.1070  -19.8618  -50.4114 C.ar      23 UNK        -0.1150 
     13 C13         1.5022  -19.8844  -50.3542 C.ar      23 UNK        -0.0193 
     14 C14         2.2154  -18.6911  -50.5046 C.ar      23 UNK        -0.1150 
     15 C15         2.2330  -21.2083  -50.1748 C.3       23 UNK        -0.0205 
     16 S16         3.1752  -21.3106  -48.6187 S.3       23 UNK        -0.2404 
     17 C17         1.9057  -20.9932  -47.3488 C.3       23 UNK        -0.0398 
     18 CA          1.2344  -22.2799  -46.8068 C.3       11 UNK         0.1400 
     19 N           0.8093  -22.1203  -45.4141 N.am      11 UNK        -0.5000 
     20 C           0.3124  -23.0892  -44.6335 C.2       10 UNK         0.5000 
     21 O           0.1842  -24.2597  -44.9908 O.2       10 UNK        -0.5000 
     22 CA         -0.1668  -22.6662  -43.2328 C.3       10 UNK         0.1400 
     23 CB          1.0128  -22.5352  -42.2578 C.3       10 UNK        -0.1800 
     24 N          -0.9223  -21.4134  -43.2639 N.am      10 UNK        -0.5000 
     25 C          -2.1215  -21.2743  -43.8470 C.2       9 UNK         0.5000 
     26 O          -2.7371  -22.2012  -44.3749 O.2       9 UNK        -0.5000 
     27 CA         -2.7084  -19.8511  -43.8889 C.3       9 UNK         0.1400 
     28 CB         -3.3540  -19.4859  -42.5441 C.3       9 UNK        -0.1800 
     29 N          -1.7151  -18.8365  -44.2429 N.am      9 UNK        -0.5000 
     30 C          -1.0433  -18.8010  -45.4026 C.2       8 UNK         0.5000 
     31 O          -1.2057  -19.6045  -46.3162 O.2       8 UNK        -0.5000 
     32 CA          0.0280  -17.7129  -45.5537 C.3       8 UNK         0.1400 
     33 CB         -0.6354  -16.3748  -45.8971 C.3       8 UNK        -0.1800 
     34 N           0.8573  -17.5635  -44.3580 N.am      8 UNK        -0.5000 
     35 C           1.5942  -18.5348  -43.7996 C.2       7 UNK         0.5000 
     36 O           1.6771  -19.6766  -44.2475 O.2       7 UNK        -0.5000 
     37 CA          2.3197  -18.1866  -42.4912 C.3       7 UNK         0.1400 
     38 CB          3.6460  -17.4662  -42.7752 C.3       7 UNK        -0.1800 
     39 N           1.4790  -17.3650  -41.6221 N.am      7 UNK        -0.5000 
     40 C           0.4087  -17.8267  -40.9594 C.2       6 UNK         0.5000 
     41 O           0.0619  -19.0088  -40.9572 O.2       6 UNK        -0.5000 
     42 CA         -0.4352  -16.7814  -40.2061 C.3       6 UNK         0.1400 
     43 CB          0.1687  -16.4887  -38.8245 C.3       6 UNK        -0.1800 
     44 N          -0.5728  -15.5282  -40.9522 N.am      6 UNK        -0.5000 
     45 C          -1.2568  -15.4058  -42.0986 C.2       5 UNK         0.5000 
     46 O          -1.8760  -16.3326  -42.6216 O.2       5 UNK        -0.5000 
     47 CA         -1.2122  -14.0307  -42.7963 C.3       5 UNK         0.1400 
     48 CB         -2.3520  -13.1338  -42.2925 C.3       5 UNK        -0.1800 
     49 N           0.0610  -13.3191  -42.6471 N.am      5 UNK        -0.5000 
     50 C           1.2541  -13.7718  -43.0522 C.2       4 UNK         0.5000 
     51 O           1.4235  -14.8841  -43.5528 O.2       4 UNK        -0.5000 
     52 CA          2.4460  -12.8144  -42.8691 C.3       4 UNK         0.1400 
     53 CB          3.7984  -13.4952  -43.1452 C.3       4 UNK        -0.1800 
     54 N           2.3229  -11.6510  -43.7434 N.am      4 UNK        -0.5000 
     55 C           1.5836  -10.5631  -43.4913 C.2       3 UNK         0.5000 
     56 O           0.8843  -10.4346  -42.4851 O.2       3 UNK        -0.5000 
     57 CA          1.6214   -9.4439  -44.5430 C.3       3 UNK         0.1400 
     58 CB          2.9607   -8.6914  -44.4876 C.3       3 UNK        -0.1800 
     59 N           1.4326   -9.9910  -45.8851 N.am      3 UNK        -0.5000 
     60 C           0.2976   -9.9085  -46.5929 C.2       2 UNK         0.5000 
     61 O          -0.7075   -9.3089  -46.2090 O.2       2 UNK        -0.5000 
     62 CA          0.2715  -10.6128  -47.9659 C.3       2 UNK         0.1400 
     63 CB          0.6063   -9.6173  -49.0870 C.3       2 UNK        -0.1800 
     64 N           1.1885  -11.7498  -48.0533 N.am      2 UNK        -0.5000 
     65 C           1.0600  -12.8901  -47.3603 C.2       1 UNK         0.5000 
     66 O           0.1006  -13.1265  -46.6273 O.2       1 UNK        -0.5000 
     67 C           0.0689  -22.7349  -47.7089 C.2       11 UNK         0.5000 
     68 O           0.2206  -23.6968  -48.4594 O.2       11 UNK        -0.5000 
     69 N          -1.0842  -22.0648  -47.5828 N.am      12 UNK        -0.5000 
     70 CA         -2.3344  -22.3687  -48.2763 C.3       12 UNK         0.1400 
     71 CB         -3.3825  -21.3129  -47.8942 C.3       12 UNK        -0.1800 
     72 C          -2.8560  -23.7830  -47.9734 C.2       12 UNK         0.5000 
     73 O          -3.2625  -24.4905  -48.8961 O.2       12 UNK        -0.5000 
     74 N          -2.8003  -24.1813  -46.6944 N.am      13 UNK        -0.5000 
     75 CA         -3.1559  -25.5214  -46.2309 C.3       13 UNK         0.1400 
     76 CB         -3.2027  -25.5436  -44.6958 C.3       13 UNK        -0.1800 
     77 C          -2.2048  -26.6051  -46.7706 C.2       13 UNK         0.5000 
     78 O          -2.6773  -27.6433  -47.2335 O.2       13 UNK        -0.5000 
     79 N          -0.8918  -26.3345  -46.7352 N.am      14 UNK        -0.5000 
     80 CA          0.1569  -27.2177  -47.2516 C.3       14 UNK         0.1400 
     81 CB          1.5332  -26.6865  -46.8225 C.3       14 UNK        -0.1800 
     82 C           0.0944  -27.3976  -48.7801 C.2       14 UNK         0.5000 
     83 O           0.2765  -28.5128  -49.2699 O.2       14 UNK        -0.5000 
     84 N          -0.1874  -26.3047  -49.5013 N.am      15 UNK        -0.5000 
     85 CA         -0.3798  -26.2814  -50.9522 C.3       15 UNK         0.1400 
     86 CB         -0.2935  -24.8250  -51.4390 C.3       15 UNK        -0.1800 
     87 C          -1.7128  -26.9086  -51.4060 C.2       15 UNK         0.5000 
     88 O          -1.8438  -27.2404  -52.5848 O.2       15 UNK        -0.5000 
     89 N          -2.6752  -27.0291  -50.4779 N.am      16 UNK        -0.5000 
     90 CA         -4.0755  -27.4127  -50.6866 C.3       16 UNK         0.1400 
     91 CB         -4.1894  -28.8826  -51.1406 C.3       16 UNK        -0.1800 
     92 C          -4.7992  -26.4197  -51.6211 C.2       16 UNK         0.5000 
     93 O          -5.5301  -26.8243  -52.5274 O.2       16 UNK        -0.5000 
     94 N          -4.5481  -25.1279  -51.3870 N.am      17 UNK        -0.5000 
     95 CA         -5.0102  -24.0043  -52.1870 C.3       17 UNK         0.1400 
     96 CB         -3.8989  -23.6004  -53.1715 C.3       17 UNK        -0.1800 
     97 C          -5.3827  -22.8815  -51.2136 C.2       17 UNK         0.5000 
     98 O          -4.5613  -22.0045  -50.9398 O.2       17 UNK        -0.5000 
     99 N          -6.5972  -22.9789  -50.6569 N.am      18 UNK        -0.5000 
    100 CA        -7.1674  -22.1218  -49.6128 C.3       18 UNK         0.1400 
    101 CB        -8.4215  -22.8161  -49.0507 C.3       18 UNK        -0.1800 
    102 C         -7.4474  -20.6724  -50.0741 C.2       18 UNK         0.5000 
    103 O         -8.6042  -20.2477  -50.1006 O.2       18 UNK        -0.5000 
    104 N         -6.3694  -19.9547  -50.4171 N.am      19 UNK        -0.5000 
    105 CA        -6.2878  -18.5937  -50.9576 C.3       19 UNK         0.1400 
    106 CB        -6.9985  -17.5717  -50.0484 C.3       19 UNK        -0.1800 
    107 C         -6.7739  -18.4938  -52.4170 C.2       19 UNK         0.5000 
    108 O         -7.5410  -19.3373  -52.8872 O.2       19 UNK        -0.5000 
    109 N         -6.2862  -17.4594  -53.1180 N.am      20 UNK        -0.5000 
    110 CA        -6.5204  -17.0997  -54.5262 C.3       20 UNK         0.1400 
    111 CB        -8.0078  -16.8036  -54.7979 C.3       20 UNK        -0.1800 
    112 C         -5.9535  -18.1152  -55.5386 C.2       20 UNK         0.5000 
    113 O         -5.1719  -17.7345  -56.4115 O.2       20 UNK        -0.5000 
    114 N         -6.3105  -19.3949  -55.3744 N.am      21 UNK        -0.5000 
    115 CA        -5.8378  -20.5404  -56.1569 C.3       21 UNK         0.1400 
    116 CB        -6.6158  -21.7904  -55.7168 C.3       21 UNK        -0.1800 
    117 C         -4.3200  -20.7831  -56.0387 C.2       21 UNK         0.5000 
    118 O         -3.7303  -21.3948  -56.9298 O.2       21 UNK        -0.5000 
    119 N         -3.7200  -20.2850  -54.9510 N.am      22 UNK        -0.5000 
    120 CA        -2.2719  -20.2464  -54.7179 C.3       22 UNK         0.1400 
    121 C         -1.4924  -19.2329  -55.6118 C.2       22 UNK         0.5000 
    122 N         -2.1469  -18.3290  -56.3342 N.am      22 UNK        -0.7600 
    123 O         -0.2666  -19.2805  -55.6640 O.2       22 UNK        -0.5000 
    124 C124       -1.9531  -20.0598  -53.2125 C.3       23 UNK        -0.0398 
    125 S125       -2.6433  -18.5260  -52.4913 S.3       23 UNK        -0.2404 
    126 C126       -2.0926  -18.6645  -50.7605 C.3       23 UNK        -0.0205 
    127 H127        6.3139  -12.1522  -47.0324 H         1 UNK         0.0600 
    128 H128        5.5132  -10.9032  -47.9916 H         1 UNK         0.0600 
    129 H129        5.7730  -12.5114  -48.6752 H         1 UNK         0.0600 
    130 H130        3.8991  -13.7148  -48.7163 H         1 UNK         0.3000 
    131 H131        2.3486  -14.3136  -46.4626 H         1 UNK         0.0600 
    132 H132        2.5673  -15.9116  -48.2553 H         1 UNK         0.0800 
    133 H133        0.8806  -15.5640  -48.0561 H         1 UNK         0.0800 
    134 H134        3.3868  -16.3373  -50.5919 H         1 UNK         0.0800 
    135 H135        2.4249  -16.0257  -52.0144 H         1 UNK         0.0800 
    136 H136       -0.3799  -16.5562  -50.9873 H         1 UNK         0.1150 
    137 H137       -0.4493  -20.7823  -50.3063 H         1 UNK         0.1150 
    138 H138        3.2957  -18.7132  -50.4708 H         1 UNK         0.1150 
    139 H139        1.5378  -22.0469  -50.2277 H         1 UNK         0.0800 
    140 H140        2.9242  -21.3419  -51.0080 H         1 UNK         0.0800 
    141 H141        1.1742  -20.2609  -47.6928 H         1 UNK         0.0800 
    142 H142        2.4439  -20.4958  -46.5426 H         1 UNK         0.0800 
    143 H143        1.9763  -23.0812  -46.8043 H         1 UNK         0.0600 
    144 H144        0.9215  -21.1917  -45.0138 H         1 UNK         0.3000 
    145 H145       -0.8288  -23.4497  -42.8578 H         1 UNK         0.0600 
    146 H146        0.6677  -22.2880  -41.2536 H         1 UNK         0.0600 
    147 H147        1.5675  -23.4719  -42.1906 H         1 UNK         0.0600 
    148 H148        1.7142  -21.7608  -42.5687 H         1 UNK         0.0600 
    149 H149       -0.4774  -20.5983  -42.8635 H         1 UNK         0.3000 
    150 H150       -3.4854  -19.8358  -44.6558 H         1 UNK         0.0600 
    151 H151       -4.1097  -20.2195  -42.2607 H         1 UNK         0.0600 
    152 H152       -3.8460  -18.5143  -42.5951 H         1 UNK         0.0600 
    153 H153       -2.6170  -19.4440  -41.7412 H         1 UNK         0.0600 
    154 H154       -1.5557  -18.0967  -43.5664 H         1 UNK         0.3000 
    155 H155        0.6897  -17.9924  -46.3761 H         1 UNK         0.0600 
    156 H156       -1.0600  -16.3976  -46.9013 H         1 UNK         0.0600 
    157 H157        0.0848  -15.5613  -45.8544 H         1 UNK         0.0600 
    158 H158       -1.4467  -16.1320  -45.2126 H         1 UNK         0.0600 
    159 H159        0.9008  -16.6333  -43.9492 H         1 UNK         0.3000 
    160 H160        2.5458  -19.1201  -41.9710 H         1 UNK         0.0600 
    161 H161        3.4976  -16.5544  -43.3532 H         1 UNK         0.0600 
    162 H162        4.3177  -18.1067  -43.3481 H         1 UNK         0.0600 
    163 H163        4.1591  -17.2007  -41.8509 H         1 UNK         0.0600 
    164 H164        1.6592  -16.3719  -41.6242 H         1 UNK         0.3000 
    165 H165       -1.4324  -17.2025  -40.0604 H         1 UNK         0.0600 
    166 H166       -0.4635  -15.8076  -38.2545 H         1 UNK         0.0600 
    167 H167        0.2671  -17.4047  -38.2403 H         1 UNK         0.0600 
    168 H168        1.1602  -16.0411  -38.9029 H         1 UNK         0.0600 
    169 H169       -0.0954  -14.7179  -40.5859 H         1 UNK         0.3000 
    170 H170       -1.3630  -14.1983  -43.8639 H         1 UNK         0.0600 
    171 H171       -3.3187  -13.6242  -42.4150 H         1 UNK         0.0600 
    172 H172       -2.2368  -12.8922  -41.2352 H         1 UNK         0.0600 
    173 H173       -2.3912  -12.1970  -42.8489 H         1 UNK         0.0600 
    174 H174        0.0171  -12.3720  -42.2888 H         1 UNK         0.3000 
    175 H175        2.4489  -12.4829  -41.8287 H         1 UNK         0.0600 
    176 H176        3.8572  -13.8825  -44.1633 H         1 UNK         0.0600 
    177 H177        4.6254  -12.7989  -43.0061 H         1 UNK         0.0600 
    178 H178        3.9606  -14.3298  -42.4627 H         1 UNK         0.0600 
    179 H179        2.8533  -11.6942  -44.6112 H         1 UNK         0.3000 
    180 H180        0.8286   -8.7326  -44.3023 H         1 UNK         0.0600 
    181 H181        3.8028   -9.3408  -44.7305 H         1 UNK         0.0600 
    182 H182        3.1373   -8.2811  -43.4926 H         1 UNK         0.0600 
    183 H183        2.9703   -7.8574  -45.1895 H         1 UNK         0.0600 
    184 H184        2.1972  -10.5450  -46.2543 H         1 UNK         0.3000 
    185 H185       -0.7431  -10.9828  -48.1277 H         1 UNK         0.0600 
    186 H186       -0.0769   -8.7670  -49.0713 H         1 UNK         0.0600 
    187 H187        1.6197   -9.2260  -48.9882 H         1 UNK         0.0600 
    188 H188        0.5197  -10.0840  -50.0684 H         1 UNK         0.0600 
    189 H189        2.0023  -11.6375  -48.6399 H         1 UNK         0.3000 
    190 H190       -1.1092  -21.2510  -46.9693 H         1 UNK         0.3000 
    191 H191       -2.1502  -22.3030  -49.3503 H         1 UNK         0.0600 
    192 H192       -4.3260  -21.4943  -48.4015 H         1 UNK         0.0600 
    193 H193       -3.5841  -21.3130  -46.8231 H         1 UNK         0.0600 
    194 H194       -3.0560  -20.3108  -48.1687 H         1 UNK         0.0600 
    195 H195       -2.4892  -23.5223  -45.9888 H         1 UNK         0.3000 
    196 H196       -4.1584  -25.7463  -46.6013 H         1 UNK         0.0600 
    197 H197       -3.4833  -26.5310  -44.3275 H         1 UNK         0.0600 
    198 H198       -3.9366  -24.8332  -44.3147 H         1 UNK         0.0600 
    199 H199       -2.2369  -25.2913  -44.2576 H         1 UNK         0.0600 
    200 H200       -0.5810  -25.4705  -46.2989 H         1 UNK         0.3000 
    201 H201        0.0175  -28.2008  -46.7973 H         1 UNK         0.0600 
    202 H202        1.6150  -26.6379  -45.7366 H         1 UNK         0.0600 
    203 H203        1.7198  -25.6869  -47.2161 H         1 UNK         0.0600 
    204 H204        2.3327  -27.3361  -47.1806 H         1 UNK         0.0600 
    205 H205       -0.2436  -25.4066  -49.0249 H         1 UNK         0.3000 
    206 H206        0.4286  -26.8487  -51.4178 H         1 UNK         0.0600 
    207 H207        0.6725  -24.3837  -51.1933 H         1 UNK         0.0600 
    208 H208       -0.4132  -24.7631  -52.5214 H         1 UNK         0.0600 
    209 H209       -1.0693  -24.2053  -50.9869 H         1 UNK         0.0600 
    210 H210       -2.4566  -26.7002  -49.5466 H         1 UNK         0.3000 
    211 H211       -4.5618  -27.3290  -49.7136 H         1 UNK         0.0600 
    212 H212       -5.2321  -29.2007  -51.1692 H         1 UNK         0.0600 
    213 H213       -3.6660  -29.5473  -50.4533 H         1 UNK         0.0600 
    214 H214       -3.7749  -29.0358  -52.1372 H         1 UNK         0.0600 
    215 H215       -3.9892  -24.8832  -50.5706 H         1 UNK         0.3000 
    216 H216       -5.9022  -24.2729  -52.7569 H         1 UNK         0.0600 
    217 H217       -4.1953  -22.7283  -53.7510 H         1 UNK         0.0600 
    218 H218       -3.6866  -24.4044  -53.8762 H         1 UNK         0.0600 
    219 H219       -2.9693  -23.3567  -52.6560 H         1 UNK         0.0600 
    220 H220       -7.1877  -23.7418  -50.9543 H         1 UNK         0.3000 
    221 H221       -6.4480  -22.0627  -48.7963 H         1 UNK         0.0600 
    222 H222       -9.1876  -22.9458  -49.8161 H         1 UNK         0.0600 
    223 H223       -8.1805  -23.7996  -48.6466 H         1 UNK         0.0600 
    224 H224       -8.8614  -22.2345  -48.2394 H         1 UNK         0.0600 
    225 H225       -5.4970  -20.4775  -50.4525 H         1 UNK         0.3000 
    226 H226       -5.2250  -18.3511  -50.9548 H         1 UNK         0.0600 
    227 H227       -6.6708  -17.6685  -49.0133 H         1 UNK         0.0600 
    228 H228       -6.7783  -16.5511  -50.3632 H         1 UNK         0.0600 
    229 H229       -8.0823  -17.6870  -50.0711 H         1 UNK         0.0600 
    230 H230       -5.6392  -16.8461  -52.6417 H         1 UNK         0.3000 
    231 H231       -5.9739  -16.1685  -54.6841 H         1 UNK         0.0600 
    232 H232       -8.6334  -17.6880  -54.6757 H         1 UNK         0.0600 
    233 H233       -8.1512  -16.4439  -55.8175 H         1 UNK         0.0600 
    234 H234       -8.3840  -16.0325  -54.1256 H         1 UNK         0.0600 
    235 H235       -6.9249  -19.5984  -54.5884 H         1 UNK         0.3000 
    236 H236       -6.0584  -20.3439  -57.2078 H         1 UNK         0.0600 
    237 H237       -6.4711  -22.0009  -54.6564 H         1 UNK         0.0600 
    238 H238       -7.6852  -21.6692  -55.8901 H         1 UNK         0.0600 
    239 H239       -6.2944  -22.6708  -56.2749 H         1 UNK         0.0600 
    240 H240       -4.2835  -19.7859  -54.2797 H         1 UNK         0.3000 
    241 H241       -1.8850  -21.2283  -54.9973 H         1 UNK         0.0600 
    242 H242       -1.6245  -17.6884  -56.9102 H         1 UNK         0.3800 
    243 H243       -3.1575  -18.2649  -56.3088 H         1 UNK         0.3800 
    244 H244       -0.8734  -20.0760  -53.0576 H         1 UNK         0.0800 
    245 H245       -2.3476  -20.9053  -52.6473 H         1 UNK         0.0800 
    246 H246       -2.5020  -17.8326  -50.1860 H         1 UNK         0.0800 
    247 H247       -2.5143  -19.5735  -50.3302 H         1 UNK         0.0800 
@<TRIPOS>BOND
     1    1    2 1    
     2    1  127 1    
     3    1  128 1    
     4    1  129 1    
     5    2    3 2    
     6    2    4 am   BACKBONE|DICT|INTERRES
     7    4    5 1    
     8    4  130 1    
     9    5    6 1    
    10    5   65 1    
    11    5  131 1    
    12    6    7 1    
    13    6  132 1    
    14    6  133 1    
    15    7    8 1    
    16    8    9 1    
    17    8  134 1    
    18    8  135 1    
    19    9   10 ar   
    20    9   14 ar   
    21   10   11 ar   
    22   10  136 1    
    23   11   12 ar   
    24   11  126 1    
    25   12   13 ar   
    26   12  137 1    
    27   13   14 ar   
    28   13   15 1    
    29   14  138 1    
    30   15   16 1    
    31   15  139 1    
    32   15  140 1    
    33   16   17 1    
    34   17   18 1    
    35   17  141 1    
    36   17  142 1    
    37   18   19 1    
    38   18   67 1    
    39   18  143 1    
    40   19   20 am   BACKBONE|DICT|INTERRES
    41   19  144 1    
    42   20   21 2    
    43   20   22 1    
    44   22   23 1    
    45   22   24 1    
    46   22  145 1    
    47   23  146 1    
    48   23  147 1    
    49   23  148 1    
    50   24   25 am   BACKBONE|DICT|INTERRES
    51   24  149 1    
    52   25   26 2    
    53   25   27 1    
    54   27   28 1    
    55   27   29 1    
    56   27  150 1    
    57   28  151 1    
    58   28  152 1    
    59   28  153 1    
    60   29   30 am   BACKBONE|DICT|INTERRES
    61   29  154 1    
    62   30   31 2    
    63   30   32 1    
    64   32   33 1    
    65   32   34 1    
    66   32  155 1    
    67   33  156 1    
    68   33  157 1    
    69   33  158 1    
    70   34   35 am   BACKBONE|DICT|INTERRES
    71   34  159 1    
    72   35   36 2    
    73   35   37 1    
    74   37   38 1    
    75   37   39 1    
    76   37  160 1    
    77   38  161 1    
    78   38  162 1    
    79   38  163 1    
    80   39   40 am   BACKBONE|DICT|INTERRES
    81   39  164 1    
    82   40   41 2    
    83   40   42 1    
    84   42   43 1    
    85   42   44 1    
    86   42  165 1    
    87   43  166 1    
    88   43  167 1    
    89   43  168 1    
    90   44   45 am   BACKBONE|DICT|INTERRES
    91   44  169 1    
    92   45   46 2    
    93   45   47 1    
    94   47   48 1    
    95   47   49 1    
    96   47  170 1    
    97   48  171 1    
    98   48  172 1    
    99   48  173 1    
   100   49   50 am   BACKBONE|DICT|INTERRES
   101   49  174 1    
   102   50   51 2    
   103   50   52 1    
   104   52   53 1    
   105   52   54 1    
   106   52  175 1    
   107   53  176 1    
   108   53  177 1    
   109   53  178 1    
   110   54   55 am   BACKBONE|DICT|INTERRES
   111   54  179 1    
   112   55   56 2    
   113   55   57 1    
   114   57   58 1    
   115   57   59 1    
   116   57  180 1    
   117   58  181 1    
   118   58  182 1    
   119   58  183 1    
   120   59   60 am   BACKBONE|DICT|INTERRES
   121   59  184 1    
   122   60   61 2    
   123   60   62 1    
   124   62   63 1    
   125   62   64 1    
   126   62  185 1    
   127   63  186 1    
   128   63  187 1    
   129   63  188 1    
   130   64   65 am   BACKBONE|DICT|INTERRES
   131   64  189 1    
   132   65   66 2    
   133   67   68 2    
   134   67   69 am   BACKBONE|DICT|INTERRES
   135   69   70 1    
   136   69  190 1    
   137   70   71 1    
   138   70   72 1    
   139   70  191 1    
   140   71  192 1    
   141   71  193 1    
   142   71  194 1    
   143   72   73 2    
   144   72   74 am   BACKBONE|DICT|INTERRES
   145   74   75 1    
   146   74  195 1    
   147   75   76 1    
   148   75   77 1    
   149   75  196 1    
   150   76  197 1    
   151   76  198 1    
   152   76  199 1    
   153   77   78 2    
   154   77   79 am   BACKBONE|DICT|INTERRES
   155   79   80 1    
   156   79  200 1    
   157   80   81 1    
   158   80   82 1    
   159   80  201 1    
   160   81  202 1    
   161   81  203 1    
   162   81  204 1    
   163   82   83 2    
   164   82   84 am   BACKBONE|DICT|INTERRES
   165   84   85 1    
   166   84  205 1    
   167   85   86 1    
   168   85   87 1    
   169   85  206 1    
   170   86  207 1    
   171   86  208 1    
   172   86  209 1    
   173   87   88 2    
   174   87   89 am   BACKBONE|DICT|INTERRES
   175   89   90 1    
   176   89  210 1    
   177   90   91 1    
   178   90   92 1    
   179   90  211 1    
   180   91  212 1    
   181   91  213 1    
   182   91  214 1    
   183   92   93 2    
   184   92   94 am   BACKBONE|DICT|INTERRES
   185   94   95 1    
   186   94  215 1    
   187   95   96 1    
   188   95   97 1    
   189   95  216 1    
   190   96  217 1    
   191   96  218 1    
   192   96  219 1    
   193   97   98 2    
   194   97   99 am   BACKBONE|DICT|INTERRES
   195   99  100 1    
   196   99  220 1    
   197  100  101 1    
   198  100  102 1    
   199  100  221 1    
   200  101  222 1    
   201  101  223 1    
   202  101  224 1    
   203  102  103 2    
   204  102  104 am   BACKBONE|DICT|INTERRES
   205  104  105 1    
   206  104  225 1    
   207  105  106 1    
   208  105  107 1    
   209  105  226 1    
   210  106  227 1    
   211  106  228 1    
   212  106  229 1    
   213  107  108 2    
   214  107  109 am   BACKBONE|DICT|INTERRES
   215  109  110 1    
   216  109  230 1    
   217  110  111 1    
   218  110  112 1    
   219  110  231 1    
   220  111  232 1    
   221  111  233 1    
   222  111  234 1    
   223  112  113 2    
   224  112  114 am   BACKBONE|DICT|INTERRES
   225  114  115 1    
   226  114  235 1    
   227  115  116 1    
   228  115  117 1    
   229  115  236 1    
   230  116  237 1    
   231  116  238 1    
   232  116  239 1    
   233  117  118 2    
   234  117  119 am   BACKBONE|DICT|INTERRES
   235  119  120 1    
   236  119  240 1    
   237  120  121 1    
   238  120  124 1    
   239  120  241 1    
   240  121  122 am   BACKBONE|DICT|INTERRES
   241  121  123 2    
   242  122  242 1    
   243  122  243 1    
   244  124  125 1    
   245  124  244 1    
   246  124  245 1    
   247  125  126 1    
   248  126  246 1    
   249  126  247 1    
@<TRIPOS>SUBSTRUCTURE
     1 UNK         1 GROUP             0       ****    0 ROOT    
