@<TRIPOS>MOLECULE
3R540
247   249    1
SMALL
USER_CHARGES


@<TRIPOS>ATOM
      1 CA          3.7999  -17.7187  -46.7113 C.3       0 UNK        -0.1800 
      2 C           3.7791  -16.2306  -47.0294 C.2       0 UNK         0.5000 
      3 O           4.7596  -15.6980  -47.5456 O.2       0 UNK        -0.5000 
      4 N           2.6697  -15.5571  -46.6981 N.am      1 UNK        -0.5000 
      5 CA          2.3574  -14.1373  -46.9470 C.3       1 UNK         0.1400 
      6 C6          2.3466  -13.7399  -48.4479 C.3       23 UNK        -0.0398 
      7 S7          1.3130  -14.8483  -49.4682 S.3       23 UNK        -0.2404 
      8 C8          2.5644  -15.5297  -50.5994 C.3       23 UNK        -0.0205 
      9 C9          2.1429  -16.8843  -51.1398 C.ar      23 UNK        -0.0193 
     10 C10         1.3787  -16.9811  -52.3044 C.ar      23 UNK        -0.1150 
     11 C11         1.0113  -18.2320  -52.8107 C.ar      23 UNK        -0.0193 
     12 C12         1.4099  -19.3924  -52.1367 C.ar      23 UNK        -0.1150 
     13 C13         2.1843  -19.3065  -50.9744 C.ar      23 UNK        -0.0193 
     14 C14         2.5458  -18.0490  -50.4847 C.ar      23 UNK        -0.1150 
     15 C15         2.6833  -20.5621  -50.2711 C.3       23 UNK        -0.0205 
     16 S16         2.1315  -20.6493  -48.5370 S.3       23 UNK        -0.2404 
     17 C17         0.3956  -21.1657  -48.7296 C.3       23 UNK        -0.0398 
     18 CA          0.0592  -22.3673  -47.8163 C.3       11 UNK         0.1400 
     19 N           0.2046  -22.0480  -46.3931 N.am      11 UNK        -0.5000 
     20 C           0.2120  -22.9475  -45.4006 C.2       10 UNK         0.5000 
     21 O           0.1179  -24.1612  -45.5771 O.2       10 UNK        -0.5000 
     22 CA          0.2749  -22.3903  -43.9680 C.3       10 UNK         0.1400 
     23 CB          1.7185  -22.0326  -43.5858 C.3       10 UNK        -0.1800 
     24 N          -0.5896  -21.2208  -43.7997 N.am      10 UNK        -0.5000 
     25 C          -1.9303  -21.2744  -43.8440 C.2       9 UNK         0.5000 
     26 O          -2.5604  -22.3232  -43.9718 O.2       9 UNK        -0.5000 
     27 CA         -2.7041  -19.9421  -43.7819 C.3       9 UNK         0.1400 
     28 CB         -3.0589  -19.6068  -42.3256 C.3       9 UNK        -0.1800 
     29 N          -1.9941  -18.8123  -44.3839 N.am      9 UNK        -0.5000 
     30 C          -1.5249  -18.7648  -45.6393 C.2       8 UNK         0.5000 
     31 O          -1.7288  -19.6484  -46.4715 O.2       8 UNK        -0.5000 
     32 CA         -0.6160  -17.5744  -46.0098 C.3       8 UNK         0.1400 
     33 CB         -1.4005  -16.5079  -46.7839 C.3       8 UNK        -0.1800 
     34 N           0.0495  -16.9546  -44.8565 N.am      8 UNK        -0.5000 
     35 C           0.9219  -17.5844  -44.0526 C.2       7 UNK         0.5000 
     36 O           1.2687  -18.7537  -44.2132 O.2       7 UNK        -0.5000 
     37 CA          1.4726  -16.7916  -42.8586 C.3       7 UNK         0.1400 
     38 CB          2.6055  -15.8559  -43.2968 C.3       7 UNK        -0.1800 
     39 N           0.4176  -16.0140  -42.2116 N.am      7 UNK        -0.5000 
     40 C          -0.3311  -16.4674  -41.1970 C.2       6 UNK         0.5000 
     41 O          -0.1616  -17.5602  -40.6557 O.2       6 UNK        -0.5000 
     42 CA         -1.4765  -15.5586  -40.7117 C.3       6 UNK         0.1400 
     43 CB         -1.0151  -14.6898  -39.5322 C.3       6 UNK        -0.1800 
     44 N          -2.0202  -14.7002  -41.7665 N.am      6 UNK        -0.5000 
     45 C          -2.7187  -15.1537  -42.8179 C.2       5 UNK         0.5000 
     46 O          -2.9634  -16.3431  -43.0095 O.2       5 UNK        -0.5000 
     47 CA         -3.1917  -14.1171  -43.8535 C.3       5 UNK         0.1400 
     48 CB         -4.5872  -13.5927  -43.4847 C.3       5 UNK        -0.1800 
     49 N          -2.2847  -12.9819  -44.0280 N.am      5 UNK        -0.5000 
     50 C          -0.9895  -13.0521  -44.3622 C.2       4 UNK         0.5000 
     51 O          -0.3820  -14.1136  -44.5358 O.2       4 UNK        -0.5000 
     52 CA         -0.2244  -11.7188  -44.4941 C.3       4 UNK         0.1400 
     53 CB         -1.0533  -10.4620  -44.1443 C.3       4 UNK        -0.1800 
     54 N           1.0166  -11.7473  -43.7189 N.am      4 UNK        -0.5000 
     55 C           1.1436  -11.9698  -42.4009 C.2       3 UNK         0.5000 
     56 O           0.1857  -12.1192  -41.6404 O.2       3 UNK        -0.5000 
     57 CA          2.5819  -12.0852  -41.8592 C.3       3 UNK         0.1400 
     58 CB          2.6601  -12.9607  -40.5946 C.3       3 UNK        -0.1800 
     59 N           3.4584  -12.6483  -42.8872 N.am      3 UNK        -0.5000 
     60 C           4.5108  -12.0397  -43.4443 C.2       2 UNK         0.5000 
     61 O           4.9435  -10.9435  -43.0878 O.2       2 UNK        -0.5000 
     62 CA          5.1731  -12.7738  -44.6279 C.3       2 UNK         0.1400 
     63 CB          6.3129  -13.6738  -44.1277 C.3       2 UNK        -0.1800 
     64 N           4.2484  -13.5851  -45.4300 N.am      2 UNK        -0.5000 
     65 C           3.1918  -13.1289  -46.1186 C.2       1 UNK         0.5000 
     66 O           2.8364  -11.9504  -46.0888 O.2       1 UNK        -0.5000 
     67 C          -1.3484  -22.9060  -48.1262 C.2       11 UNK         0.5000 
     68 O          -1.4754  -23.8458  -48.9108 O.2       11 UNK        -0.5000 
     69 N          -2.3747  -22.3261  -47.4885 N.am      12 UNK        -0.5000 
     70 CA         -3.7643  -22.7760  -47.5718 C.3       12 UNK         0.1400 
     71 CB         -4.6805  -21.7462  -46.8940 C.3       12 UNK        -0.1800 
     72 C          -3.9778  -24.1769  -46.9675 C.2       12 UNK         0.5000 
     73 O          -4.7673  -24.9508  -47.5065 O.2       12 UNK        -0.5000 
     74 N          -3.2670  -24.4819  -45.8751 N.am      13 UNK        -0.5000 
     75 CA         -3.3050  -25.7796  -45.2078 C.3       13 UNK         0.1400 
     76 CB         -2.7831  -25.6325  -43.7694 C.3       13 UNK        -0.1800 
     77 C          -2.5150  -26.8588  -45.9688 C.2       13 UNK         0.5000 
     78 O          -3.0538  -27.9376  -46.2195 O.2       13 UNK        -0.5000 
     79 N          -1.2463  -26.5682  -46.2879 N.am      14 UNK        -0.5000 
     80 CA         -0.3007  -27.5467  -46.8236 C.3       14 UNK         0.1400 
     81 CB          1.1362  -27.0984  -46.5107 C.3       14 UNK        -0.1800 
     82 C          -0.4735  -27.7974  -48.3294 C.2       14 UNK         0.5000 
     83 O          -0.5796  -28.9531  -48.7424 O.2       14 UNK        -0.5000 
     84 N          -0.4612  -26.7194  -49.1228 N.am      15 UNK        -0.5000 
     85 CA         -0.4437  -26.7848  -50.5863 C.3       15 UNK         0.1400 
     86 CB          0.5268  -25.7135  -51.1132 C.3       15 UNK        -0.1800 
     87 C          -1.8346  -26.5865  -51.2089 C.2       15 UNK         0.5000 
     88 O          -2.0494  -27.0126  -52.3435 O.2       15 UNK        -0.5000 
     89 N          -2.7259  -25.8997  -50.4793 N.am      16 UNK        -0.5000 
     90 CA         -4.0309  -25.3802  -50.9076 C.3       16 UNK         0.1400 
     91 CB         -4.9788  -26.5059  -51.3678 C.3       16 UNK        -0.1800 
     92 C          -3.9238  -24.2326  -51.9342 C.2       16 UNK         0.5000 
     93 O          -4.9344  -23.8427  -52.5183 O.2       16 UNK        -0.5000 
     94 N          -2.7157  -23.6785  -52.1111 N.am      17 UNK        -0.5000 
     95 CA         -2.4093  -22.6154  -53.0660 C.3       17 UNK         0.1400 
     96 CB         -0.8877  -22.4196  -53.1421 C.3       17 UNK        -0.1800 
     97 C          -3.1222  -21.3040  -52.7097 C.2       17 UNK         0.5000 
     98 O          -3.8399  -20.7525  -53.5419 O.2       17 UNK        -0.5000 
     99 N          -2.9653  -20.8664  -51.4535 N.am      18 UNK        -0.5000 
    100 CA        -3.6159  -19.6665  -50.9251 C.3       18 UNK         0.1400 
    101 CB        -2.9109  -19.2292  -49.6346 C.3       18 UNK        -0.1800 
    102 C         -5.1300  -19.8534  -50.7035 C.2       18 UNK         0.5000 
    103 O         -5.8670  -18.8696  -50.7513 O.2       18 UNK        -0.5000 
    104 N         -5.5780  -21.1057  -50.5191 N.am      19 UNK        -0.5000 
    105 CA        -6.9958  -21.4745  -50.4428 C.3       19 UNK         0.1400 
    106 CB        -7.1385  -22.9045  -49.8975 C.3       19 UNK        -0.1800 
    107 C         -7.6982  -21.3376  -51.8075 C.2       19 UNK         0.5000 
    108 O         -8.8407  -20.8830  -51.8646 O.2       19 UNK        -0.5000 
    109 N         -6.9789  -21.6851  -52.8837 N.am      20 UNK        -0.5000 
    110 CA        -7.3840  -21.4872  -54.2772 C.3       20 UNK         0.1400 
    111 CB        -6.5864  -22.4631  -55.1580 C.3       20 UNK        -0.1800 
    112 C         -7.2005  -20.0337  -54.7691 C.2       20 UNK         0.5000 
    113 O         -7.5845  -19.7334  -55.8998 O.2       20 UNK        -0.5000 
    114 N         -6.6173  -19.1699  -53.9237 N.am      21 UNK        -0.5000 
    115 CA        -6.2632  -17.7671  -54.1631 C.3       21 UNK         0.1400 
    116 CB        -7.5138  -16.9123  -54.4589 C.3       21 UNK        -0.1800 
    117 C         -5.1392  -17.5915  -55.2067 C.2       21 UNK         0.5000 
    118 O         -5.0943  -16.5701  -55.8957 O.2       21 UNK        -0.5000 
    119 N         -4.2317  -18.5750  -55.2689 N.am      22 UNK        -0.5000 
    120 CA        -3.0297  -18.6221  -56.1152 C.3       22 UNK         0.1400 
    121 C         -3.3372  -18.6405  -57.6472 C.2       22 UNK         0.5000 
    122 N         -2.3648  -18.3660  -58.5082 N.am      22 UNK        -0.7600 
    123 O         -4.4412  -18.9620  -58.0813 O.2       22 UNK        -0.5000 
    124 C124       -1.9743  -17.5594  -55.6911 C.3       23 UNK        -0.0398 
    125 S125       -1.4718  -17.7123  -53.9377 S.3       23 UNK        -0.2404 
    126 C126        0.2356  -18.3164  -54.1167 C.3       23 UNK        -0.0205 
    127 H127        4.3365  -17.8977  -45.7799 H         1 UNK         0.0600 
    128 H128        4.3035  -18.2708  -47.5046 H         1 UNK         0.0600 
    129 H129        2.7922  -18.1220  -46.6104 H         1 UNK         0.0600 
    130 H130        1.9094  -16.0745  -46.2824 H         1 UNK         0.3000 
    131 H131        1.3353  -14.0166  -46.5868 H         1 UNK         0.0600 
    132 H132        3.3634  -13.7046  -48.8415 H         1 UNK         0.0800 
    133 H133        1.9493  -12.7303  -48.5666 H         1 UNK         0.0800 
    134 H134        2.7308  -14.8286  -51.4185 H         1 UNK         0.0800 
    135 H135        3.5212  -15.6326  -50.0856 H         1 UNK         0.0800 
    136 H136        1.0756  -16.0826  -52.8235 H         1 UNK         0.1150 
    137 H137        1.1451  -20.3610  -52.5341 H         1 UNK         0.1150 
    138 H138        3.1510  -17.9781  -49.5930 H         1 UNK         0.1150 
    139 H139        2.3776  -21.4645  -50.8028 H         1 UNK         0.0800 
    140 H140        3.7740  -20.5557  -50.2868 H         1 UNK         0.0800 
    141 H141        0.2118  -21.4177  -49.7753 H         1 UNK         0.0800 
    142 H142       -0.2410  -20.3090  -48.5078 H         1 UNK         0.0800 
    143 H143        0.7613  -23.1717  -48.0470 H         1 UNK         0.0600 
    144 H144        0.2472  -21.0668  -46.1579 H         1 UNK         0.3000 
    145 H145       -0.0725  -23.1710  -43.2880 H         1 UNK         0.0600 
    146 H146        1.7735  -21.6419  -42.5697 H         1 UNK         0.0600 
    147 H147        2.3611  -22.9127  -43.6323 H         1 UNK         0.0600 
    148 H148        2.1420  -21.2842  -44.2565 H         1 UNK         0.0600 
    149 H149       -0.1299  -20.3199  -43.7349 H         1 UNK         0.3000 
    150 H150       -3.6343  -20.0741  -44.3359 H         1 UNK         0.0600 
    151 H151       -3.5499  -20.4493  -41.8365 H         1 UNK         0.0600 
    152 H152       -3.7449  -18.7622  -42.2706 H         1 UNK         0.0600 
    153 H153       -2.1712  -19.3587  -41.7424 H         1 UNK         0.0600 
    154 H154       -1.8614  -18.0020  -43.7911 H         1 UNK         0.3000 
    155 H155        0.1630  -17.9619  -46.6699 H         1 UNK         0.0600 
    156 H156       -2.2242  -16.1114  -46.1925 H         1 UNK         0.0600 
    157 H157       -1.8239  -16.9243  -47.6986 H         1 UNK         0.0600 
    158 H158       -0.7602  -15.6744  -47.0734 H         1 UNK         0.0600 
    159 H159       -0.1920  -15.9857  -44.6636 H         1 UNK         0.3000 
    160 H160        1.8944  -17.5106  -42.1528 H         1 UNK         0.0600 
    161 H161        2.2294  -15.0401  -43.9126 H         1 UNK         0.0600 
    162 H162        3.3605  -16.3935  -43.8712 H         1 UNK         0.0600 
    163 H163        3.1112  -15.4311  -42.4307 H         1 UNK         0.0600 
    164 H164        0.1714  -15.1278  -42.6332 H         1 UNK         0.3000 
    165 H165       -2.2815  -16.2071  -40.3590 H         1 UNK         0.0600 
    166 H166       -1.8307  -14.0757  -39.1502 H         1 UNK         0.0600 
    167 H167       -0.6612  -15.3094  -38.7073 H         1 UNK         0.0600 
    168 H168       -0.1984  -14.0259  -39.8147 H         1 UNK         0.0600 
    169 H169       -1.8185  -13.7114  -41.7008 H         1 UNK         0.3000 
    170 H170       -3.2680  -14.6245  -44.8155 H         1 UNK         0.0600 
    171 H171       -5.2958  -14.4143  -43.3702 H         1 UNK         0.0600 
    172 H172       -4.5735  -13.0377  -42.5459 H         1 UNK         0.0600 
    173 H173       -4.9796  -12.9339  -44.2596 H         1 UNK         0.0600 
    174 H174       -2.6851  -12.0670  -43.8806 H         1 UNK         0.3000 
    175 H175        0.0668  -11.6418  -45.5424 H         1 UNK         0.0600 
    176 H176       -1.4101  -10.4750  -43.1138 H         1 UNK         0.0600 
    177 H177       -0.4568   -9.5585  -44.2720 H         1 UNK         0.0600 
    178 H178       -1.9198  -10.3630  -44.7993 H         1 UNK         0.0600 
    179 H179        1.8611  -11.6610  -44.2729 H         1 UNK         0.3000 
    180 H180        2.8997  -11.0748  -41.5952 H         1 UNK         0.0600 
    181 H181        2.2532  -13.9576  -40.7653 H         1 UNK         0.0600 
    182 H182        2.0962  -12.5141  -39.7748 H         1 UNK         0.0600 
    183 H183        3.6899  -13.0716  -40.2550 H         1 UNK         0.0600 
    184 H184        3.1816  -13.5425  -43.2641 H         1 UNK         0.3000 
    185 H185        5.5995  -12.0138  -45.2858 H         1 UNK         0.0600 
    186 H186        7.0380  -13.1015  -43.5473 H         1 UNK         0.0600 
    187 H187        5.9410  -14.4765  -43.4895 H         1 UNK         0.0600 
    188 H188        6.8510  -14.1283  -44.9599 H         1 UNK         0.0600 
    189 H189        4.5017  -14.5539  -45.5644 H         1 UNK         0.3000 
    190 H190       -2.1849  -21.5183  -46.9023 H         1 UNK         0.3000 
    191 H191       -4.0332  -22.8269  -48.6280 H         1 UNK         0.0600 
    192 H192       -4.5695  -20.7564  -47.3359 H         1 UNK         0.0600 
    193 H193       -5.7288  -22.0287  -46.9912 H         1 UNK         0.0600 
    194 H194       -4.4687  -21.6642  -45.8291 H         1 UNK         0.0600 
    195 H195       -2.6955  -23.7638  -45.4443 H         1 UNK         0.3000 
    196 H196       -4.3452  -26.1079  -45.1493 H         1 UNK         0.0600 
    197 H197       -2.7946  -26.5907  -43.2484 H         1 UNK         0.0600 
    198 H198       -3.4034  -24.9435  -43.1960 H         1 UNK         0.0600 
    199 H199       -1.7598  -25.2564  -43.7452 H         1 UNK         0.0600 
    200 H200       -0.8641  -25.6581  -46.0387 H         1 UNK         0.3000 
    201 H201       -0.4619  -28.4976  -46.3105 H         1 UNK         0.0600 
    202 H202        1.2870  -26.9827  -45.4372 H         1 UNK         0.0600 
    203 H203        1.3780  -26.1465  -46.9849 H         1 UNK         0.0600 
    204 H204        1.8604  -27.8337  -46.8637 H         1 UNK         0.0600 
    205 H205       -0.4238  -25.7979  -48.7071 H         1 UNK         0.3000 
    206 H206       -0.0736  -27.7578  -50.9165 H         1 UNK         0.0600 
    207 H207        1.5365  -25.8811  -50.7379 H         1 UNK         0.0600 
    208 H208        0.5798  -25.7344  -52.2026 H         1 UNK         0.0600 
    209 H209        0.2255  -24.7079  -50.8194 H         1 UNK         0.0600 
    210 H210       -2.4019  -25.5433  -49.5872 H         1 UNK         0.3000 
    211 H211       -4.4776  -24.9294  -50.0243 H         1 UNK         0.0600 
    212 H212       -4.6664  -26.9424  -52.3165 H         1 UNK         0.0600 
    213 H213       -5.9925  -26.1280  -51.5054 H         1 UNK         0.0600 
    214 H214       -5.0295  -27.3047  -50.6280 H         1 UNK         0.0600 
    215 H215       -1.9495  -24.0376  -51.5615 H         1 UNK         0.3000 
    216 H216       -2.7635  -22.9303  -54.0499 H         1 UNK         0.0600 
    217 H217       -0.6328  -21.6221  -53.8408 H         1 UNK         0.0600 
    218 H218       -0.3928  -23.3260  -53.4914 H         1 UNK         0.0600 
    219 H219       -0.4617  -22.1608  -52.1724 H         1 UNK         0.0600 
    220 H220       -2.3744  -21.3871  -50.8246 H         1 UNK         0.3000 
    221 H221       -3.4956  -18.8638  -51.6565 H         1 UNK         0.0600 
    222 H222       -2.9246  -20.0155  -48.8830 H         1 UNK         0.0600 
    223 H223       -1.8710  -18.9634  -49.8259 H         1 UNK         0.0600 
    224 H224       -3.3932  -18.3526  -49.2004 H         1 UNK         0.0600 
    225 H225       -4.9106  -21.8596  -50.5459 H         1 UNK         0.3000 
    226 H226       -7.4865  -20.7951  -49.7424 H         1 UNK         0.0600 
    227 H227       -6.6519  -23.0162  -48.9299 H         1 UNK         0.0600 
    228 H228       -8.1897  -23.1607  -49.7603 H         1 UNK         0.0600 
    229 H229       -6.7130  -23.6447  -50.5736 H         1 UNK         0.0600 
    230 H230       -6.0714  -22.1167  -52.7462 H         1 UNK         0.3000 
    231 H231       -8.4440  -21.7315  -54.3718 H         1 UNK         0.0600 
    232 H232       -6.7443  -23.4954  -54.8451 H         1 UNK         0.0600 
    233 H233       -5.5156  -22.2613  -55.1127 H         1 UNK         0.0600 
    234 H234       -6.8906  -22.3903  -56.2027 H         1 UNK         0.0600 
    235 H235       -6.3414  -19.5320  -53.0220 H         1 UNK         0.3000 
    236 H236       -5.8452  -17.4070  -53.2221 H         1 UNK         0.0600 
    237 H237       -7.2682  -15.8498  -54.4595 H         1 UNK         0.0600 
    238 H238       -7.9457  -17.1457  -55.4323 H         1 UNK         0.0600 
    239 H239       -8.2839  -17.0653  -53.7028 H         1 UNK         0.0600 
    240 H240       -4.3371  -19.3739  -54.6483 H         1 UNK         0.3000 
    241 H241       -2.5941  -19.6027  -55.9204 H         1 UNK         0.0600 
    242 H242       -2.5694  -18.4025  -59.4951 H         1 UNK         0.3800 
    243 H243       -1.4319  -18.1311  -58.2096 H         1 UNK         0.3800 
    244 H244       -1.0813  -17.6301  -56.3116 H         1 UNK         0.0800 
    245 H245       -2.3644  -16.5531  -55.8488 H         1 UNK         0.0800 
    246 H246        0.2162  -19.3395  -54.4943 H         1 UNK         0.0800 
    247 H247        0.7594  -17.7197  -54.8649 H         1 UNK         0.0800 
@<TRIPOS>BOND
     1    1    2 1    
     2    1  127 1    
     3    1  128 1    
     4    1  129 1    
     5    2    3 2    
     6    2    4 am   BACKBONE|DICT|INTERRES
     7    4    5 1    
     8    4  130 1    
     9    5    6 1    
    10    5   65 1    
    11    5  131 1    
    12    6    7 1    
    13    6  132 1    
    14    6  133 1    
    15    7    8 1    
    16    8    9 1    
    17    8  134 1    
    18    8  135 1    
    19    9   10 ar   
    20    9   14 ar   
    21   10   11 ar   
    22   10  136 1    
    23   11   12 ar   
    24   11  126 1    
    25   12   13 ar   
    26   12  137 1    
    27   13   14 ar   
    28   13   15 1    
    29   14  138 1    
    30   15   16 1    
    31   15  139 1    
    32   15  140 1    
    33   16   17 1    
    34   17   18 1    
    35   17  141 1    
    36   17  142 1    
    37   18   19 1    
    38   18   67 1    
    39   18  143 1    
    40   19   20 am   BACKBONE|DICT|INTERRES
    41   19  144 1    
    42   20   21 2    
    43   20   22 1    
    44   22   23 1    
    45   22   24 1    
    46   22  145 1    
    47   23  146 1    
    48   23  147 1    
    49   23  148 1    
    50   24   25 am   BACKBONE|DICT|INTERRES
    51   24  149 1    
    52   25   26 2    
    53   25   27 1    
    54   27   28 1    
    55   27   29 1    
    56   27  150 1    
    57   28  151 1    
    58   28  152 1    
    59   28  153 1    
    60   29   30 am   BACKBONE|DICT|INTERRES
    61   29  154 1    
    62   30   31 2    
    63   30   32 1    
    64   32   33 1    
    65   32   34 1    
    66   32  155 1    
    67   33  156 1    
    68   33  157 1    
    69   33  158 1    
    70   34   35 am   BACKBONE|DICT|INTERRES
    71   34  159 1    
    72   35   36 2    
    73   35   37 1    
    74   37   38 1    
    75   37   39 1    
    76   37  160 1    
    77   38  161 1    
    78   38  162 1    
    79   38  163 1    
    80   39   40 am   BACKBONE|DICT|INTERRES
    81   39  164 1    
    82   40   41 2    
    83   40   42 1    
    84   42   43 1    
    85   42   44 1    
    86   42  165 1    
    87   43  166 1    
    88   43  167 1    
    89   43  168 1    
    90   44   45 am   BACKBONE|DICT|INTERRES
    91   44  169 1    
    92   45   46 2    
    93   45   47 1    
    94   47   48 1    
    95   47   49 1    
    96   47  170 1    
    97   48  171 1    
    98   48  172 1    
    99   48  173 1    
   100   49   50 am   BACKBONE|DICT|INTERRES
   101   49  174 1    
   102   50   51 2    
   103   50   52 1    
   104   52   53 1    
   105   52   54 1    
   106   52  175 1    
   107   53  176 1    
   108   53  177 1    
   109   53  178 1    
   110   54   55 am   BACKBONE|DICT|INTERRES
   111   54  179 1    
   112   55   56 2    
   113   55   57 1    
   114   57   58 1    
   115   57   59 1    
   116   57  180 1    
   117   58  181 1    
   118   58  182 1    
   119   58  183 1    
   120   59   60 am   BACKBONE|DICT|INTERRES
   121   59  184 1    
   122   60   61 2    
   123   60   62 1    
   124   62   63 1    
   125   62   64 1    
   126   62  185 1    
   127   63  186 1    
   128   63  187 1    
   129   63  188 1    
   130   64   65 am   BACKBONE|DICT|INTERRES
   131   64  189 1    
   132   65   66 2    
   133   67   68 2    
   134   67   69 am   BACKBONE|DICT|INTERRES
   135   69   70 1    
   136   69  190 1    
   137   70   71 1    
   138   70   72 1    
   139   70  191 1    
   140   71  192 1    
   141   71  193 1    
   142   71  194 1    
   143   72   73 2    
   144   72   74 am   BACKBONE|DICT|INTERRES
   145   74   75 1    
   146   74  195 1    
   147   75   76 1    
   148   75   77 1    
   149   75  196 1    
   150   76  197 1    
   151   76  198 1    
   152   76  199 1    
   153   77   78 2    
   154   77   79 am   BACKBONE|DICT|INTERRES
   155   79   80 1    
   156   79  200 1    
   157   80   81 1    
   158   80   82 1    
   159   80  201 1    
   160   81  202 1    
   161   81  203 1    
   162   81  204 1    
   163   82   83 2    
   164   82   84 am   BACKBONE|DICT|INTERRES
   165   84   85 1    
   166   84  205 1    
   167   85   86 1    
   168   85   87 1    
   169   85  206 1    
   170   86  207 1    
   171   86  208 1    
   172   86  209 1    
   173   87   88 2    
   174   87   89 am   BACKBONE|DICT|INTERRES
   175   89   90 1    
   176   89  210 1    
   177   90   91 1    
   178   90   92 1    
   179   90  211 1    
   180   91  212 1    
   181   91  213 1    
   182   91  214 1    
   183   92   93 2    
   184   92   94 am   BACKBONE|DICT|INTERRES
   185   94   95 1    
   186   94  215 1    
   187   95   96 1    
   188   95   97 1    
   189   95  216 1    
   190   96  217 1    
   191   96  218 1    
   192   96  219 1    
   193   97   98 2    
   194   97   99 am   BACKBONE|DICT|INTERRES
   195   99  100 1    
   196   99  220 1    
   197  100  101 1    
   198  100  102 1    
   199  100  221 1    
   200  101  222 1    
   201  101  223 1    
   202  101  224 1    
   203  102  103 2    
   204  102  104 am   BACKBONE|DICT|INTERRES
   205  104  105 1    
   206  104  225 1    
   207  105  106 1    
   208  105  107 1    
   209  105  226 1    
   210  106  227 1    
   211  106  228 1    
   212  106  229 1    
   213  107  108 2    
   214  107  109 am   BACKBONE|DICT|INTERRES
   215  109  110 1    
   216  109  230 1    
   217  110  111 1    
   218  110  112 1    
   219  110  231 1    
   220  111  232 1    
   221  111  233 1    
   222  111  234 1    
   223  112  113 2    
   224  112  114 am   BACKBONE|DICT|INTERRES
   225  114  115 1    
   226  114  235 1    
   227  115  116 1    
   228  115  117 1    
   229  115  236 1    
   230  116  237 1    
   231  116  238 1    
   232  116  239 1    
   233  117  118 2    
   234  117  119 am   BACKBONE|DICT|INTERRES
   235  119  120 1    
   236  119  240 1    
   237  120  121 1    
   238  120  124 1    
   239  120  241 1    
   240  121  122 am   BACKBONE|DICT|INTERRES
   241  121  123 2    
   242  122  242 1    
   243  122  243 1    
   244  124  125 1    
   245  124  244 1    
   246  124  245 1    
   247  125  126 1    
   248  126  246 1    
   249  126  247 1    
@<TRIPOS>SUBSTRUCTURE
     1 UNK         1 GROUP             0       ****    0 ROOT    
