@<TRIPOS>MOLECULE
3R540
247   249    1
SMALL
USER_CHARGES


@<TRIPOS>ATOM
      1 CA         -1.7428  -10.6999  -50.4447 C.3       0 UNK        -0.1800 
      2 C          -0.4844  -11.0307  -49.6551 C.2       0 UNK         0.5000 
      3 O           0.5779  -10.4746  -49.9341 O.2       0 UNK        -0.5000 
      4 N          -0.6005  -11.9330  -48.6723 N.am      1 UNK        -0.5000 
      5 CA          0.5023  -12.3904  -47.8138 C.3       1 UNK         0.1400 
      6 C6          0.1557  -13.7014  -47.0674 C.3       23 UNK        -0.0398 
      7 S7         -0.3778  -15.0395  -48.1898 S.3       23 UNK        -0.2404 
      8 C8          1.1851  -15.9495  -48.4131 C.3       23 UNK        -0.0205 
      9 C9          1.0959  -17.0444  -49.4729 C.ar      23 UNK        -0.0193 
     10 C10         0.4934  -16.7962  -50.7128 C.ar      23 UNK        -0.1150 
     11 C11         0.4607  -17.7784  -51.7074 C.ar      23 UNK        -0.0193 
     12 C12         1.0629  -19.0152  -51.4578 C.ar      23 UNK        -0.1150 
     13 C13         1.6671  -19.2814  -50.2267 C.ar      23 UNK        -0.0193 
     14 C14         1.6740  -18.2959  -49.2345 C.ar      23 UNK        -0.1150 
     15 C15         2.3369  -20.6271  -49.9920 C.3       23 UNK        -0.0205 
     16 S16         1.1250  -21.9322  -49.6210 S.3       23 UNK        -0.2404 
     17 C17         0.6401  -21.4911  -47.9231 C.3       23 UNK        -0.0398 
     18 CA          0.1571  -22.7063  -47.0952 C.3       11 UNK         0.1400 
     19 N           0.4187  -22.5073  -45.6686 N.am      11 UNK        -0.5000 
     20 C           0.3397  -23.4600  -44.7317 C.2       10 UNK         0.5000 
     21 O           0.0329  -24.6277  -44.9699 O.2       10 UNK        -0.5000 
     22 CA          0.6102  -23.0217  -43.2805 C.3       10 UNK         0.1400 
     23 CB          2.1176  -22.8775  -43.0232 C.3       10 UNK        -0.1800 
     24 N          -0.0685  -21.7720  -42.9329 N.am      10 UNK        -0.5000 
     25 C          -1.4006  -21.6227  -42.9028 C.2       9 UNK         0.5000 
     26 O          -2.1958  -22.5308  -43.1405 O.2       9 UNK        -0.5000 
     27 CA         -1.9393  -20.2139  -42.6044 C.3       9 UNK         0.1400 
     28 CB         -1.8628  -19.9054  -41.1018 C.3       9 UNK        -0.1800 
     29 N          -1.2462  -19.1700  -43.3571 N.am      9 UNK        -0.5000 
     30 C          -1.2089  -19.0843  -44.6950 C.2       8 UNK         0.5000 
     31 O          -1.7641  -19.8768  -45.4534 O.2       8 UNK        -0.5000 
     32 CA         -0.3610  -17.9460  -45.2841 C.3       8 UNK         0.1400 
     33 CB         -1.0763  -16.6003  -45.0932 C.3       8 UNK        -0.1800 
     34 N           0.9756  -17.8855  -44.6904 N.am      8 UNK        -0.5000 
     35 C           1.8639  -18.8909  -44.6876 C.2       7 UNK         0.5000 
     36 O           1.6748  -19.9788  -45.2270 O.2       7 UNK        -0.5000 
     37 CA          3.1602  -18.6663  -43.8960 C.3       7 UNK         0.1400 
     38 CB          4.1653  -17.8436  -44.7147 C.3       7 UNK        -0.1800 
     39 N           2.8966  -18.0126  -42.6152 N.am      7 UNK        -0.5000 
     40 C           2.2442  -18.5911  -41.5957 C.2       6 UNK         0.5000 
     41 O           1.8456  -19.7565  -41.6077 O.2       6 UNK        -0.5000 
     42 CA          1.9473  -17.6953  -40.3796 C.3       6 UNK         0.1400 
     43 CB          3.1716  -17.6046  -39.4567 C.3       6 UNK        -0.1800 
     44 N           1.5320  -16.3476  -40.7744 N.am      6 UNK        -0.5000 
     45 C           0.3819  -16.0706  -41.4050 C.2       5 UNK         0.5000 
     46 O          -0.4679  -16.9190  -41.6732 O.2       5 UNK        -0.5000 
     47 CA          0.1600  -14.6119  -41.8443 C.3       5 UNK         0.1400 
     48 CB         -0.5284  -13.8084  -40.7318 C.3       5 UNK        -0.1800 
     49 N           1.3925  -13.9277  -42.2385 N.am      5 UNK        -0.5000 
     50 C           2.1589  -14.2500  -43.2879 C.2       4 UNK         0.5000 
     51 O           1.9239  -15.2121  -44.0205 O.2       4 UNK        -0.5000 
     52 CA          3.3849  -13.3483  -43.5521 C.3       4 UNK         0.1400 
     53 CB          4.0737  -13.6595  -44.8929 C.3       4 UNK        -0.1800 
     54 N           3.0485  -11.9218  -43.5072 N.am      4 UNK        -0.5000 
     55 C           2.9230  -11.1937  -42.3875 C.2       3 UNK         0.5000 
     56 O           3.0474  -11.6727  -41.2594 O.2       3 UNK        -0.5000 
     57 CA          2.5865   -9.6962  -42.5293 C.3       3 UNK         0.1400 
     58 CB          3.8532   -8.8448  -42.3527 C.3       3 UNK        -0.1800 
     59 N           1.9568   -9.3459  -43.8021 N.am      3 UNK        -0.5000 
     60 C           0.7157   -9.6893  -44.1698 C.2       2 UNK         0.5000 
     61 O          -0.0491  -10.3472  -43.4625 O.2       2 UNK        -0.5000 
     62 CA          0.2453   -9.2375  -45.5685 C.3       2 UNK         0.1400 
     63 CB          1.1548   -8.1789  -46.2332 C.3       2 UNK        -0.1800 
     64 N           0.0531  -10.3751  -46.4713 N.am      2 UNK        -0.5000 
     65 C           0.9572  -11.3095  -46.8078 C.2       1 UNK         0.5000 
     66 O           2.1065  -11.3423  -46.3653 O.2       1 UNK        -0.5000 
     67 C          -1.3229  -23.0538  -47.3726 C.2       11 UNK         0.5000 
     68 O          -1.6047  -23.8864  -48.2374 O.2       11 UNK        -0.5000 
     69 N          -2.2451  -22.4355  -46.6215 N.am      12 UNK        -0.5000 
     70 CA         -3.6784  -22.7199  -46.6652 C.3       12 UNK         0.1400 
     71 CB         -4.4552  -21.6051  -45.9512 C.3       12 UNK        -0.1800 
     72 C          -4.0158  -24.0953  -46.0661 C.2       12 UNK         0.5000 
     73 O          -4.8129  -24.8243  -46.6545 O.2       12 UNK        -0.5000 
     74 N          -3.3764  -24.4534  -44.9421 N.am      13 UNK        -0.5000 
     75 CA         -3.5010  -25.7632  -44.2925 C.3       13 UNK         0.1400 
     76 CB         -2.7884  -25.7380  -42.9322 C.3       13 UNK        -0.1800 
     77 C          -2.9707  -26.9180  -45.1637 C.2       13 UNK         0.5000 
     78 O          -3.5465  -28.0062  -45.1505 O.2       13 UNK        -0.5000 
     79 N          -1.9160  -26.6432  -45.9428 N.am      14 UNK        -0.5000 
     80 CA         -1.3674  -27.5328  -46.9684 C.3       14 UNK         0.1400 
     81 CB          0.0473  -27.0502  -47.3284 C.3       14 UNK        -0.1800 
     82 C          -2.2422  -27.6279  -48.2384 C.2       14 UNK         0.5000 
     83 O          -1.9565  -28.4637  -49.0963 O.2       14 UNK        -0.5000 
     84 N          -3.2650  -26.7647  -48.3500 N.am      15 UNK        -0.5000 
     85 CA         -4.1931  -26.5951  -49.4748 C.3       15 UNK         0.1400 
     86 CB         -5.0202  -27.8747  -49.7156 C.3       15 UNK        -0.1800 
     87 C          -3.5220  -26.0654  -50.7592 C.2       15 UNK         0.5000 
     88 O          -4.0986  -26.1797  -51.8417 O.2       15 UNK        -0.5000 
     89 N          -2.3284  -25.4751  -50.6200 N.am      16 UNK        -0.5000 
     90 CA         -1.5825  -24.8450  -51.7037 C.3       16 UNK         0.1400 
     91 CB         -0.0832  -24.8810  -51.3776 C.3       16 UNK        -0.1800 
     92 C          -2.0869  -23.4150  -51.9494 C.2       16 UNK         0.5000 
     93 O          -2.3243  -23.0486  -53.0995 O.2       16 UNK        -0.5000 
     94 N          -2.3212  -22.6606  -50.8660 N.am      17 UNK        -0.5000 
     95 CA         -2.9551  -21.3401  -50.8936 C.3       17 UNK         0.1400 
     96 CB         -2.2996  -20.4060  -49.8631 C.3       17 UNK        -0.1800 
     97 C          -4.4786  -21.4588  -50.7064 C.2       17 UNK         0.5000 
     98 O          -5.0655  -20.7575  -49.8803 O.2       17 UNK        -0.5000 
     99 N          -5.0984  -22.3469  -51.4928 N.am      18 UNK        -0.5000 
    100 CA        -6.5426  -22.3788  -51.7175 C.3       18 UNK         0.1400 
    101 CB        -6.9229  -23.7542  -52.2887 C.3       18 UNK        -0.1800 
    102 C         -6.9610  -21.2287  -52.6591 C.2       18 UNK         0.5000 
    103 O         -6.0942  -20.5872  -53.2599 O.2       18 UNK        -0.5000 
    104 N         -8.2751  -20.9854  -52.7630 N.am      19 UNK        -0.5000 
    105 CA        -8.9128  -19.8904  -53.5063 C.3       19 UNK         0.1400 
    106 CB       -10.4375  -20.0899  -53.4691 C.3       19 UNK        -0.1800 
    107 C         -8.4033  -19.7299  -54.9556 C.2       19 UNK         0.5000 
    108 O         -8.8212  -20.4785  -55.8410 O.2       19 UNK        -0.5000 
    109 N         -7.4780  -18.7754  -55.1400 N.am      20 UNK        -0.5000 
    110 CA        -6.7538  -18.4355  -56.3719 C.3       20 UNK         0.1400 
    111 CB        -7.7257  -17.8997  -57.4440 C.3       20 UNK        -0.1800 
    112 C         -5.8404  -19.5588  -56.9175 C.2       20 UNK         0.5000 
    113 O         -5.4108  -19.4800  -58.0698 O.2       20 UNK        -0.5000 
    114 N         -5.5394  -20.5762  -56.0984 N.am      21 UNK        -0.5000 
    115 CA        -4.7710  -21.7564  -56.4989 C.3       21 UNK         0.1400 
    116 CB        -5.0465  -22.9012  -55.5151 C.3       21 UNK        -0.1800 
    117 C         -3.2610  -21.4868  -56.6042 C.2       21 UNK         0.5000 
    118 O         -2.6034  -22.0772  -57.4624 O.2       21 UNK        -0.5000 
    119 N         -2.7430  -20.5985  -55.7467 N.am      22 UNK        -0.5000 
    120 CA        -1.3281  -20.1941  -55.7217 C.3       22 UNK         0.1400 
    121 C         -0.9646  -19.0386  -56.7027 C.2       22 UNK         0.5000 
    122 N         -1.8952  -18.5144  -57.4922 N.am      22 UNK        -0.7600 
    123 O          0.1889  -18.6216  -56.7642 O.2       22 UNK        -0.5000 
    124 C124       -0.8231  -19.9488  -54.2766 C.3       23 UNK        -0.0398 
    125 S125       -1.6223  -18.5493  -53.4105 S.3       23 UNK        -0.2404 
    126 C126       -0.1885  -17.4771  -53.0557 C.3       23 UNK        -0.0205 
    127 H127       -2.6041  -11.2681  -50.0923 H         1 UNK         0.0600 
    128 H128       -1.5942  -10.9282  -51.5001 H         1 UNK         0.0600 
    129 H129       -1.9749   -9.6388  -50.3535 H         1 UNK         0.0600 
    130 H130       -1.4923  -12.3797  -48.5115 H         1 UNK         0.3000 
    131 H131        1.3584  -12.5963  -48.4600 H         1 UNK         0.0600 
    132 H132        1.0088  -14.0483  -46.4810 H         1 UNK         0.0800 
    133 H133       -0.6501  -13.5276  -46.3519 H         1 UNK         0.0800 
    134 H134        1.4838  -16.3692  -47.4508 H         1 UNK         0.0800 
    135 H135        1.9686  -15.2501  -48.7071 H         1 UNK         0.0800 
    136 H136        0.0566  -15.8270  -50.9078 H         1 UNK         0.1150 
    137 H137        1.0651  -19.7817  -52.2170 H         1 UNK         0.1150 
    138 H138        2.1503  -18.4968  -48.2848 H         1 UNK         0.1150 
    139 H139        3.0739  -20.5618  -49.1901 H         1 UNK         0.0800 
    140 H140        2.8920  -20.9124  -50.8868 H         1 UNK         0.0800 
    141 H141       -0.0916  -20.6819  -47.9308 H         1 UNK         0.0800 
    142 H142        1.5335  -21.0746  -47.4609 H         1 UNK         0.0800 
    143 H143        0.7481  -23.5755  -47.3924 H         1 UNK         0.0600 
    144 H144        0.7081  -21.5719  -45.3911 H         1 UNK         0.3000 
    145 H145        0.2275  -23.8038  -42.6217 H         1 UNK         0.0600 
    146 H146        2.6445  -23.8030  -43.2586 H         1 UNK         0.0600 
    147 H147        2.3174  -22.6456  -41.9769 H         1 UNK         0.0600 
    148 H148        2.5570  -22.0848  -43.6294 H         1 UNK         0.0600 
    149 H149        0.5209  -20.9787  -42.7047 H         1 UNK         0.3000 
    150 H150       -2.9895  -20.1919  -42.9023 H         1 UNK         0.0600 
    151 H151       -0.8313  -19.8632  -40.7506 H         1 UNK         0.0600 
    152 H152       -2.3792  -20.6689  -40.5186 H         1 UNK         0.0600 
    153 H153       -2.3319  -18.9484  -40.8726 H         1 UNK         0.0600 
    154 H154       -0.7865  -18.4477  -42.8094 H         1 UNK         0.3000 
    155 H155       -0.2352  -18.1246  -46.3541 H         1 UNK         0.0600 
    156 H156       -0.4165  -15.7665  -45.3199 H         1 UNK         0.0600 
    157 H157       -1.4345  -16.4620  -44.0740 H         1 UNK         0.0600 
    158 H158       -1.9415  -16.5272  -45.7527 H         1 UNK         0.0600 
    159 H159        1.2427  -17.0038  -44.2621 H         1 UNK         0.3000 
    160 H160        3.6062  -19.6424  -43.6929 H         1 UNK         0.0600 
    161 H161        3.7519  -16.8808  -45.0121 H         1 UNK         0.0600 
    162 H162        4.4428  -18.3718  -45.6277 H         1 UNK         0.0600 
    163 H163        5.0813  -17.6607  -44.1529 H         1 UNK         0.0600 
    164 H164        3.1447  -17.0377  -42.5426 H         1 UNK         0.3000 
    165 H165        1.1300  -18.1544  -39.8190 H         1 UNK         0.0600 
    166 H166        2.9449  -17.0322  -38.5570 H         1 UNK         0.0600 
    167 H167        3.4925  -18.5970  -39.1370 H         1 UNK         0.0600 
    168 H168        4.0187  -17.1294  -39.9527 H         1 UNK         0.0600 
    169 H169        2.1739  -15.5920  -40.5855 H         1 UNK         0.3000 
    170 H170       -0.5020  -14.6259  -42.7121 H         1 UNK         0.0600 
    171 H171       -0.7659  -12.7981  -41.0661 H         1 UNK         0.0600 
    172 H172        0.1001  -13.7293  -39.8439 H         1 UNK         0.0600 
    173 H173       -1.4652  -14.2798  -40.4316 H         1 UNK         0.0600 
    174 H174        1.6774  -13.1313  -41.6794 H         1 UNK         0.3000 
    175 H175        4.1081  -13.5595  -42.7617 H         1 UNK         0.0600 
    176 H176        4.4866  -14.6677  -44.8940 H         1 UNK         0.0600 
    177 H177        3.3821  -13.5876  -45.7321 H         1 UNK         0.0600 
    178 H178        4.9010  -12.9751  -45.0813 H         1 UNK         0.0600 
    179 H179        2.8610  -11.4810  -44.4017 H         1 UNK         0.3000 
    180 H180        1.8911   -9.4421  -41.7265 H         1 UNK         0.0600 
    181 H181        4.5829   -9.0416  -43.1392 H         1 UNK         0.0600 
    182 H182        4.3358   -9.0546  -41.3972 H         1 UNK         0.0600 
    183 H183        3.6191   -7.7801  -42.3692 H         1 UNK         0.0600 
    184 H184        2.5232   -8.8280  -44.4582 H         1 UNK         0.3000 
    185 H185       -0.7363   -8.7833  -45.4260 H         1 UNK         0.0600 
    186 H186        1.2687   -7.3003  -45.5968 H         1 UNK         0.0600 
    187 H187        2.1503   -8.5656  -46.4536 H         1 UNK         0.0600 
    188 H188        0.7237   -7.8366  -47.1742 H         1 UNK         0.0600 
    189 H189       -0.8681  -10.4565  -46.8771 H         1 UNK         0.3000 
    190 H190       -1.9509  -21.7001  -45.9838 H         1 UNK         0.3000 
    191 H191       -3.9907  -22.7276  -47.7118 H         1 UNK         0.0600 
    192 H192       -4.2897  -20.6422  -46.4349 H         1 UNK         0.0600 
    193 H193       -5.5282  -21.7994  -45.9741 H         1 UNK         0.0600 
    194 H194       -4.1582  -21.5110  -44.9063 H         1 UNK         0.0600 
    195 H195       -2.7763  -23.7757  -44.4791 H         1 UNK         0.3000 
    196 H196       -4.5628  -25.9461  -44.1152 H         1 UNK         0.0600 
    197 H197       -2.8773  -26.6998  -42.4257 H         1 UNK         0.0600 
    198 H198       -3.2215  -24.9840  -42.2749 H         1 UNK         0.0600 
    199 H199       -1.7257  -25.5190  -43.0381 H         1 UNK         0.0600 
    200 H200       -1.4504  -25.7492  -45.8241 H         1 UNK         0.3000 
    201 H201       -1.2901  -28.5378  -46.5488 H         1 UNK         0.0600 
    202 H202        0.5171  -27.7147  -48.0545 H         1 UNK         0.0600 
    203 H203        0.6912  -27.0245  -46.4490 H         1 UNK         0.0600 
    204 H204        0.0331  -26.0497  -47.7614 H         1 UNK         0.0600 
    205 H205       -3.4220  -26.1238  -47.5817 H         1 UNK         0.3000 
    206 H206       -4.8901  -25.8140  -49.1694 H         1 UNK         0.0600 
    207 H207       -5.4833  -28.2236  -48.7926 H         1 UNK         0.0600 
    208 H208       -5.8232  -27.6920  -50.4306 H         1 UNK         0.0600 
    209 H209       -4.4095  -28.6853  -50.1137 H         1 UNK         0.0600 
    210 H210       -1.9616  -25.3478  -49.6838 H         1 UNK         0.3000 
    211 H211       -1.7343  -25.4113  -52.6253 H         1 UNK         0.0600 
    212 H212        0.1197  -24.4972  -50.3788 H         1 UNK         0.0600 
    213 H213        0.4927  -24.2869  -52.0884 H         1 UNK         0.0600 
    214 H214        0.2985  -25.9011  -51.4187 H         1 UNK         0.0600 
    215 H215       -2.1261  -23.0561  -49.9521 H         1 UNK         0.3000 
    216 H216       -2.8031  -20.8830  -51.8728 H         1 UNK         0.0600 
    217 H217       -2.7340  -19.4069  -49.9122 H         1 UNK         0.0600 
    218 H218       -1.2357  -20.2918  -50.0608 H         1 UNK         0.0600 
    219 H219       -2.4284  -20.7663  -48.8442 H         1 UNK         0.0600 
    220 H220       -4.5322  -22.8509  -52.1611 H         1 UNK         0.3000 
    221 H221       -7.0567  -22.2435  -50.7637 H         1 UNK         0.0600 
    222 H222       -6.4125  -23.9615  -53.2282 H         1 UNK         0.0600 
    223 H223       -6.6627  -24.5511  -51.5915 H         1 UNK         0.0600 
    224 H224       -7.9951  -23.8257  -52.4739 H         1 UNK         0.0600 
    225 H225       -8.9079  -21.5835  -52.2522 H         1 UNK         0.3000 
    226 H226       -8.6922  -18.9671  -52.9671 H         1 UNK         0.0600 
    227 H227      -10.8140  -20.0733  -52.4462 H         1 UNK         0.0600 
    228 H228      -10.7310  -21.0391  -53.9194 H         1 UNK         0.0600 
    229 H229      -10.9490  -19.2958  -54.0147 H         1 UNK         0.0600 
    230 H230       -7.1711  -18.2687  -54.3210 H         1 UNK         0.3000 
    231 H231       -6.0826  -17.6183  -56.1043 H         1 UNK         0.0600 
    232 H232       -8.3857  -18.6820  -57.8198 H         1 UNK         0.0600 
    233 H233       -7.1834  -17.4934  -58.2985 H         1 UNK         0.0600 
    234 H234       -8.3477  -17.0974  -57.0473 H         1 UNK         0.0600 
    235 H235       -5.8760  -20.5513  -55.1391 H         1 UNK         0.3000 
    236 H236       -5.1196  -22.0739  -57.4841 H         1 UNK         0.0600 
    237 H237       -4.7116  -22.6513  -54.5084 H         1 UNK         0.0600 
    238 H238       -6.1107  -23.1332  -55.4733 H         1 UNK         0.0600 
    239 H239       -4.5247  -23.8105  -55.8159 H         1 UNK         0.0600 
    240 H240       -3.3504  -20.1482  -55.0776 H         1 UNK         0.3000 
    241 H241       -0.7446  -21.0417  -56.0862 H         1 UNK         0.0600 
    242 H242       -1.6453  -17.7732  -58.1279 H         1 UNK         0.3800 
    243 H243       -2.8395  -18.8671  -57.4790 H         1 UNK         0.3800 
    244 H244        0.2577  -19.8092  -54.2976 H         1 UNK         0.0800 
    245 H245       -0.9820  -20.8447  -53.6771 H         1 UNK         0.0800 
    246 H246        0.5551  -17.5578  -53.8496 H         1 UNK         0.0800 
    247 H247       -0.5353  -16.4430  -53.0809 H         1 UNK         0.0800 
@<TRIPOS>BOND
     1    1    2 1    
     2    1  127 1    
     3    1  128 1    
     4    1  129 1    
     5    2    3 2    
     6    2    4 am   BACKBONE|DICT|INTERRES
     7    4    5 1    
     8    4  130 1    
     9    5    6 1    
    10    5   65 1    
    11    5  131 1    
    12    6    7 1    
    13    6  132 1    
    14    6  133 1    
    15    7    8 1    
    16    8    9 1    
    17    8  134 1    
    18    8  135 1    
    19    9   10 ar   
    20    9   14 ar   
    21   10   11 ar   
    22   10  136 1    
    23   11   12 ar   
    24   11  126 1    
    25   12   13 ar   
    26   12  137 1    
    27   13   14 ar   
    28   13   15 1    
    29   14  138 1    
    30   15   16 1    
    31   15  139 1    
    32   15  140 1    
    33   16   17 1    
    34   17   18 1    
    35   17  141 1    
    36   17  142 1    
    37   18   19 1    
    38   18   67 1    
    39   18  143 1    
    40   19   20 am   BACKBONE|DICT|INTERRES
    41   19  144 1    
    42   20   21 2    
    43   20   22 1    
    44   22   23 1    
    45   22   24 1    
    46   22  145 1    
    47   23  146 1    
    48   23  147 1    
    49   23  148 1    
    50   24   25 am   BACKBONE|DICT|INTERRES
    51   24  149 1    
    52   25   26 2    
    53   25   27 1    
    54   27   28 1    
    55   27   29 1    
    56   27  150 1    
    57   28  151 1    
    58   28  152 1    
    59   28  153 1    
    60   29   30 am   BACKBONE|DICT|INTERRES
    61   29  154 1    
    62   30   31 2    
    63   30   32 1    
    64   32   33 1    
    65   32   34 1    
    66   32  155 1    
    67   33  156 1    
    68   33  157 1    
    69   33  158 1    
    70   34   35 am   BACKBONE|DICT|INTERRES
    71   34  159 1    
    72   35   36 2    
    73   35   37 1    
    74   37   38 1    
    75   37   39 1    
    76   37  160 1    
    77   38  161 1    
    78   38  162 1    
    79   38  163 1    
    80   39   40 am   BACKBONE|DICT|INTERRES
    81   39  164 1    
    82   40   41 2    
    83   40   42 1    
    84   42   43 1    
    85   42   44 1    
    86   42  165 1    
    87   43  166 1    
    88   43  167 1    
    89   43  168 1    
    90   44   45 am   BACKBONE|DICT|INTERRES
    91   44  169 1    
    92   45   46 2    
    93   45   47 1    
    94   47   48 1    
    95   47   49 1    
    96   47  170 1    
    97   48  171 1    
    98   48  172 1    
    99   48  173 1    
   100   49   50 am   BACKBONE|DICT|INTERRES
   101   49  174 1    
   102   50   51 2    
   103   50   52 1    
   104   52   53 1    
   105   52   54 1    
   106   52  175 1    
   107   53  176 1    
   108   53  177 1    
   109   53  178 1    
   110   54   55 am   BACKBONE|DICT|INTERRES
   111   54  179 1    
   112   55   56 2    
   113   55   57 1    
   114   57   58 1    
   115   57   59 1    
   116   57  180 1    
   117   58  181 1    
   118   58  182 1    
   119   58  183 1    
   120   59   60 am   BACKBONE|DICT|INTERRES
   121   59  184 1    
   122   60   61 2    
   123   60   62 1    
   124   62   63 1    
   125   62   64 1    
   126   62  185 1    
   127   63  186 1    
   128   63  187 1    
   129   63  188 1    
   130   64   65 am   BACKBONE|DICT|INTERRES
   131   64  189 1    
   132   65   66 2    
   133   67   68 2    
   134   67   69 am   BACKBONE|DICT|INTERRES
   135   69   70 1    
   136   69  190 1    
   137   70   71 1    
   138   70   72 1    
   139   70  191 1    
   140   71  192 1    
   141   71  193 1    
   142   71  194 1    
   143   72   73 2    
   144   72   74 am   BACKBONE|DICT|INTERRES
   145   74   75 1    
   146   74  195 1    
   147   75   76 1    
   148   75   77 1    
   149   75  196 1    
   150   76  197 1    
   151   76  198 1    
   152   76  199 1    
   153   77   78 2    
   154   77   79 am   BACKBONE|DICT|INTERRES
   155   79   80 1    
   156   79  200 1    
   157   80   81 1    
   158   80   82 1    
   159   80  201 1    
   160   81  202 1    
   161   81  203 1    
   162   81  204 1    
   163   82   83 2    
   164   82   84 am   BACKBONE|DICT|INTERRES
   165   84   85 1    
   166   84  205 1    
   167   85   86 1    
   168   85   87 1    
   169   85  206 1    
   170   86  207 1    
   171   86  208 1    
   172   86  209 1    
   173   87   88 2    
   174   87   89 am   BACKBONE|DICT|INTERRES
   175   89   90 1    
   176   89  210 1    
   177   90   91 1    
   178   90   92 1    
   179   90  211 1    
   180   91  212 1    
   181   91  213 1    
   182   91  214 1    
   183   92   93 2    
   184   92   94 am   BACKBONE|DICT|INTERRES
   185   94   95 1    
   186   94  215 1    
   187   95   96 1    
   188   95   97 1    
   189   95  216 1    
   190   96  217 1    
   191   96  218 1    
   192   96  219 1    
   193   97   98 2    
   194   97   99 am   BACKBONE|DICT|INTERRES
   195   99  100 1    
   196   99  220 1    
   197  100  101 1    
   198  100  102 1    
   199  100  221 1    
   200  101  222 1    
   201  101  223 1    
   202  101  224 1    
   203  102  103 2    
   204  102  104 am   BACKBONE|DICT|INTERRES
   205  104  105 1    
   206  104  225 1    
   207  105  106 1    
   208  105  107 1    
   209  105  226 1    
   210  106  227 1    
   211  106  228 1    
   212  106  229 1    
   213  107  108 2    
   214  107  109 am   BACKBONE|DICT|INTERRES
   215  109  110 1    
   216  109  230 1    
   217  110  111 1    
   218  110  112 1    
   219  110  231 1    
   220  111  232 1    
   221  111  233 1    
   222  111  234 1    
   223  112  113 2    
   224  112  114 am   BACKBONE|DICT|INTERRES
   225  114  115 1    
   226  114  235 1    
   227  115  116 1    
   228  115  117 1    
   229  115  236 1    
   230  116  237 1    
   231  116  238 1    
   232  116  239 1    
   233  117  118 2    
   234  117  119 am   BACKBONE|DICT|INTERRES
   235  119  120 1    
   236  119  240 1    
   237  120  121 1    
   238  120  124 1    
   239  120  241 1    
   240  121  122 am   BACKBONE|DICT|INTERRES
   241  121  123 2    
   242  122  242 1    
   243  122  243 1    
   244  124  125 1    
   245  124  244 1    
   246  124  245 1    
   247  125  126 1    
   248  126  246 1    
   249  126  247 1    
@<TRIPOS>SUBSTRUCTURE
     1 UNK         1 GROUP             0       ****    0 ROOT    
