@<TRIPOS>MOLECULE
3R540
247   249    1
SMALL
USER_CHARGES


@<TRIPOS>ATOM
      1 CA         -2.0387  -10.6850  -49.3288 C.3       0 UNK        -0.1800 
      2 C          -1.7498  -11.9549  -48.5430 C.2       0 UNK         0.5000 
      3 O          -1.0089  -11.9148  -47.5624 O.2       0 UNK        -0.5000 
      4 N          -2.3448  -13.0835  -48.9490 N.am      1 UNK        -0.5000 
      5 CA         -2.1637  -14.3996  -48.3196 C.3       1 UNK         0.1400 
      6 C6         -2.7589  -15.5259  -49.2017 C.3       23 UNK        -0.0398 
      7 S7         -1.8058  -17.0750  -49.1188 S.3       23 UNK        -0.2404 
      8 C8         -0.4807  -16.7539  -50.3240 C.3       23 UNK        -0.0205 
      9 C9          0.2078  -18.0457  -50.7354 C.ar      23 UNK        -0.0193 
     10 C10        -0.1066  -18.6479  -51.9553 C.ar      23 UNK        -0.1150 
     11 C11         0.5099  -19.8412  -52.3380 C.ar      23 UNK        -0.0193 
     12 C12         1.4457  -20.4344  -51.4859 C.ar      23 UNK        -0.1150 
     13 C13         1.7689  -19.8494  -50.2537 C.ar      23 UNK        -0.0193 
     14 C14         1.1537  -18.6438  -49.8979 C.ar      23 UNK        -0.1150 
     15 C15         2.7864  -20.4632  -49.2892 C.3       23 UNK        -0.0205 
     16 S16         3.1627  -22.2319  -49.5399 S.3       23 UNK        -0.2404 
     17 C17         1.6446  -23.0424  -48.9314 C.3       23 UNK        -0.0398 
     18 CA          1.9642  -24.0652  -47.8136 C.3       11 UNK         0.1400 
     19 N           2.3682  -23.4373  -46.5507 N.am      11 UNK        -0.5000 
     20 C           3.1601  -24.0267  -45.6413 C.2       10 UNK         0.5000 
     21 O           3.7040  -25.1175  -45.8190 O.2       10 UNK        -0.5000 
     22 CA          3.3840  -23.2972  -44.3003 C.3       10 UNK         0.1400 
     23 CB          4.6586  -22.4420  -44.3563 C.3       10 UNK        -0.1800 
     24 N           2.2597  -22.4535  -43.9011 N.am      10 UNK        -0.5000 
     25 C           1.0477  -22.9014  -43.5450 C.2       9 UNK         0.5000 
     26 O           0.7645  -24.0938  -43.4321 O.2       9 UNK        -0.5000 
     27 CA         -0.0409  -21.8367  -43.3041 C.3       9 UNK         0.1400 
     28 CB         -0.1512  -21.5059  -41.8094 C.3       9 UNK        -0.1800 
     29 N           0.1579  -20.6014  -44.0652 N.am      9 UNK        -0.5000 
     30 C           0.2555  -20.5035  -45.3999 C.2       8 UNK         0.5000 
     31 O           0.1844  -21.4618  -46.1709 O.2       8 UNK        -0.5000 
     32 CA          0.5625  -19.1028  -45.9500 C.3       8 UNK         0.1400 
     33 CB         -0.7033  -18.2402  -46.0066 C.3       8 UNK        -0.1800 
     34 N           1.5884  -18.4349  -45.1471 N.am      8 UNK        -0.5000 
     35 C           2.8988  -18.7132  -45.2198 C.2       7 UNK         0.5000 
     36 O           3.3830  -19.4847  -46.0450 O.2       7 UNK        -0.5000 
     37 CA          3.8273  -18.0544  -44.1821 C.3       7 UNK         0.1400 
     38 CB          4.4794  -16.7855  -44.7487 C.3       7 UNK        -0.1800 
     39 N           3.1369  -17.7356  -42.9325 N.am      7 UNK        -0.5000 
     40 C           2.7999  -18.6513  -42.0129 C.2       6 UNK         0.5000 
     41 O           3.0896  -19.8443  -42.1047 O.2       6 UNK        -0.5000 
     42 CA          1.9625  -18.1647  -40.8127 C.3       6 UNK         0.1400 
     43 CB          2.8780  -17.7313  -39.6586 C.3       6 UNK        -0.1800 
     44 N           1.0518  -17.0658  -41.1424 N.am      6 UNK        -0.5000 
     45 C           0.0687  -17.1258  -42.0509 C.2       5 UNK         0.5000 
     46 O          -0.2016  -18.1444  -42.6844 O.2       5 UNK        -0.5000 
     47 CA         -0.7173  -15.8319  -42.3365 C.3       5 UNK         0.1400 
     48 CB         -0.7722  -14.8750  -41.1265 C.3       5 UNK        -0.1800 
     49 N          -0.2313  -15.1108  -43.5180 N.am      5 UNK        -0.5000 
     50 C           1.0189  -14.6885  -43.7695 C.2       4 UNK         0.5000 
     51 O           2.0096  -15.0150  -43.1147 O.2       4 UNK        -0.5000 
     52 CA          1.1800  -13.6717  -44.9162 C.3       4 UNK         0.1400 
     53 CB          1.3107  -14.3797  -46.2741 C.3       4 UNK        -0.1800 
     54 N           0.0760  -12.7090  -44.9654 N.am      4 UNK        -0.5000 
     55 C          -0.2287  -11.8304  -43.9966 C.2       3 UNK         0.5000 
     56 O           0.4477  -11.6684  -42.9804 O.2       3 UNK        -0.5000 
     57 CA         -1.5192  -11.0111  -44.1781 C.3       3 UNK         0.1400 
     58 CB         -1.2377   -9.6959  -44.9215 C.3       3 UNK        -0.1800 
     59 N          -2.5479  -11.7698  -44.8913 N.am      3 UNK        -0.5000 
     60 C          -3.3543  -12.6749  -44.3171 C.2       2 UNK         0.5000 
     61 O          -3.3647  -12.9112  -43.1092 O.2       2 UNK        -0.5000 
     62 CA         -4.3000  -13.4626  -45.2467 C.3       2 UNK         0.1400 
     63 CB         -5.6571  -12.7523  -45.3618 C.3       2 UNK        -0.1800 
     64 N          -3.7498  -13.6651  -46.5883 N.am      2 UNK        -0.5000 
     65 C          -2.6926  -14.4423  -46.8652 C.2       1 UNK         0.5000 
     66 O          -2.1059  -15.1087  -46.0119 O.2       1 UNK        -0.5000 
     67 C           0.7904  -25.0320  -47.5682 C.2       11 UNK         0.5000 
     68 O           0.8537  -26.1807  -48.0083 O.2       11 UNK        -0.5000 
     69 N          -0.2277  -24.5745  -46.8299 N.am      12 UNK        -0.5000 
     70 CA         -1.3348  -25.3803  -46.3206 C.3       12 UNK         0.1400 
     71 CB         -2.3014  -25.8003  -47.4432 C.3       12 UNK        -0.1800 
     72 C          -2.0668  -24.5512  -45.2634 C.2       12 UNK         0.5000 
     73 O          -2.2191  -23.3426  -45.4518 O.2       12 UNK        -0.5000 
     74 N          -2.5140  -25.2089  -44.1854 N.am      13 UNK        -0.5000 
     75 CA         -3.0866  -24.5923  -42.9821 C.3       13 UNK         0.1400 
     76 CB         -3.4431  -25.6953  -41.9746 C.3       13 UNK        -0.1800 
     77 C          -4.3033  -23.6808  -43.2315 C.2       13 UNK         0.5000 
     78 O          -4.4762  -22.6913  -42.5198 O.2       13 UNK        -0.5000 
     79 N          -5.0952  -23.9950  -44.2640 N.am      14 UNK        -0.5000 
     80 CA         -6.2466  -23.2187  -44.7282 C.3       14 UNK         0.1400 
     81 CB         -7.2028  -24.1690  -45.4730 C.3       14 UNK        -0.1800 
     82 C          -5.8314  -22.0033  -45.5898 C.2       14 UNK         0.5000 
     83 O          -6.4051  -21.7899  -46.6584 O.2       14 UNK        -0.5000 
     84 N          -4.8239  -21.2467  -45.1276 N.am      15 UNK        -0.5000 
     85 CA         -4.2173  -20.0690  -45.7629 C.3       15 UNK         0.1400 
     86 CB         -5.1533  -18.8502  -45.6380 C.3       15 UNK        -0.1800 
     87 C          -3.7776  -20.3434  -47.2161 C.2       15 UNK         0.5000 
     88 O          -4.2289  -19.6712  -48.1435 O.2       15 UNK        -0.5000 
     89 N          -2.9503  -21.3848  -47.3746 N.am      16 UNK        -0.5000 
     90 CA         -2.4182  -21.9381  -48.6241 C.3       16 UNK         0.1400 
     91 CB         -1.6549  -20.8808  -49.4415 C.3       16 UNK        -0.1800 
     92 C          -3.4475  -22.7082  -49.4774 C.2       16 UNK         0.5000 
     93 O          -3.0678  -23.2405  -50.5209 O.2       16 UNK        -0.5000 
     94 N          -4.7030  -22.8052  -49.0104 N.am      17 UNK        -0.5000 
     95 CA         -5.8443  -23.5799  -49.5212 C.3       17 UNK         0.1400 
     96 CB         -5.5458  -25.0903  -49.4820 C.3       17 UNK        -0.1800 
     97 C          -6.3753  -23.1537  -50.9048 C.2       17 UNK         0.5000 
     98 O          -7.5895  -23.0450  -51.0795 O.2       17 UNK        -0.5000 
     99 N          -5.4699  -22.9149  -51.8543 N.am      18 UNK        -0.5000 
    100 CA        -5.7336  -22.4785  -53.2193 C.3       18 UNK         0.1400 
    101 CB        -5.6935  -23.6930  -54.1651 C.3       18 UNK        -0.1800 
    102 C         -4.7076  -21.3948  -53.5782 C.2       18 UNK         0.5000 
    103 O         -3.9600  -21.5374  -54.5466 O.2       18 UNK        -0.5000 
    104 N         -4.6793  -20.3283  -52.7652 N.am      19 UNK        -0.5000 
    105 CA        -3.7252  -19.2158  -52.8352 C.3       19 UNK         0.1400 
    106 CB        -4.0687  -18.1931  -51.7438 C.3       19 UNK        -0.1800 
    107 C         -3.6475  -18.5160  -54.2066 C.2       19 UNK         0.5000 
    108 O         -2.5749  -18.0510  -54.5939 O.2       19 UNK        -0.5000 
    109 N         -4.7747  -18.4983  -54.9323 N.am      20 UNK        -0.5000 
    110 CA        -4.9150  -17.9575  -56.2854 C.3       20 UNK         0.1400 
    111 CB        -6.3872  -18.0609  -56.7112 C.3       20 UNK        -0.1800 
    112 C         -4.0044  -18.6271  -57.3346 C.2       20 UNK         0.5000 
    113 O         -3.6593  -17.9799  -58.3244 O.2       20 UNK        -0.5000 
    114 N         -3.5896  -19.8813  -57.0927 N.am      21 UNK        -0.5000 
    115 CA        -2.6500  -20.6252  -57.9379 C.3       21 UNK         0.1400 
    116 CB        -2.5703  -22.0796  -57.4499 C.3       21 UNK        -0.1800 
    117 C         -1.2407  -20.0000  -57.9912 C.2       21 UNK         0.5000 
    118 O         -0.5215  -20.2215  -58.9664 O.2       21 UNK        -0.5000 
    119 N         -0.8849  -19.2195  -56.9631 N.am      22 UNK        -0.5000 
    120 CA         0.3560  -18.4345  -56.8864 C.3       22 UNK         0.1400 
    121 C          0.1950  -16.9770  -57.4143 C.2       22 UNK         0.5000 
    122 N         -0.9544  -16.5710  -57.9438 N.am      22 UNK        -0.7600 
    123 O          1.1417  -16.1964  -57.3629 O.2       22 UNK        -0.5000 
    124 C124        0.9595  -18.4655  -55.4586 C.3       23 UNK        -0.0398 
    125 S125        1.4099  -20.1582  -54.9382 S.3       23 UNK        -0.2404 
    126 C126        0.1603  -20.5045  -53.6621 C.3       23 UNK        -0.0205 
    127 H127       -2.4789   -9.9324  -48.6747 H         1 UNK         0.0600 
    128 H128       -2.7281  -10.8661  -50.1536 H         1 UNK         0.0600 
    129 H129       -1.1133  -10.2816  -49.7396 H         1 UNK         0.0600 
    130 H130       -2.9511  -13.0558  -49.7566 H         1 UNK         0.3000 
    131 H131       -1.0839  -14.5493  -48.2615 H         1 UNK         0.0600 
    132 H132       -3.7959  -15.7385  -48.9352 H         1 UNK         0.0800 
    133 H133       -2.7912  -15.2218  -50.2487 H         1 UNK         0.0800 
    134 H134       -0.8916  -16.2555  -51.2032 H         1 UNK         0.0800 
    135 H135        0.2470  -16.0671  -49.8897 H         1 UNK         0.0800 
    136 H136       -0.8326  -18.1842  -52.6063 H         1 UNK         0.1150 
    137 H137        1.9191  -21.3536  -51.7976 H         1 UNK         0.1150 
    138 H138        1.4013  -18.1694  -48.9592 H         1 UNK         0.1150 
    139 H139        3.7163  -19.8989  -49.3671 H         1 UNK         0.0800 
    140 H140        2.4374  -20.3424  -48.2656 H         1 UNK         0.0800 
    141 H141        1.1812  -23.5362  -49.7875 H         1 UNK         0.0800 
    142 H142        0.9276  -22.2962  -48.5877 H         1 UNK         0.0800 
    143 H143        2.7939  -24.6788  -48.1729 H         1 UNK         0.0600 
    144 H144        1.9141  -22.5615  -46.3194 H         1 UNK         0.3000 
    145 H145        3.5194  -24.0581  -43.5289 H         1 UNK         0.0600 
    146 H146        4.8419  -21.9407  -43.4055 H         1 UNK         0.0600 
    147 H147        5.5317  -23.0585  -44.5736 H         1 UNK         0.0600 
    148 H148        4.5970  -21.6789  -45.1322 H         1 UNK         0.0600 
    149 H149        2.4118  -21.4547  -43.9183 H         1 UNK         0.3000 
    150 H150       -0.9958  -22.2522  -43.6146 H         1 UNK         0.0600 
    151 H151       -0.4045  -22.3962  -41.2325 H         1 UNK         0.0600 
    152 H152       -0.9291  -20.7652  -41.6226 H         1 UNK         0.0600 
    153 H153        0.7871  -21.1184  -41.4148 H         1 UNK         0.0600 
    154 H154        0.1787  -19.7409  -43.5227 H         1 UNK         0.3000 
    155 H155        0.9282  -19.2167  -46.9694 H         1 UNK         0.0600 
    156 H156       -0.4797  -17.2469  -46.3925 H         1 UNK         0.0600 
    157 H157       -1.1784  -18.1208  -45.0343 H         1 UNK         0.0600 
    158 H158       -1.4388  -18.6876  -46.6734 H         1 UNK         0.0600 
    159 H159        1.2585  -17.8403  -44.3999 H         1 UNK         0.3000 
    160 H160        4.6258  -18.7672  -43.9640 H         1 UNK         0.0600 
    161 H161        3.7437  -16.0103  -44.9540 H         1 UNK         0.0600 
    162 H162        5.0039  -16.9976  -45.6813 H         1 UNK         0.0600 
    163 H163        5.2094  -16.3747  -44.0512 H         1 UNK         0.0600 
    164 H164        2.8358  -16.7727  -42.8067 H         1 UNK         0.3000 
    165 H165        1.3558  -19.0041  -40.4691 H         1 UNK         0.0600 
    166 H166        2.2992  -17.4653  -38.7739 H         1 UNK         0.0600 
    167 H167        3.5544  -18.5381  -39.3727 H         1 UNK         0.0600 
    168 H168        3.4898  -16.8707  -39.9322 H         1 UNK         0.0600 
    169 H169        1.2390  -16.1767  -40.7022 H         1 UNK         0.3000 
    170 H170       -1.7402  -16.1378  -42.5613 H         1 UNK         0.0600 
    171 H171       -1.1278  -15.3887  -40.2324 H         1 UNK         0.0600 
    172 H172        0.2009  -14.4389  -40.8978 H         1 UNK         0.0600 
    173 H173       -1.4595  -14.0507  -41.3180 H         1 UNK         0.0600 
    174 H174       -0.9467  -14.8516  -44.1881 H         1 UNK         0.3000 
    175 H175        2.0983  -13.1090  -44.7367 H         1 UNK         0.0600 
    176 H176        2.2057  -14.9991  -46.3108 H         1 UNK         0.0600 
    177 H177        0.4623  -15.0309  -46.4756 H         1 UNK         0.0600 
    178 H178        1.3824  -13.6606  -47.0904 H         1 UNK         0.0600 
    179 H179       -0.4857  -12.7020  -45.8099 H         1 UNK         0.3000 
    180 H180       -1.8935  -10.7566  -43.1840 H         1 UNK         0.0600 
    181 H181       -2.1447   -9.1006  -45.0266 H         1 UNK         0.0600 
    182 H182       -0.8321   -9.8682  -45.9184 H         1 UNK         0.0600 
    183 H183       -0.5131   -9.0903  -44.3759 H         1 UNK         0.0600 
    184 H184       -2.5630  -11.6692  -45.8965 H         1 UNK         0.3000 
    185 H185       -4.4649  -14.4436  -44.7956 H         1 UNK         0.0600 
    186 H186       -5.5600  -11.7699  -45.8257 H         1 UNK         0.0600 
    187 H187       -6.3595  -13.3373  -45.9557 H         1 UNK         0.0600 
    188 H188       -6.1065  -12.6079  -44.3783 H         1 UNK         0.0600 
    189 H189       -4.1682  -13.1337  -47.3379 H         1 UNK         0.3000 
    190 H190       -0.2129  -23.6176  -46.4882 H         1 UNK         0.3000 
    191 H191       -0.9205  -26.2720  -45.8457 H         1 UNK         0.0600 
    192 H192       -3.1216  -26.3992  -47.0459 H         1 UNK         0.0600 
    193 H193       -1.8052  -26.4028  -48.2034 H         1 UNK         0.0600 
    194 H194       -2.7410  -24.9372  -47.9370 H         1 UNK         0.0600 
    195 H195       -2.3589  -26.2054  -44.1329 H         1 UNK         0.3000 
    196 H196       -2.3072  -23.9717  -42.5366 H         1 UNK         0.0600 
    197 H197       -4.1883  -26.3823  -42.3775 H         1 UNK         0.0600 
    198 H198       -2.5634  -26.2769  -41.6979 H         1 UNK         0.0600 
    199 H199       -3.8505  -25.2704  -41.0561 H         1 UNK         0.0600 
    200 H200       -4.8479  -24.8029  -44.8158 H         1 UNK         0.3000 
    201 H201       -6.7794  -22.8253  -43.8601 H         1 UNK         0.0600 
    202 H202       -6.7388  -24.5869  -46.3673 H         1 UNK         0.0600 
    203 H203       -8.1105  -23.6503  -45.7841 H         1 UNK         0.0600 
    204 H204       -7.5098  -24.9985  -44.8357 H         1 UNK         0.0600 
    205 H205       -4.4196  -21.5269  -44.2411 H         1 UNK         0.3000 
    206 H206       -3.3085  -19.8467  -45.2014 H         1 UNK         0.0600 
    207 H207       -5.3982  -18.6468  -44.5957 H         1 UNK         0.0600 
    208 H208       -4.6806  -17.9534  -46.0416 H         1 UNK         0.0600 
    209 H209       -6.0879  -19.0014  -46.1792 H         1 UNK         0.0600 
    210 H210       -2.6849  -21.9152  -46.5458 H         1 UNK         0.3000 
    211 H211       -1.6851  -22.6813  -48.3122 H         1 UNK         0.0600 
    212 H212       -1.1076  -21.3448  -50.2621 H         1 UNK         0.0600 
    213 H213       -0.9281  -20.3568  -48.8214 H         1 UNK         0.0600 
    214 H214       -2.3205  -20.1378  -49.8790 H         1 UNK         0.0600 
    215 H215       -4.9190  -22.2709  -48.1768 H         1 UNK         0.3000 
    216 H216       -6.6566  -23.3966  -48.8166 H         1 UNK         0.0600 
    217 H217       -6.4188  -25.6676  -49.7889 H         1 UNK         0.0600 
    218 H218       -4.7257  -25.3623  -50.1470 H         1 UNK         0.0600 
    219 H219       -5.2824  -25.4127  -48.4748 H         1 UNK         0.0600 
    220 H220       -4.4891  -23.0170  -51.5956 H         1 UNK         0.3000 
    221 H221       -6.7211  -22.0177  -53.2872 H         1 UNK         0.0600 
    222 H222       -6.4510  -24.4281  -53.8931 H         1 UNK         0.0600 
    223 H223       -4.7221  -24.1886  -54.1409 H         1 UNK         0.0600 
    224 H224       -5.8861  -23.3931  -55.1959 H         1 UNK         0.0600 
    225 H225       -5.3257  -20.3087  -51.9896 H         1 UNK         0.3000 
    226 H226       -2.7406  -19.6314  -52.6189 H         1 UNK         0.0600 
    227 H227       -5.0677  -17.7775  -51.8800 H         1 UNK         0.0600 
    228 H228       -4.0250  -18.6409  -50.7512 H         1 UNK         0.0600 
    229 H229       -3.3634  -17.3615  -51.7549 H         1 UNK         0.0600 
    230 H230       -5.5995  -18.9171  -54.5291 H         1 UNK         0.3000 
    231 H231       -4.6415  -16.9012  -56.2464 H         1 UNK         0.0600 
    232 H232       -6.7258  -19.0975  -56.7379 H         1 UNK         0.0600 
    233 H233       -6.5370  -17.6408  -57.7068 H         1 UNK         0.0600 
    234 H234       -7.0360  -17.5119  -56.0284 H         1 UNK         0.0600 
    235 H235       -3.8810  -20.3416  -56.2364 H         1 UNK         0.3000 
    236 H236       -3.0479  -20.6272  -58.9546 H         1 UNK         0.0600 
    237 H237       -1.9472  -22.6800  -58.1138 H         1 UNK         0.0600 
    238 H238       -2.1384  -22.1434  -56.4504 H         1 UNK         0.0600 
    239 H239       -3.5564  -22.5434  -57.4201 H         1 UNK         0.0600 
    240 H240       -1.5502  -19.0582  -56.2166 H         1 UNK         0.3000 
    241 H241        1.0960  -18.8880  -57.5483 H         1 UNK         0.0600 
    242 H242       -1.0297  -15.6262  -58.2860 H         1 UNK         0.3800 
    243 H243       -1.7479  -17.1946  -58.0272 H         1 UNK         0.3800 
    244 H244        0.2679  -18.0181  -54.7445 H         1 UNK         0.0800 
    245 H245        1.8698  -17.8656  -55.4125 H         1 UNK         0.0800 
    246 H246        0.0956  -21.5839  -53.5176 H         1 UNK         0.0800 
    247 H247       -0.8224  -20.1895  -54.0144 H         1 UNK         0.0800 
@<TRIPOS>BOND
     1    1    2 1    
     2    1  127 1    
     3    1  128 1    
     4    1  129 1    
     5    2    3 2    
     6    2    4 am   BACKBONE|DICT|INTERRES
     7    4    5 1    
     8    4  130 1    
     9    5    6 1    
    10    5   65 1    
    11    5  131 1    
    12    6    7 1    
    13    6  132 1    
    14    6  133 1    
    15    7    8 1    
    16    8    9 1    
    17    8  134 1    
    18    8  135 1    
    19    9   10 ar   
    20    9   14 ar   
    21   10   11 ar   
    22   10  136 1    
    23   11   12 ar   
    24   11  126 1    
    25   12   13 ar   
    26   12  137 1    
    27   13   14 ar   
    28   13   15 1    
    29   14  138 1    
    30   15   16 1    
    31   15  139 1    
    32   15  140 1    
    33   16   17 1    
    34   17   18 1    
    35   17  141 1    
    36   17  142 1    
    37   18   19 1    
    38   18   67 1    
    39   18  143 1    
    40   19   20 am   BACKBONE|DICT|INTERRES
    41   19  144 1    
    42   20   21 2    
    43   20   22 1    
    44   22   23 1    
    45   22   24 1    
    46   22  145 1    
    47   23  146 1    
    48   23  147 1    
    49   23  148 1    
    50   24   25 am   BACKBONE|DICT|INTERRES
    51   24  149 1    
    52   25   26 2    
    53   25   27 1    
    54   27   28 1    
    55   27   29 1    
    56   27  150 1    
    57   28  151 1    
    58   28  152 1    
    59   28  153 1    
    60   29   30 am   BACKBONE|DICT|INTERRES
    61   29  154 1    
    62   30   31 2    
    63   30   32 1    
    64   32   33 1    
    65   32   34 1    
    66   32  155 1    
    67   33  156 1    
    68   33  157 1    
    69   33  158 1    
    70   34   35 am   BACKBONE|DICT|INTERRES
    71   34  159 1    
    72   35   36 2    
    73   35   37 1    
    74   37   38 1    
    75   37   39 1    
    76   37  160 1    
    77   38  161 1    
    78   38  162 1    
    79   38  163 1    
    80   39   40 am   BACKBONE|DICT|INTERRES
    81   39  164 1    
    82   40   41 2    
    83   40   42 1    
    84   42   43 1    
    85   42   44 1    
    86   42  165 1    
    87   43  166 1    
    88   43  167 1    
    89   43  168 1    
    90   44   45 am   BACKBONE|DICT|INTERRES
    91   44  169 1    
    92   45   46 2    
    93   45   47 1    
    94   47   48 1    
    95   47   49 1    
    96   47  170 1    
    97   48  171 1    
    98   48  172 1    
    99   48  173 1    
   100   49   50 am   BACKBONE|DICT|INTERRES
   101   49  174 1    
   102   50   51 2    
   103   50   52 1    
   104   52   53 1    
   105   52   54 1    
   106   52  175 1    
   107   53  176 1    
   108   53  177 1    
   109   53  178 1    
   110   54   55 am   BACKBONE|DICT|INTERRES
   111   54  179 1    
   112   55   56 2    
   113   55   57 1    
   114   57   58 1    
   115   57   59 1    
   116   57  180 1    
   117   58  181 1    
   118   58  182 1    
   119   58  183 1    
   120   59   60 am   BACKBONE|DICT|INTERRES
   121   59  184 1    
   122   60   61 2    
   123   60   62 1    
   124   62   63 1    
   125   62   64 1    
   126   62  185 1    
   127   63  186 1    
   128   63  187 1    
   129   63  188 1    
   130   64   65 am   BACKBONE|DICT|INTERRES
   131   64  189 1    
   132   65   66 2    
   133   67   68 2    
   134   67   69 am   BACKBONE|DICT|INTERRES
   135   69   70 1    
   136   69  190 1    
   137   70   71 1    
   138   70   72 1    
   139   70  191 1    
   140   71  192 1    
   141   71  193 1    
   142   71  194 1    
   143   72   73 2    
   144   72   74 am   BACKBONE|DICT|INTERRES
   145   74   75 1    
   146   74  195 1    
   147   75   76 1    
   148   75   77 1    
   149   75  196 1    
   150   76  197 1    
   151   76  198 1    
   152   76  199 1    
   153   77   78 2    
   154   77   79 am   BACKBONE|DICT|INTERRES
   155   79   80 1    
   156   79  200 1    
   157   80   81 1    
   158   80   82 1    
   159   80  201 1    
   160   81  202 1    
   161   81  203 1    
   162   81  204 1    
   163   82   83 2    
   164   82   84 am   BACKBONE|DICT|INTERRES
   165   84   85 1    
   166   84  205 1    
   167   85   86 1    
   168   85   87 1    
   169   85  206 1    
   170   86  207 1    
   171   86  208 1    
   172   86  209 1    
   173   87   88 2    
   174   87   89 am   BACKBONE|DICT|INTERRES
   175   89   90 1    
   176   89  210 1    
   177   90   91 1    
   178   90   92 1    
   179   90  211 1    
   180   91  212 1    
   181   91  213 1    
   182   91  214 1    
   183   92   93 2    
   184   92   94 am   BACKBONE|DICT|INTERRES
   185   94   95 1    
   186   94  215 1    
   187   95   96 1    
   188   95   97 1    
   189   95  216 1    
   190   96  217 1    
   191   96  218 1    
   192   96  219 1    
   193   97   98 2    
   194   97   99 am   BACKBONE|DICT|INTERRES
   195   99  100 1    
   196   99  220 1    
   197  100  101 1    
   198  100  102 1    
   199  100  221 1    
   200  101  222 1    
   201  101  223 1    
   202  101  224 1    
   203  102  103 2    
   204  102  104 am   BACKBONE|DICT|INTERRES
   205  104  105 1    
   206  104  225 1    
   207  105  106 1    
   208  105  107 1    
   209  105  226 1    
   210  106  227 1    
   211  106  228 1    
   212  106  229 1    
   213  107  108 2    
   214  107  109 am   BACKBONE|DICT|INTERRES
   215  109  110 1    
   216  109  230 1    
   217  110  111 1    
   218  110  112 1    
   219  110  231 1    
   220  111  232 1    
   221  111  233 1    
   222  111  234 1    
   223  112  113 2    
   224  112  114 am   BACKBONE|DICT|INTERRES
   225  114  115 1    
   226  114  235 1    
   227  115  116 1    
   228  115  117 1    
   229  115  236 1    
   230  116  237 1    
   231  116  238 1    
   232  116  239 1    
   233  117  118 2    
   234  117  119 am   BACKBONE|DICT|INTERRES
   235  119  120 1    
   236  119  240 1    
   237  120  121 1    
   238  120  124 1    
   239  120  241 1    
   240  121  122 am   BACKBONE|DICT|INTERRES
   241  121  123 2    
   242  122  242 1    
   243  122  243 1    
   244  124  125 1    
   245  124  244 1    
   246  124  245 1    
   247  125  126 1    
   248  126  246 1    
   249  126  247 1    
@<TRIPOS>SUBSTRUCTURE
     1 UNK         1 GROUP             0       ****    0 ROOT    
