@<TRIPOS>MOLECULE
3R540
247   249    1
SMALL
USER_CHARGES


@<TRIPOS>ATOM
      1 CA          6.3080  -17.5420  -45.8573 C.3       0 UNK        -0.1800 
      2 C           6.0468  -17.2834  -47.3419 C.2       0 UNK         0.5000 
      3 O           6.5734  -18.0135  -48.1790 O.2       0 UNK        -0.5000 
      4 N           5.2405  -16.2822  -47.7235 N.am      1 UNK        -0.5000 
      5 CA          4.6096  -15.2717  -46.8680 C.3       1 UNK         0.1400 
      6 C6          3.5325  -14.4583  -47.6291 C.3       23 UNK        -0.0398 
      7 S7          2.1305  -15.4952  -48.1630 S.3       23 UNK        -0.2404 
      8 C8          1.5039  -14.5545  -49.5855 C.3       23 UNK        -0.0205 
      9 C9          0.1689  -15.1051  -50.0658 C.ar      23 UNK        -0.0193 
     10 C10         0.0707  -15.8014  -51.2747 C.ar      23 UNK        -0.1150 
     11 C11        -1.1646  -16.2745  -51.7344 C.ar      23 UNK        -0.0193 
     12 C12        -2.3084  -16.0462  -50.9571 C.ar      23 UNK        -0.1150 
     13 C13        -2.2199  -15.3669  -49.7388 C.ar      23 UNK        -0.0193 
     14 C14        -0.9809  -14.8928  -49.3033 C.ar      23 UNK        -0.1150 
     15 C15        -3.4632  -15.1377  -48.8929 C.3       23 UNK        -0.0205 
     16 S16        -4.0457  -16.6689  -48.0982 S.3       23 UNK        -0.2404 
     17 C17        -2.5911  -17.1718  -47.1105 C.3       23 UNK        -0.0398 
     18 CA         -1.8118  -18.3634  -47.7238 C.3       11 UNK         0.1400 
     19 N          -0.5305  -18.5933  -47.0503 N.am      11 UNK        -0.5000 
     20 C           0.3955  -19.4829  -47.4383 C.2       10 UNK         0.5000 
     21 O           0.3031  -20.1621  -48.4588 O.2       10 UNK        -0.5000 
     22 CA          1.5954  -19.7140  -46.5029 C.3       10 UNK         0.1400 
     23 CB          2.7070  -18.6899  -46.7454 C.3       10 UNK        -0.1800 
     24 N           1.2254  -19.7125  -45.0890 N.am      10 UNK        -0.5000 
     25 C           0.4471  -20.6426  -44.5196 C.2       9 UNK         0.5000 
     26 O          -0.0207  -21.6062  -45.1265 O.2       9 UNK        -0.5000 
     27 CA          0.1066  -20.4474  -43.0327 C.3       9 UNK         0.1400 
     28 CB          1.2917  -20.8580  -42.1460 C.3       9 UNK        -0.1800 
     29 N          -0.2884  -19.0743  -42.7199 N.am      9 UNK        -0.5000 
     30 C          -1.3766  -18.4639  -43.2108 C.2       8 UNK         0.5000 
     31 O          -2.1827  -19.0033  -43.9705 O.2       8 UNK        -0.5000 
     32 CA         -1.5667  -16.9831  -42.8291 C.3       8 UNK         0.1400 
     33 CB         -2.0852  -16.8458  -41.3903 C.3       8 UNK        -0.1800 
     34 N          -0.3430  -16.1944  -42.9950 N.am      8 UNK        -0.5000 
     35 C           0.2833  -16.0287  -44.1683 C.2       7 UNK         0.5000 
     36 O          -0.1163  -16.5043  -45.2269 O.2       7 UNK        -0.5000 
     37 CA          1.5997  -15.2412  -44.1653 C.3       7 UNK         0.1400 
     38 CB          1.3366  -13.7309  -44.1989 C.3       7 UNK        -0.1800 
     39 N           2.4669  -15.5975  -43.0416 N.am      7 UNK        -0.5000 
     40 C           3.0190  -16.8100  -42.8838 C.2       6 UNK         0.5000 
     41 O           2.9374  -17.7130  -43.7149 O.2       6 UNK        -0.5000 
     42 CA          3.7354  -17.0766  -41.5515 C.3       6 UNK         0.1400 
     43 CB          5.1633  -16.5103  -41.5682 C.3       6 UNK        -0.1800 
     44 N           2.9851  -16.5376  -40.4159 N.am      6 UNK        -0.5000 
     45 C           1.8101  -17.0334  -39.9986 C.2       5 UNK         0.5000 
     46 O           1.2627  -18.0083  -40.5126 O.2       5 UNK        -0.5000 
     47 CA          1.1069  -16.3127  -38.8342 C.3       5 UNK         0.1400 
     48 CB          1.5258  -16.9290  -37.4913 C.3       5 UNK        -0.1800 
     49 N           1.3538  -14.8719  -38.7991 N.am      5 UNK        -0.5000 
     50 C           0.9705  -13.9960  -39.7379 C.2       4 UNK         0.5000 
     51 O           0.3559  -14.3188  -40.7575 O.2       4 UNK        -0.5000 
     52 CA          1.3472  -12.5125  -39.5091 C.3       4 UNK         0.1400 
     53 CB          2.2032  -12.2703  -38.2450 C.3       4 UNK        -0.1800 
     54 N           2.0059  -11.8867  -40.6620 N.am      4 UNK        -0.5000 
     55 C           3.0514  -12.3593  -41.3556 C.2       3 UNK         0.5000 
     56 O           3.5314  -13.4827  -41.1873 O.2       3 UNK        -0.5000 
     57 CA          3.6180  -11.4126  -42.4365 C.3       3 UNK         0.1400 
     58 CB          4.2080  -10.1291  -41.8151 C.3       3 UNK        -0.1800 
     59 N           4.5862  -12.0580  -43.3354 N.am      3 UNK        -0.5000 
     60 C           5.8092  -12.5302  -43.0449 C.2       2 UNK         0.5000 
     61 O           6.3572  -12.4169  -41.9474 O.2       2 UNK        -0.5000 
     62 CA          6.5275  -13.2664  -44.1911 C.3       2 UNK         0.1400 
     63 CB          7.6989  -14.1468  -43.7114 C.3       2 UNK        -0.1800 
     64 N           5.5783  -14.0809  -44.9546 N.am      2 UNK        -0.5000 
     65 C           5.6718  -14.3292  -46.2663 C.2       1 UNK         0.5000 
     66 O           6.5456  -13.8548  -46.9951 O.2       1 UNK        -0.5000 
     67 C          -2.6636  -19.6477  -47.7462 C.2       11 UNK         0.5000 
     68 O          -3.1331  -20.0401  -48.8130 O.2       11 UNK        -0.5000 
     69 N          -2.8061  -20.3050  -46.5850 N.am      12 UNK        -0.5000 
     70 CA         -3.5296  -21.5688  -46.4400 C.3       12 UNK         0.1400 
     71 CB         -3.6027  -21.9581  -44.9563 C.3       12 UNK        -0.1800 
     72 C          -2.9237  -22.7065  -47.2822 C.2       12 UNK         0.5000 
     73 O          -3.6701  -23.4334  -47.9386 O.2       12 UNK        -0.5000 
     74 N          -1.5878  -22.8115  -47.2835 N.am      13 UNK        -0.5000 
     75 CA         -0.8307  -23.7735  -48.0843 C.3       13 UNK         0.1400 
     76 CB          0.6411  -23.7613  -47.6445 C.3       13 UNK        -0.1800 
     77 C          -0.9506  -23.5262  -49.6000 C.2       13 UNK         0.5000 
     78 O          -1.1213  -24.4847  -50.3535 O.2       13 UNK        -0.5000 
     79 N          -0.8700  -22.2551  -50.0185 N.am      14 UNK        -0.5000 
     80 CA         -1.0084  -21.8325  -51.4129 C.3       14 UNK         0.1400 
     81 CB         -0.5217  -20.3844  -51.5663 C.3       14 UNK        -0.1800 
     82 C          -2.4458  -21.9807  -51.9391 C.2       14 UNK         0.5000 
     83 O          -2.6302  -22.3408  -53.1021 O.2       14 UNK        -0.5000 
     84 N          -3.4399  -21.7108  -51.0831 N.am      15 UNK        -0.5000 
     85 CA         -4.8531  -21.9085  -51.3853 C.3       15 UNK         0.1400 
     86 CB         -5.7233  -21.1812  -50.3504 C.3       15 UNK        -0.1800 
     87 C          -5.2245  -23.3972  -51.4554 C.2       15 UNK         0.5000 
     88 O          -5.9254  -23.7960  -52.3873 O.2       15 UNK        -0.5000 
     89 N          -4.7595  -24.1784  -50.4691 N.am      16 UNK        -0.5000 
     90 CA         -5.0109  -25.6100  -50.2726 C.3       16 UNK         0.1400 
     91 CB         -4.3036  -26.4403  -51.3624 C.3       16 UNK        -0.1800 
     92 C          -6.5185  -25.9147  -50.1696 C.2       16 UNK         0.5000 
     93 O          -7.0343  -26.7519  -50.9093 O.2       16 UNK        -0.5000 
     94 N          -7.2148  -25.1590  -49.3057 N.am      17 UNK        -0.5000 
     95 CA         -8.6771  -25.1491  -49.1363 C.3       17 UNK         0.1400 
     96 CB         -9.1706  -26.4818  -48.5346 C.3       17 UNK        -0.1800 
     97 C          -9.4262  -24.7571  -50.4323 C.2       17 UNK         0.5000 
     98 O         -10.5134  -25.2676  -50.7049 O.2       17 UNK        -0.5000 
     99 N          -8.7972  -23.8635  -51.2099 N.am      18 UNK        -0.5000 
    100 CA        -9.1887  -23.3564  -52.5288 C.3       18 UNK         0.1400 
    101 CB       -10.5644  -22.6599  -52.4816 C.3       18 UNK        -0.1800 
    102 C         -9.0836  -24.3928  -53.6695 C.2       18 UNK         0.5000 
    103 O         -9.5775  -24.1230  -54.7653 O.2       18 UNK        -0.5000 
    104 N         -8.4269  -25.5386  -53.4292 N.am      19 UNK        -0.5000 
    105 CA        -8.1659  -26.5526  -54.4533 C.3       19 UNK         0.1400 
    106 CB        -7.8803  -27.9072  -53.7884 C.3       19 UNK        -0.1800 
    107 C         -7.0046  -26.1562  -55.3830 C.2       19 UNK         0.5000 
    108 O         -7.0483  -26.4811  -56.5703 O.2       19 UNK        -0.5000 
    109 N         -5.9963  -25.4645  -54.8345 N.am      20 UNK        -0.5000 
    110 CA        -4.8481  -24.9464  -55.5795 C.3       20 UNK         0.1400 
    111 CB        -3.5680  -25.1403  -54.7541 C.3       20 UNK        -0.1800 
    112 C         -5.0488  -23.4672  -55.9439 C.2       20 UNK         0.5000 
    113 O         -4.6694  -23.0620  -57.0432 O.2       20 UNK        -0.5000 
    114 N         -5.6549  -22.6969  -55.0259 N.am      21 UNK        -0.5000 
    115 CA        -6.0721  -21.2959  -55.1720 C.3       21 UNK         0.1400 
    116 CB        -7.3126  -21.2183  -56.0851 C.3       21 UNK        -0.1800 
    117 C         -4.9399  -20.3413  -55.6191 C.2       21 UNK         0.5000 
    118 O         -5.1852  -19.4297  -56.4111 O.2       21 UNK        -0.5000 
    119 N         -3.7180  -20.5869  -55.1246 N.am      22 UNK        -0.5000 
    120 CA        -2.4659  -19.9060  -55.5035 C.3       22 UNK         0.1400 
    121 C         -1.9750  -20.2093  -56.9550 C.2       22 UNK         0.5000 
    122 N         -2.5300  -21.1819  -57.6689 N.am      22 UNK        -0.7600 
    123 O         -1.0420  -19.5740  -57.4393 O.2       22 UNK        -0.5000 
    124 C124       -2.4620  -18.3821  -55.1848 C.3       23 UNK        -0.0398 
    125 S125       -2.6913  -18.0077  -53.4105 S.3       23 UNK        -0.2404 
    126 C126       -1.2189  -16.9676  -53.0976 C.3       23 UNK        -0.0205 
    127 H127        5.3979  -17.4725  -45.2629 H         1 UNK         0.0600 
    128 H128        7.0392  -16.8346  -45.4670 H         1 UNK         0.0600 
    129 H129        6.7089  -18.5457  -45.7148 H         1 UNK         0.0600 
    130 H130        5.0895  -16.1473  -48.7122 H         1 UNK         0.3000 
    131 H131        4.1162  -15.7963  -46.0504 H         1 UNK         0.0600 
    132 H132        3.1279  -13.6647  -46.9981 H         1 UNK         0.0800 
    133 H133        3.9705  -13.9659  -48.4995 H         1 UNK         0.0800 
    134 H134        2.2435  -14.5762  -50.3873 H         1 UNK         0.0800 
    135 H135        1.3793  -13.5078  -49.3034 H         1 UNK         0.0800 
    136 H136        0.9585  -15.9596  -51.8710 H         1 UNK         0.1150 
    137 H137       -3.2766  -16.3905  -51.2896 H         1 UNK         0.1150 
    138 H138       -0.9054  -14.3605  -48.3653 H         1 UNK         0.1150 
    139 H139       -3.2779  -14.3843  -48.1256 H         1 UNK         0.0800 
    140 H140       -4.2599  -14.7411  -49.5236 H         1 UNK         0.0800 
    141 H141       -2.9223  -17.4054  -46.0976 H         1 UNK         0.0800 
    142 H142       -1.9318  -16.3106  -47.0110 H         1 UNK         0.0800 
    143 H143       -1.5745  -18.1111  -48.7596 H         1 UNK         0.0600 
    144 H144       -0.3496  -18.0202  -46.2292 H         1 UNK         0.3000 
    145 H145        2.0017  -20.6997  -46.7383 H         1 UNK         0.0600 
    146 H146        3.6189  -18.9767  -46.2228 H         1 UNK         0.0600 
    147 H147        2.9486  -18.6058  -47.8058 H         1 UNK         0.0600 
    148 H148        2.4158  -17.7036  -46.3882 H         1 UNK         0.0600 
    149 H149        1.6020  -18.9592  -44.5217 H         1 UNK         0.3000 
    150 H150       -0.7369  -21.0995  -42.7971 H         1 UNK         0.0600 
    151 H151        1.6045  -21.8809  -42.3590 H         1 UNK         0.0600 
    152 H152        1.0266  -20.8119  -41.0897 H         1 UNK         0.0600 
    153 H153        2.1546  -20.2092  -42.3018 H         1 UNK         0.0600 
    154 H154        0.3106  -18.5685  -42.0726 H         1 UNK         0.3000 
    155 H155       -2.3196  -16.5630  -43.4992 H         1 UNK         0.0600 
    156 H156       -1.3940  -17.2802  -40.6691 H         1 UNK         0.0600 
    157 H157       -3.0420  -17.3559  -41.2727 H         1 UNK         0.0600 
    158 H158       -2.2375  -15.8001  -41.1221 H         1 UNK         0.0600 
    159 H159        0.0247  -15.7279  -42.1719 H         1 UNK         0.3000 
    160 H160        2.1181  -15.5038  -45.0862 H         1 UNK         0.0600 
    161 H161        0.8930  -13.3748  -43.2690 H         1 UNK         0.0600 
    162 H162        0.6511  -13.4737  -45.0077 H         1 UNK         0.0600 
    163 H163        2.2568  -13.1794  -44.3767 H         1 UNK         0.0600 
    164 H164        2.5769  -14.9166  -42.2970 H         1 UNK         0.3000 
    165 H165        3.8072  -18.1593  -41.4263 H         1 UNK         0.0600 
    166 H166        5.6925  -16.7510  -40.6462 H         1 UNK         0.0600 
    167 H167        5.7389  -16.9335  -42.3925 H         1 UNK         0.0600 
    168 H168        5.1743  -15.4272  -41.6854 H         1 UNK         0.0600 
    169 H169        3.3423  -15.6936  -39.9894 H         1 UNK         0.3000 
    170 H170        0.0324  -16.4611  -38.9539 H         1 UNK         0.0600 
    171 H171        1.3298  -18.0021  -37.4765 H         1 UNK         0.0600 
    172 H172        2.5896  -16.7869  -37.2970 H         1 UNK         0.0600 
    173 H173        0.9703  -16.4876  -36.6636 H         1 UNK         0.0600 
    174 H174        1.8645  -14.5230  -38.0013 H         1 UNK         0.3000 
    175 H175        0.4019  -11.9857  -39.3728 H         1 UNK         0.0600 
    176 H176        3.1677  -12.7768  -38.3033 H         1 UNK         0.0600 
    177 H177        2.4013  -11.2069  -38.1093 H         1 UNK         0.0600 
    178 H178        1.6935  -12.6117  -37.3431 H         1 UNK         0.0600 
    179 H179        1.6416  -10.9796  -40.9162 H         1 UNK         0.3000 
    180 H180        2.7782  -11.1182  -43.0677 H         1 UNK         0.0600 
    181 H181        4.9819  -10.3496  -41.0795 H         1 UNK         0.0600 
    182 H182        3.4389   -9.5465  -41.3073 H         1 UNK         0.0600 
    183 H183        4.6451   -9.4858  -42.5789 H         1 UNK         0.0600 
    184 H184        4.2611  -12.1945  -44.2810 H         1 UNK         0.3000 
    185 H185        6.9339  -12.4835  -44.8350 H         1 UNK         0.0600 
    186 H186        8.4397  -13.5570  -43.1703 H         1 UNK         0.0600 
    187 H187        7.3575  -14.9398  -43.0458 H         1 UNK         0.0600 
    188 H188        8.2130  -14.6133  -44.5518 H         1 UNK         0.0600 
    189 H189        4.8330  -14.4963  -44.4133 H         1 UNK         0.3000 
    190 H190       -2.4011  -19.9127  -45.7402 H         1 UNK         0.3000 
    191 H191       -4.5487  -21.4046  -46.7959 H         1 UNK         0.0600 
    192 H192       -2.6116  -22.1049  -44.5268 H         1 UNK         0.0600 
    193 H193       -4.1597  -22.8863  -44.8230 H         1 UNK         0.0600 
    194 H194       -4.1077  -21.1885  -44.3722 H         1 UNK         0.0600 
    195 H195       -1.0498  -22.2003  -46.6754 H         1 UNK         0.3000 
    196 H196       -1.2356  -24.7666  -47.8787 H         1 UNK         0.0600 
    197 H197        1.2229  -24.4932  -48.2061 H         1 UNK         0.0600 
    198 H198        0.7387  -24.0090  -46.5874 H         1 UNK         0.0600 
    199 H199        1.1000  -22.7851  -47.8025 H         1 UNK         0.0600 
    200 H200       -0.6703  -21.5217  -49.3425 H         1 UNK         0.3000 
    201 H201       -0.3659  -22.4698  -52.0239 H         1 UNK         0.0600 
    202 H202        0.5131  -20.2778  -51.2410 H         1 UNK         0.0600 
    203 H203       -1.1292  -19.6901  -50.9836 H         1 UNK         0.0600 
    204 H204       -0.5666  -20.0691  -52.6086 H         1 UNK         0.0600 
    205 H205       -3.2155  -21.3233  -50.1693 H         1 UNK         0.3000 
    206 H206       -5.0520  -21.4630  -52.3597 H         1 UNK         0.0600 
    207 H207       -5.5156  -20.1109  -50.3483 H         1 UNK         0.0600 
    208 H208       -6.7842  -21.3048  -50.5713 H         1 UNK         0.0600 
    209 H209       -5.5487  -21.5548  -49.3406 H         1 UNK         0.0600 
    210 H210       -4.2207  -23.7424  -49.7245 H         1 UNK         0.3000 
    211 H211       -4.5681  -25.8750  -49.3115 H         1 UNK         0.0600 
    212 H212       -4.7599  -26.2976  -52.3410 H         1 UNK         0.0600 
    213 H213       -4.3556  -27.5052  -51.1336 H         1 UNK         0.0600 
    214 H214       -3.2495  -26.1737  -51.4404 H         1 UNK         0.0600 
    215 H215       -6.7027  -24.4895  -48.7477 H         1 UNK         0.3000 
    216 H216       -8.8963  -24.3625  -48.4130 H         1 UNK         0.0600 
    217 H217      -10.2280  -26.4248  -48.2739 H         1 UNK         0.0600 
    218 H218       -8.6261  -26.7283  -47.6232 H         1 UNK         0.0600 
    219 H219       -9.0515  -27.3118  -49.2316 H         1 UNK         0.0600 
    220 H220       -7.8854  -23.5619  -50.9007 H         1 UNK         0.3000 
    221 H221       -8.4528  -22.5888  -52.7722 H         1 UNK         0.0600 
    222 H222      -11.3768  -23.3726  -52.3394 H         1 UNK         0.0600 
    223 H223      -10.6104  -21.9302  -51.6733 H         1 UNK         0.0600 
    224 H224      -10.7631  -22.1243  -53.4107 H         1 UNK         0.0600 
    225 H225       -8.0392  -25.7100  -52.5086 H         1 UNK         0.3000 
    226 H226       -9.0634  -26.6670  -55.0652 H         1 UNK         0.0600 
    227 H227       -8.6670  -28.1784  -53.0841 H         1 UNK         0.0600 
    228 H228       -7.8226  -28.6998  -54.5353 H         1 UNK         0.0600 
    229 H229       -6.9323  -27.9014  -53.2497 H         1 UNK         0.0600 
    230 H230       -6.0635  -25.1937  -53.8596 H         1 UNK         0.3000 
    231 H231       -4.7231  -25.5001  -56.5124 H         1 UNK         0.0600 
    232 H232       -3.3652  -26.1982  -54.5876 H         1 UNK         0.0600 
    233 H233       -3.6377  -24.6585  -53.7798 H         1 UNK         0.0600 
    234 H234       -2.7024  -24.7184  -55.2664 H         1 UNK         0.0600 
    235 H235       -5.8697  -23.1266  -54.1311 H         1 UNK         0.3000 
    236 H236       -6.3806  -20.9570  -54.1831 H         1 UNK         0.0600 
    237 H237       -7.0761  -21.5062  -57.1100 H         1 UNK         0.0600 
    238 H238       -8.1061  -21.8748  -55.7283 H         1 UNK         0.0600 
    239 H239       -7.7198  -20.2070  -56.1127 H         1 UNK         0.0600 
    240 H240       -3.5915  -21.3639  -54.4825 H         1 UNK         0.3000 
    241 H241       -1.7013  -20.3599  -54.8730 H         1 UNK         0.0600 
    242 H242       -3.3028  -21.7348  -57.3092 H         1 UNK         0.3800 
    243 H243       -2.1857  -21.3647  -58.5978 H         1 UNK         0.3800 
    244 H244       -3.2353  -17.8629  -55.7510 H         1 UNK         0.0800 
    245 H245       -1.5201  -17.9363  -55.5071 H         1 UNK         0.0800 
    246 H246       -1.1698  -16.1920  -53.8631 H         1 UNK         0.0800 
    247 H247       -0.3306  -17.5885  -53.2239 H         1 UNK         0.0800 
@<TRIPOS>BOND
     1    1    2 1    
     2    1  127 1    
     3    1  128 1    
     4    1  129 1    
     5    2    3 2    
     6    2    4 am   BACKBONE|DICT|INTERRES
     7    4    5 1    
     8    4  130 1    
     9    5    6 1    
    10    5   65 1    
    11    5  131 1    
    12    6    7 1    
    13    6  132 1    
    14    6  133 1    
    15    7    8 1    
    16    8    9 1    
    17    8  134 1    
    18    8  135 1    
    19    9   10 ar   
    20    9   14 ar   
    21   10   11 ar   
    22   10  136 1    
    23   11   12 ar   
    24   11  126 1    
    25   12   13 ar   
    26   12  137 1    
    27   13   14 ar   
    28   13   15 1    
    29   14  138 1    
    30   15   16 1    
    31   15  139 1    
    32   15  140 1    
    33   16   17 1    
    34   17   18 1    
    35   17  141 1    
    36   17  142 1    
    37   18   19 1    
    38   18   67 1    
    39   18  143 1    
    40   19   20 am   BACKBONE|DICT|INTERRES
    41   19  144 1    
    42   20   21 2    
    43   20   22 1    
    44   22   23 1    
    45   22   24 1    
    46   22  145 1    
    47   23  146 1    
    48   23  147 1    
    49   23  148 1    
    50   24   25 am   BACKBONE|DICT|INTERRES
    51   24  149 1    
    52   25   26 2    
    53   25   27 1    
    54   27   28 1    
    55   27   29 1    
    56   27  150 1    
    57   28  151 1    
    58   28  152 1    
    59   28  153 1    
    60   29   30 am   BACKBONE|DICT|INTERRES
    61   29  154 1    
    62   30   31 2    
    63   30   32 1    
    64   32   33 1    
    65   32   34 1    
    66   32  155 1    
    67   33  156 1    
    68   33  157 1    
    69   33  158 1    
    70   34   35 am   BACKBONE|DICT|INTERRES
    71   34  159 1    
    72   35   36 2    
    73   35   37 1    
    74   37   38 1    
    75   37   39 1    
    76   37  160 1    
    77   38  161 1    
    78   38  162 1    
    79   38  163 1    
    80   39   40 am   BACKBONE|DICT|INTERRES
    81   39  164 1    
    82   40   41 2    
    83   40   42 1    
    84   42   43 1    
    85   42   44 1    
    86   42  165 1    
    87   43  166 1    
    88   43  167 1    
    89   43  168 1    
    90   44   45 am   BACKBONE|DICT|INTERRES
    91   44  169 1    
    92   45   46 2    
    93   45   47 1    
    94   47   48 1    
    95   47   49 1    
    96   47  170 1    
    97   48  171 1    
    98   48  172 1    
    99   48  173 1    
   100   49   50 am   BACKBONE|DICT|INTERRES
   101   49  174 1    
   102   50   51 2    
   103   50   52 1    
   104   52   53 1    
   105   52   54 1    
   106   52  175 1    
   107   53  176 1    
   108   53  177 1    
   109   53  178 1    
   110   54   55 am   BACKBONE|DICT|INTERRES
   111   54  179 1    
   112   55   56 2    
   113   55   57 1    
   114   57   58 1    
   115   57   59 1    
   116   57  180 1    
   117   58  181 1    
   118   58  182 1    
   119   58  183 1    
   120   59   60 am   BACKBONE|DICT|INTERRES
   121   59  184 1    
   122   60   61 2    
   123   60   62 1    
   124   62   63 1    
   125   62   64 1    
   126   62  185 1    
   127   63  186 1    
   128   63  187 1    
   129   63  188 1    
   130   64   65 am   BACKBONE|DICT|INTERRES
   131   64  189 1    
   132   65   66 2    
   133   67   68 2    
   134   67   69 am   BACKBONE|DICT|INTERRES
   135   69   70 1    
   136   69  190 1    
   137   70   71 1    
   138   70   72 1    
   139   70  191 1    
   140   71  192 1    
   141   71  193 1    
   142   71  194 1    
   143   72   73 2    
   144   72   74 am   BACKBONE|DICT|INTERRES
   145   74   75 1    
   146   74  195 1    
   147   75   76 1    
   148   75   77 1    
   149   75  196 1    
   150   76  197 1    
   151   76  198 1    
   152   76  199 1    
   153   77   78 2    
   154   77   79 am   BACKBONE|DICT|INTERRES
   155   79   80 1    
   156   79  200 1    
   157   80   81 1    
   158   80   82 1    
   159   80  201 1    
   160   81  202 1    
   161   81  203 1    
   162   81  204 1    
   163   82   83 2    
   164   82   84 am   BACKBONE|DICT|INTERRES
   165   84   85 1    
   166   84  205 1    
   167   85   86 1    
   168   85   87 1    
   169   85  206 1    
   170   86  207 1    
   171   86  208 1    
   172   86  209 1    
   173   87   88 2    
   174   87   89 am   BACKBONE|DICT|INTERRES
   175   89   90 1    
   176   89  210 1    
   177   90   91 1    
   178   90   92 1    
   179   90  211 1    
   180   91  212 1    
   181   91  213 1    
   182   91  214 1    
   183   92   93 2    
   184   92   94 am   BACKBONE|DICT|INTERRES
   185   94   95 1    
   186   94  215 1    
   187   95   96 1    
   188   95   97 1    
   189   95  216 1    
   190   96  217 1    
   191   96  218 1    
   192   96  219 1    
   193   97   98 2    
   194   97   99 am   BACKBONE|DICT|INTERRES
   195   99  100 1    
   196   99  220 1    
   197  100  101 1    
   198  100  102 1    
   199  100  221 1    
   200  101  222 1    
   201  101  223 1    
   202  101  224 1    
   203  102  103 2    
   204  102  104 am   BACKBONE|DICT|INTERRES
   205  104  105 1    
   206  104  225 1    
   207  105  106 1    
   208  105  107 1    
   209  105  226 1    
   210  106  227 1    
   211  106  228 1    
   212  106  229 1    
   213  107  108 2    
   214  107  109 am   BACKBONE|DICT|INTERRES
   215  109  110 1    
   216  109  230 1    
   217  110  111 1    
   218  110  112 1    
   219  110  231 1    
   220  111  232 1    
   221  111  233 1    
   222  111  234 1    
   223  112  113 2    
   224  112  114 am   BACKBONE|DICT|INTERRES
   225  114  115 1    
   226  114  235 1    
   227  115  116 1    
   228  115  117 1    
   229  115  236 1    
   230  116  237 1    
   231  116  238 1    
   232  116  239 1    
   233  117  118 2    
   234  117  119 am   BACKBONE|DICT|INTERRES
   235  119  120 1    
   236  119  240 1    
   237  120  121 1    
   238  120  124 1    
   239  120  241 1    
   240  121  122 am   BACKBONE|DICT|INTERRES
   241  121  123 2    
   242  122  242 1    
   243  122  243 1    
   244  124  125 1    
   245  124  244 1    
   246  124  245 1    
   247  125  126 1    
   248  126  246 1    
   249  126  247 1    
@<TRIPOS>SUBSTRUCTURE
     1 UNK         1 GROUP             0       ****    0 ROOT    
