@<TRIPOS>MOLECULE
3R540
247   249    1
SMALL
USER_CHARGES


@<TRIPOS>ATOM
      1 CA         -0.0078  -13.6174  -42.3558 C.3       0 UNK        -0.1800 
      2 C          -0.4693  -12.7682  -43.5300 C.2       0 UNK         0.5000 
      3 O          -0.3137  -11.5473  -43.5047 O.2       0 UNK        -0.5000 
      4 N          -1.0275  -13.4066  -44.5676 N.am      1 UNK        -0.5000 
      5 CA         -1.5758  -12.7512  -45.7644 C.3       1 UNK         0.1400 
      6 C6         -2.5241  -13.6820  -46.5603 C.3       23 UNK        -0.0398 
      7 S7         -1.8025  -15.2905  -47.0397 S.3       23 UNK        -0.2404 
      8 C8         -1.3341  -14.9677  -48.7668 C.3       23 UNK        -0.0205 
      9 C9         -1.0018  -16.2540  -49.5061 C.ar      23 UNK        -0.0193 
     10 C10        -2.0099  -16.9493  -50.1794 C.ar      23 UNK        -0.1150 
     11 C11        -1.7130  -18.1087  -50.8991 C.ar      23 UNK        -0.0193 
     12 C12        -0.3986  -18.5819  -50.9301 C.ar      23 UNK        -0.1150 
     13 C13         0.6219  -17.8931  -50.2680 C.ar      23 UNK        -0.0193 
     14 C14         0.3121  -16.7307  -49.5536 C.ar      23 UNK        -0.1150 
     15 C15         2.0671  -18.3689  -50.3682 C.3       23 UNK        -0.0205 
     16 S16         2.2929  -20.1187  -49.9081 S.3       23 UNK        -0.2404 
     17 C17         1.8438  -20.0839  -48.1435 C.3       23 UNK        -0.0398 
     18 CA          1.0906  -21.3573  -47.6955 C.3       11 UNK         0.1400 
     19 N           1.2200  -21.5930  -46.2507 N.am      11 UNK        -0.5000 
     20 C           0.8715  -22.7383  -45.6494 C.2       10 UNK         0.5000 
     21 O           0.2830  -23.6504  -46.2258 O.2       10 UNK        -0.5000 
     22 CA          1.2281  -22.9118  -44.1692 C.3       10 UNK         0.1400 
     23 CB          2.7455  -23.0667  -43.9709 C.3       10 UNK        -0.1800 
     24 N           0.7259  -21.8040  -43.3574 N.am      10 UNK        -0.5000 
     25 C          -0.0623  -21.9652  -42.2856 C.2       9 UNK         0.5000 
     26 O          -0.4928  -23.0565  -41.9101 O.2       9 UNK        -0.5000 
     27 CA         -0.4192  -20.7163  -41.4620 C.3       9 UNK         0.1400 
     28 CB          0.5823  -20.5324  -40.3114 C.3       9 UNK        -0.1800 
     29 N          -0.4942  -19.4790  -42.2371 N.am      9 UNK        -0.5000 
     30 C          -1.5093  -19.1661  -43.0542 C.2       8 UNK         0.5000 
     31 O          -2.4181  -19.9422  -43.3494 O.2       8 UNK        -0.5000 
     32 CA         -1.5237  -17.7326  -43.6115 C.3       8 UNK         0.1400 
     33 CB         -2.0360  -16.7423  -42.5540 C.3       8 UNK        -0.1800 
     34 N          -0.2031  -17.3117  -44.0698 N.am      8 UNK        -0.5000 
     35 C           0.3201  -17.6779  -45.2460 C.2       7 UNK         0.5000 
     36 O          -0.2547  -18.4006  -46.0555 O.2       7 UNK        -0.5000 
     37 CA          1.7551  -17.2071  -45.5321 C.3       7 UNK         0.1400 
     38 CB          1.7833  -15.7167  -45.8913 C.3       7 UNK        -0.1800 
     39 N           2.6373  -17.4595  -44.3959 N.am      7 UNK        -0.5000 
     40 C           2.9167  -18.6854  -43.9281 C.2       6 UNK         0.5000 
     41 O           2.5074  -19.7190  -44.4587 O.2       6 UNK        -0.5000 
     42 CA          3.7543  -18.7872  -42.6390 C.3       6 UNK         0.1400 
     43 CB          5.2216  -19.0813  -42.9814 C.3       6 UNK        -0.1800 
     44 N           3.6916  -17.5968  -41.7885 N.am      6 UNK        -0.5000 
     45 C           2.5828  -17.0842  -41.2351 C.2       5 UNK         0.5000 
     46 O           1.4606  -17.5752  -41.3613 O.2       5 UNK        -0.5000 
     47 CA          2.7505  -15.7566  -40.4732 C.3       5 UNK         0.1400 
     48 CB          3.0632  -16.0235  -38.9938 C.3       5 UNK        -0.1800 
     49 N           3.7784  -14.8718  -41.0374 N.am      5 UNK        -0.5000 
     50 C           3.7759  -14.3985  -42.2912 C.2       4 UNK         0.5000 
     51 O           2.9419  -14.7174  -43.1403 O.2       4 UNK        -0.5000 
     52 CA          4.9074  -13.4346  -42.6804 C.3       4 UNK         0.1400 
     53 CB          5.9255  -14.1442  -43.5857 C.3       4 UNK        -0.1800 
     54 N           4.3669  -12.2760  -43.3869 N.am      4 UNK        -0.5000 
     55 C           3.6314  -11.3108  -42.8243 C.2       3 UNK         0.5000 
     56 O           3.4211  -11.2374  -41.6128 O.2       3 UNK        -0.5000 
     57 CA          3.0113  -10.2559  -43.7602 C.3       3 UNK         0.1400 
     58 CB          4.0251   -9.1503  -44.1124 C.3       3 UNK        -0.1800 
     59 N           2.3667  -10.8084  -44.9596 N.am      3 UNK        -0.5000 
     60 C           2.9167  -11.3930  -46.0350 C.2       2 UNK         0.5000 
     61 O           4.1257  -11.5911  -46.1641 O.2       2 UNK        -0.5000 
     62 CA          1.9316  -11.8592  -47.1239 C.3       2 UNK         0.1400 
     63 CB          2.5564  -12.8434  -48.1297 C.3       2 UNK        -0.1800 
     64 N           0.7640  -12.4730  -46.4921 N.am      2 UNK        -0.5000 
     65 C          -0.5078  -12.0947  -46.6703 C.2       1 UNK         0.5000 
     66 O          -0.8569  -11.2423  -47.4876 O.2       1 UNK        -0.5000 
     67 C          -0.3787  -21.3887  -48.1724 C.2       11 UNK         0.5000 
     68 O          -0.7354  -22.2245  -49.0045 O.2       11 UNK        -0.5000 
     69 N          -1.2209  -20.5393  -47.5716 N.am      12 UNK        -0.5000 
     70 CA         -2.6614  -20.4652  -47.8252 C.3       12 UNK         0.1400 
     71 CB         -3.1885  -19.1198  -47.3049 C.3       12 UNK        -0.1800 
     72 C          -3.4615  -21.6305  -47.2079 C.2       12 UNK         0.5000 
     73 O          -4.6629  -21.7271  -47.4614 O.2       12 UNK        -0.5000 
     74 N          -2.8052  -22.4804  -46.4059 N.am      13 UNK        -0.5000 
     75 CA         -3.3661  -23.7208  -45.8756 C.3       13 UNK         0.1400 
     76 CB         -2.7684  -24.0097  -44.4902 C.3       13 UNK        -0.1800 
     77 C          -3.1204  -24.8906  -46.8449 C.2       13 UNK         0.5000 
     78 O          -4.0301  -25.6894  -47.0647 O.2       13 UNK        -0.5000 
     79 N          -1.9110  -24.9633  -47.4220 N.am      14 UNK        -0.5000 
     80 CA         -1.5238  -25.9313  -48.4492 C.3       14 UNK         0.1400 
     81 CB         -0.0001  -25.8959  -48.6455 C.3       14 UNK        -0.1800 
     82 C          -2.2617  -25.6709  -49.7723 C.2       14 UNK         0.5000 
     83 O          -2.9122  -26.5742  -50.2994 O.2       14 UNK        -0.5000 
     84 N          -2.2142  -24.4180  -50.2421 N.am      15 UNK        -0.5000 
     85 CA         -3.0720  -23.8941  -51.3022 C.3       15 UNK         0.1400 
     86 CB         -2.3000  -22.8212  -52.0885 C.3       15 UNK        -0.1800 
     87 C          -4.3495  -23.3495  -50.6419 C.2       15 UNK         0.5000 
     88 O          -4.5354  -22.1332  -50.5817 O.2       15 UNK        -0.5000 
     89 N          -5.1411  -24.2804  -50.0855 N.am      16 UNK        -0.5000 
     90 CA         -6.2788  -24.1061  -49.1772 C.3       16 UNK         0.1400 
     91 CB         -6.9863  -25.4630  -49.0188 C.3       16 UNK        -0.1800 
     92 C          -7.2678  -23.0077  -49.6023 C.2       16 UNK         0.5000 
     93 O          -8.1504  -23.2653  -50.4199 O.2       16 UNK        -0.5000 
     94 N          -7.0722  -21.7930  -49.0728 N.am      17 UNK        -0.5000 
     95 CA         -7.8150  -20.5696  -49.3994 C.3       17 UNK         0.1400 
     96 CB         -9.2486  -20.6411  -48.8337 C.3       17 UNK        -0.1800 
     97 C          -7.7744  -20.2271  -50.9077 C.2       17 UNK         0.5000 
     98 O          -8.7828  -19.8056  -51.4763 O.2       17 UNK        -0.5000 
     99 N          -6.5993  -20.4395  -51.5171 N.am      18 UNK        -0.5000 
    100 CA        -6.2596  -20.2686  -52.9322 C.3       18 UNK         0.1400 
    101 CB        -6.6206  -18.8620  -53.4555 C.3       18 UNK        -0.1800 
    102 C         -6.7726  -21.3951  -53.8516 C.2       18 UNK         0.5000 
    103 O         -6.7126  -21.2395  -55.0735 O.2       18 UNK        -0.5000 
    104 N         -7.2214  -22.5282  -53.2868 N.am      19 UNK        -0.5000 
    105 CA        -7.5281  -23.7471  -54.0421 C.3       19 UNK         0.1400 
    106 CB        -8.1287  -24.8139  -53.1169 C.3       19 UNK        -0.1800 
    107 C         -6.2702  -24.2942  -54.7411 C.2       19 UNK         0.5000 
    108 O         -5.2172  -24.3881  -54.1071 O.2       19 UNK        -0.5000 
    109 N         -6.4115  -24.6066  -56.0371 N.am      20 UNK        -0.5000 
    110 CA        -5.3520  -24.9998  -56.9777 C.3       20 UNK         0.1400 
    111 CB        -4.6757  -26.3174  -56.5417 C.3       20 UNK        -0.1800 
    112 C         -4.3323  -23.8748  -57.2784 C.2       20 UNK         0.5000 
    113 O         -3.2560  -24.1643  -57.8039 O.2       20 UNK        -0.5000 
    114 N         -4.7121  -22.6221  -56.9755 N.am      21 UNK        -0.5000 
    115 CA        -3.9513  -21.3716  -57.0679 C.3       21 UNK         0.1400 
    116 CB        -3.4291  -21.1251  -58.4979 C.3       21 UNK        -0.1800 
    117 C         -2.8209  -21.2624  -56.0251 C.2       21 UNK         0.5000 
    118 O         -2.3037  -22.2670  -55.5344 O.2       21 UNK        -0.5000 
    119 N         -2.4516  -20.0165  -55.7100 N.am      22 UNK        -0.5000 
    120 CA        -1.3818  -19.6746  -54.7564 C.3       22 UNK         0.1400 
    121 C          0.0642  -19.8494  -55.3096 C.2       22 UNK         0.5000 
    122 N          0.2632  -20.1164  -56.5949 N.am      22 UNK        -0.7600 
    123 O          1.0265  -19.7464  -54.5546 O.2       22 UNK        -0.5000 
    124 C124       -1.5768  -18.2525  -54.1719 C.3       23 UNK        -0.0398 
    125 S125       -3.1554  -18.0511  -53.2745 S.3       23 UNK        -0.2404 
    126 C126       -2.8078  -18.8338  -51.6646 C.3       23 UNK        -0.0205 
    127 H127        0.9018  -13.1994  -41.9244 H         1 UNK         0.0600 
    128 H128        0.2049  -14.6414  -42.6614 H         1 UNK         0.0600 
    129 H129       -0.7742  -13.6388  -41.5815 H         1 UNK         0.0600 
    130 H130       -1.1272  -14.4114  -44.5481 H         1 UNK         0.3000 
    131 H131       -2.1914  -11.9231  -45.4058 H         1 UNK         0.0600 
    132 H132       -3.3974  -13.8998  -45.9442 H         1 UNK         0.0800 
    133 H133       -2.9212  -13.1724  -47.4400 H         1 UNK         0.0800 
    134 H134       -0.4805  -14.2893  -48.7911 H         1 UNK         0.0800 
    135 H135       -2.1491  -14.4553  -49.2801 H         1 UNK         0.0800 
    136 H136       -3.0252  -16.5790  -50.1572 H         1 UNK         0.1150 
    137 H137       -0.1620  -19.4735  -51.4941 H         1 UNK         0.1150 
    138 H138        1.0967  -16.1834  -49.0520 H         1 UNK         0.1150 
    139 H139        2.7225  -17.7558  -49.7475 H         1 UNK         0.0800 
    140 H140        2.4038  -18.2339  -51.3970 H         1 UNK         0.0800 
    141 H141        1.2565  -19.1926  -47.9334 H         1 UNK         0.0800 
    142 H142        2.7718  -19.9768  -47.5801 H         1 UNK         0.0800 
    143 H143        1.5867  -22.2062  -48.1721 H         1 UNK         0.0600 
    144 H144        1.6924  -20.8766  -45.7054 H         1 UNK         0.3000 
    145 H145        0.7708  -23.8524  -43.8556 H         1 UNK         0.0600 
    146 H146        2.9855  -23.2594  -42.9252 H         1 UNK         0.0600 
    147 H147        3.1288  -23.9065  -44.5517 H         1 UNK         0.0600 
    148 H148        3.2967  -22.1793  -44.2801 H         1 UNK         0.0600 
    149 H149        1.0420  -20.8759  -43.6133 H         1 UNK         0.3000 
    150 H150       -1.4017  -20.8924  -41.0185 H         1 UNK         0.0600 
    151 H151        0.6180  -21.4197  -39.6780 H         1 UNK         0.0600 
    152 H152        0.3040  -19.6911  -39.6762 H         1 UNK         0.0600 
    153 H153        1.5916  -20.3530  -40.6806 H         1 UNK         0.0600 
    154 H154        0.2032  -18.7701  -42.0222 H         1 UNK         0.3000 
    155 H155       -2.2172  -17.7053  -44.4546 H         1 UNK         0.0600 
    156 H156       -1.3526  -16.6636  -41.7073 H         1 UNK         0.0600 
    157 H157       -3.0060  -17.0545  -42.1649 H         1 UNK         0.0600 
    158 H158       -2.1658  -15.7467  -42.9770 H         1 UNK         0.0600 
    159 H159        0.3775  -16.8109  -43.4124 H         1 UNK         0.3000 
    160 H160        2.1445  -17.7646  -46.3839 H         1 UNK         0.0600 
    161 H161        1.3177  -15.1064  -45.1189 H         1 UNK         0.0600 
    162 H162        1.2473  -15.5289  -46.8208 H         1 UNK         0.0600 
    163 H163        2.8070  -15.3669  -46.0217 H         1 UNK         0.0600 
    164 H164        2.9696  -16.6444  -43.8923 H         1 UNK         0.3000 
    165 H165        3.3633  -19.6286  -42.0651 H         1 UNK         0.0600 
    166 H166        5.6775  -18.2600  -43.5360 H         1 UNK         0.0600 
    167 H167        5.8119  -19.2480  -42.0802 H         1 UNK         0.0600 
    168 H168        5.3075  -19.9798  -43.5944 H         1 UNK         0.0600 
    169 H169        4.5607  -17.1061  -41.6390 H         1 UNK         0.3000 
    170 H170        1.7962  -15.2295  -40.5287 H         1 UNK         0.0600 
    171 H171        2.3040  -16.6648  -38.5437 H         1 UNK         0.0600 
    172 H172        4.0272  -16.5180  -38.8683 H         1 UNK         0.0600 
    173 H173        3.0834  -15.0961  -38.4211 H         1 UNK         0.0600 
    174 H174        4.5022  -14.5668  -40.4026 H         1 UNK         0.3000 
    175 H175        5.4184  -13.0891  -41.7793 H         1 UNK         0.0600 
    176 H176        5.4651  -14.4958  -44.5104 H         1 UNK         0.0600 
    177 H177        6.7460  -13.4781  -43.8532 H         1 UNK         0.0600 
    178 H178        6.3593  -15.0101  -43.0841 H         1 UNK         0.0600 
    179 H179        4.4652  -12.2601  -44.3975 H         1 UNK         0.3000 
    180 H180        2.2045   -9.7840  -43.1969 H         1 UNK         0.0600 
    181 H181        4.8858   -9.5404  -44.6560 H         1 UNK         0.0600 
    182 H182        4.4038   -8.6710  -43.2089 H         1 UNK         0.0600 
    183 H183        3.5651   -8.3738  -44.7235 H         1 UNK         0.0600 
    184 H184        1.3553  -10.7733  -44.9284 H         1 UNK         0.3000 
    185 H185        1.6394  -10.9617  -47.6727 H         1 UNK         0.0600 
    186 H186        3.3662  -12.3687  -48.6848 H         1 UNK         0.0600 
    187 H187        2.9722  -13.7204  -47.6365 H         1 UNK         0.0600 
    188 H188        1.8211  -13.1839  -48.8586 H         1 UNK         0.0600 
    189 H189        0.9573  -13.1608  -45.7785 H         1 UNK         0.3000 
    190 H190       -0.8490  -19.8518  -46.9166 H         1 UNK         0.3000 
    191 H191       -2.8193  -20.4983  -48.9053 H         1 UNK         0.0600 
    192 H192       -3.1194  -19.0595  -46.2187 H         1 UNK         0.0600 
    193 H193       -4.2342  -18.9748  -47.5784 H         1 UNK         0.0600 
    194 H194       -2.6243  -18.2857  -47.7210 H         1 UNK         0.0600 
    195 H195       -1.8199  -22.3227  -46.2545 H         1 UNK         0.3000 
    196 H196       -4.4453  -23.6078  -45.7516 H         1 UNK         0.0600 
    197 H197       -3.2282  -24.8936  -44.0469 H         1 UNK         0.0600 
    198 H198       -2.9372  -23.1772  -43.8066 H         1 UNK         0.0600 
    199 H199       -1.6952  -24.1906  -44.5349 H         1 UNK         0.0600 
    200 H200       -1.1859  -24.3122  -47.1315 H         1 UNK         0.3000 
    201 H201       -1.7989  -26.9286  -48.0995 H         1 UNK         0.0600 
    202 H202        0.5199  -26.1610  -47.7248 H         1 UNK         0.0600 
    203 H203        0.3463  -24.9070  -48.9487 H         1 UNK         0.0600 
    204 H204        0.3125  -26.6053  -49.4126 H         1 UNK         0.0600 
    205 H205       -1.6778  -23.7223  -49.7277 H         1 UNK         0.3000 
    206 H206       -3.3569  -24.6849  -51.9994 H         1 UNK         0.0600 
    207 H207       -1.4570  -23.2576  -52.6240 H         1 UNK         0.0600 
    208 H208       -2.9428  -22.3431  -52.8287 H         1 UNK         0.0600 
    209 H209       -1.9100  -22.0442  -51.4318 H         1 UNK         0.0600 
    210 H210       -4.8427  -25.2397  -50.2023 H         1 UNK         0.3000 
    211 H211       -5.8775  -23.8410  -48.1995 H         1 UNK         0.0600 
    212 H212       -7.3529  -25.8431  -49.9728 H         1 UNK         0.0600 
    213 H213       -7.8417  -25.3815  -48.3470 H         1 UNK         0.0600 
    214 H214       -6.3151  -26.2115  -48.5974 H         1 UNK         0.0600 
    215 H215       -6.2650  -21.6744  -48.4624 H         1 UNK         0.3000 
    216 H216       -7.2988  -19.7549  -48.8898 H         1 UNK         0.0600 
    217 H217       -9.7673  -19.6902  -48.9607 H         1 UNK         0.0600 
    218 H218       -9.2402  -20.8648  -47.7670 H         1 UNK         0.0600 
    219 H219       -9.8431  -21.4072  -49.3324 H         1 UNK         0.0600 
    220 H220       -5.8616  -20.8761  -50.9661 H         1 UNK         0.3000 
    221 H221       -5.1728  -20.3521  -52.9683 H         1 UNK         0.0600 
    222 H222       -6.1504  -18.6758  -54.4216 H         1 UNK         0.0600 
    223 H223       -7.6950  -18.7397  -53.5921 H         1 UNK         0.0600 
    224 H224       -6.2751  -18.0847  -52.7740 H         1 UNK         0.0600 
    225 H225       -7.2752  -22.5947  -52.2778 H         1 UNK         0.3000 
    226 H226       -8.2757  -23.4910  -54.7958 H         1 UNK         0.0600 
    227 H227       -9.0492  -24.4613  -52.6519 H         1 UNK         0.0600 
    228 H228       -8.3737  -25.7199  -53.6725 H         1 UNK         0.0600 
    229 H229       -7.4328  -25.0939  -52.3254 H         1 UNK         0.0600 
    230 H230       -7.3251  -24.4908  -56.4545 H         1 UNK         0.3000 
    231 H231       -5.8574  -25.1963  -57.9243 H         1 UNK         0.0600 
    232 H232       -5.4148  -27.0882  -56.3237 H         1 UNK         0.0600 
    233 H233       -4.0570  -26.1829  -55.6541 H         1 UNK         0.0600 
    234 H234       -4.0294  -26.7039  -57.3304 H         1 UNK         0.0600 
    235 H235       -5.6067  -22.5159  -56.5130 H         1 UNK         0.3000 
    236 H236       -4.6714  -20.5839  -56.8408 H         1 UNK         0.0600 
    237 H237       -3.0284  -20.1159  -58.5977 H         1 UNK         0.0600 
    238 H238       -2.6301  -21.8161  -58.7674 H         1 UNK         0.0600 
    239 H239       -4.2267  -21.2295  -59.2334 H         1 UNK         0.0600 
    240 H240       -2.9174  -19.2351  -56.1478 H         1 UNK         0.3000 
    241 H241       -1.4499  -20.3767  -53.9236 H         1 UNK         0.0600 
    242 H242        1.2045  -20.2312  -56.9367 H         1 UNK         0.3800 
    243 H243       -0.5149  -20.2136  -57.2265 H         1 UNK         0.3800 
    244 H244       -1.5572  -17.5168  -54.9773 H         1 UNK         0.0800 
    245 H245       -0.7542  -17.9762  -53.5131 H         1 UNK         0.0800 
    246 H246       -2.5424  -19.8785  -51.8180 H         1 UNK         0.0800 
    247 H247       -3.7232  -18.8420  -51.0709 H         1 UNK         0.0800 
@<TRIPOS>BOND
     1    1    2 1    
     2    1  127 1    
     3    1  128 1    
     4    1  129 1    
     5    2    3 2    
     6    2    4 am   BACKBONE|DICT|INTERRES
     7    4    5 1    
     8    4  130 1    
     9    5    6 1    
    10    5   65 1    
    11    5  131 1    
    12    6    7 1    
    13    6  132 1    
    14    6  133 1    
    15    7    8 1    
    16    8    9 1    
    17    8  134 1    
    18    8  135 1    
    19    9   10 ar   
    20    9   14 ar   
    21   10   11 ar   
    22   10  136 1    
    23   11   12 ar   
    24   11  126 1    
    25   12   13 ar   
    26   12  137 1    
    27   13   14 ar   
    28   13   15 1    
    29   14  138 1    
    30   15   16 1    
    31   15  139 1    
    32   15  140 1    
    33   16   17 1    
    34   17   18 1    
    35   17  141 1    
    36   17  142 1    
    37   18   19 1    
    38   18   67 1    
    39   18  143 1    
    40   19   20 am   BACKBONE|DICT|INTERRES
    41   19  144 1    
    42   20   21 2    
    43   20   22 1    
    44   22   23 1    
    45   22   24 1    
    46   22  145 1    
    47   23  146 1    
    48   23  147 1    
    49   23  148 1    
    50   24   25 am   BACKBONE|DICT|INTERRES
    51   24  149 1    
    52   25   26 2    
    53   25   27 1    
    54   27   28 1    
    55   27   29 1    
    56   27  150 1    
    57   28  151 1    
    58   28  152 1    
    59   28  153 1    
    60   29   30 am   BACKBONE|DICT|INTERRES
    61   29  154 1    
    62   30   31 2    
    63   30   32 1    
    64   32   33 1    
    65   32   34 1    
    66   32  155 1    
    67   33  156 1    
    68   33  157 1    
    69   33  158 1    
    70   34   35 am   BACKBONE|DICT|INTERRES
    71   34  159 1    
    72   35   36 2    
    73   35   37 1    
    74   37   38 1    
    75   37   39 1    
    76   37  160 1    
    77   38  161 1    
    78   38  162 1    
    79   38  163 1    
    80   39   40 am   BACKBONE|DICT|INTERRES
    81   39  164 1    
    82   40   41 2    
    83   40   42 1    
    84   42   43 1    
    85   42   44 1    
    86   42  165 1    
    87   43  166 1    
    88   43  167 1    
    89   43  168 1    
    90   44   45 am   BACKBONE|DICT|INTERRES
    91   44  169 1    
    92   45   46 2    
    93   45   47 1    
    94   47   48 1    
    95   47   49 1    
    96   47  170 1    
    97   48  171 1    
    98   48  172 1    
    99   48  173 1    
   100   49   50 am   BACKBONE|DICT|INTERRES
   101   49  174 1    
   102   50   51 2    
   103   50   52 1    
   104   52   53 1    
   105   52   54 1    
   106   52  175 1    
   107   53  176 1    
   108   53  177 1    
   109   53  178 1    
   110   54   55 am   BACKBONE|DICT|INTERRES
   111   54  179 1    
   112   55   56 2    
   113   55   57 1    
   114   57   58 1    
   115   57   59 1    
   116   57  180 1    
   117   58  181 1    
   118   58  182 1    
   119   58  183 1    
   120   59   60 am   BACKBONE|DICT|INTERRES
   121   59  184 1    
   122   60   61 2    
   123   60   62 1    
   124   62   63 1    
   125   62   64 1    
   126   62  185 1    
   127   63  186 1    
   128   63  187 1    
   129   63  188 1    
   130   64   65 am   BACKBONE|DICT|INTERRES
   131   64  189 1    
   132   65   66 2    
   133   67   68 2    
   134   67   69 am   BACKBONE|DICT|INTERRES
   135   69   70 1    
   136   69  190 1    
   137   70   71 1    
   138   70   72 1    
   139   70  191 1    
   140   71  192 1    
   141   71  193 1    
   142   71  194 1    
   143   72   73 2    
   144   72   74 am   BACKBONE|DICT|INTERRES
   145   74   75 1    
   146   74  195 1    
   147   75   76 1    
   148   75   77 1    
   149   75  196 1    
   150   76  197 1    
   151   76  198 1    
   152   76  199 1    
   153   77   78 2    
   154   77   79 am   BACKBONE|DICT|INTERRES
   155   79   80 1    
   156   79  200 1    
   157   80   81 1    
   158   80   82 1    
   159   80  201 1    
   160   81  202 1    
   161   81  203 1    
   162   81  204 1    
   163   82   83 2    
   164   82   84 am   BACKBONE|DICT|INTERRES
   165   84   85 1    
   166   84  205 1    
   167   85   86 1    
   168   85   87 1    
   169   85  206 1    
   170   86  207 1    
   171   86  208 1    
   172   86  209 1    
   173   87   88 2    
   174   87   89 am   BACKBONE|DICT|INTERRES
   175   89   90 1    
   176   89  210 1    
   177   90   91 1    
   178   90   92 1    
   179   90  211 1    
   180   91  212 1    
   181   91  213 1    
   182   91  214 1    
   183   92   93 2    
   184   92   94 am   BACKBONE|DICT|INTERRES
   185   94   95 1    
   186   94  215 1    
   187   95   96 1    
   188   95   97 1    
   189   95  216 1    
   190   96  217 1    
   191   96  218 1    
   192   96  219 1    
   193   97   98 2    
   194   97   99 am   BACKBONE|DICT|INTERRES
   195   99  100 1    
   196   99  220 1    
   197  100  101 1    
   198  100  102 1    
   199  100  221 1    
   200  101  222 1    
   201  101  223 1    
   202  101  224 1    
   203  102  103 2    
   204  102  104 am   BACKBONE|DICT|INTERRES
   205  104  105 1    
   206  104  225 1    
   207  105  106 1    
   208  105  107 1    
   209  105  226 1    
   210  106  227 1    
   211  106  228 1    
   212  106  229 1    
   213  107  108 2    
   214  107  109 am   BACKBONE|DICT|INTERRES
   215  109  110 1    
   216  109  230 1    
   217  110  111 1    
   218  110  112 1    
   219  110  231 1    
   220  111  232 1    
   221  111  233 1    
   222  111  234 1    
   223  112  113 2    
   224  112  114 am   BACKBONE|DICT|INTERRES
   225  114  115 1    
   226  114  235 1    
   227  115  116 1    
   228  115  117 1    
   229  115  236 1    
   230  116  237 1    
   231  116  238 1    
   232  116  239 1    
   233  117  118 2    
   234  117  119 am   BACKBONE|DICT|INTERRES
   235  119  120 1    
   236  119  240 1    
   237  120  121 1    
   238  120  124 1    
   239  120  241 1    
   240  121  122 am   BACKBONE|DICT|INTERRES
   241  121  123 2    
   242  122  242 1    
   243  122  243 1    
   244  124  125 1    
   245  124  244 1    
   246  124  245 1    
   247  125  126 1    
   248  126  246 1    
   249  126  247 1    
@<TRIPOS>SUBSTRUCTURE
     1 UNK         1 GROUP             0       ****    0 ROOT    
