@<TRIPOS>MOLECULE
3R540
247   249    1
SMALL
USER_CHARGES


@<TRIPOS>ATOM
      1 CA         -0.2394  -10.3733  -46.7058 C.3       0 UNK        -0.1800 
      2 C           0.2280  -11.7528  -47.1478 C.2       0 UNK         0.5000 
      3 O           0.1912  -12.6846  -46.3482 O.2       0 UNK        -0.5000 
      4 N           0.6847  -11.8617  -48.4037 N.am      1 UNK        -0.5000 
      5 CA          1.1731  -13.0356  -49.1528 C.3       1 UNK         0.1400 
      6 C6          0.0661  -14.0386  -49.5798 C.3       23 UNK        -0.0398 
      7 S7         -0.5909  -15.1557  -48.2892 S.3       23 UNK        -0.2404 
      8 C8         -1.9140  -16.0165  -49.1987 C.3       23 UNK        -0.0205 
      9 C9         -1.3481  -17.0258  -50.1859 C.ar      23 UNK        -0.0193 
     10 C10        -1.0539  -16.6416  -51.4965 C.ar      23 UNK        -0.1150 
     11 C11        -0.4944  -17.5528  -52.3953 C.ar      23 UNK        -0.0193 
     12 C12        -0.2345  -18.8598  -51.9766 C.ar      23 UNK        -0.1150 
     13 C13        -0.5524  -19.2657  -50.6775 C.ar      23 UNK        -0.0193 
     14 C14        -1.1168  -18.3452  -49.7886 C.ar      23 UNK        -0.1150 
     15 C15        -0.3439  -20.7139  -50.2669 C.3       23 UNK        -0.0205 
     16 S16         1.1856  -20.9856  -49.3107 S.3       23 UNK        -0.2404 
     17 C17         0.6995  -20.6019  -47.5895 C.3       23 UNK        -0.0398 
     18 CA          0.1280  -21.8254  -46.8275 C.3       11 UNK         0.1400 
     19 N           0.2978  -21.7121  -45.3758 N.am      11 UNK        -0.5000 
     20 C           0.0278  -22.6954  -44.5035 C.2       10 UNK         0.5000 
     21 O          -0.3430  -23.8207  -44.8346 O.2       10 UNK        -0.5000 
     22 CA          0.1262  -22.3522  -43.0079 C.3       10 UNK         0.1400 
     23 CB          1.5882  -22.3592  -42.5388 C.3       10 UNK        -0.1800 
     24 N          -0.5047  -21.0714  -42.6861 N.am      10 UNK        -0.5000 
     25 C          -1.8098  -20.8103  -42.8547 C.2       9 UNK         0.5000 
     26 O          -2.6255  -21.6413  -43.2521 O.2       9 UNK        -0.5000 
     27 CA         -2.2804  -19.3723  -42.5772 C.3       9 UNK         0.1400 
     28 CB         -2.4898  -19.1490  -41.0722 C.3       9 UNK        -0.1800 
     29 N          -1.3603  -18.3639  -43.1006 N.am      9 UNK        -0.5000 
     30 C          -1.0557  -18.1959  -44.3960 C.2       8 UNK         0.5000 
     31 O          -1.5466  -18.8567  -45.3114 O.2       8 UNK        -0.5000 
     32 CA          0.0372  -17.1603  -44.7101 C.3       8 UNK         0.1400 
     33 CB         -0.5011  -15.7262  -44.6034 C.3       8 UNK        -0.1800 
     34 N           1.1930  -17.3161  -43.8283 N.am      8 UNK        -0.5000 
     35 C           1.9980  -18.3877  -43.8167 C.2       7 UNK         0.5000 
     36 O           1.8793  -19.3444  -44.5824 O.2       7 UNK        -0.5000 
     37 CA          3.0930  -18.4077  -42.7372 C.3       7 UNK         0.1400 
     38 CB          4.3394  -17.6516  -43.2130 C.3       7 UNK        -0.1800 
     39 N           2.6278  -17.8376  -41.4721 N.am      7 UNK        -0.5000 
     40 C           1.7446  -18.4426  -40.6653 C.2       6 UNK         0.5000 
     41 O           1.2453  -19.5419  -40.9014 O.2       6 UNK        -0.5000 
     42 CA          1.3128  -17.6723  -39.4063 C.3       6 UNK         0.1400 
     43 CB          2.3405  -17.8533  -38.2793 C.3       6 UNK        -0.1800 
     44 N           1.1086  -16.2449  -39.6546 N.am      6 UNK        -0.5000 
     45 C           0.1646  -15.7387  -40.4620 C.2       5 UNK         0.5000 
     46 O          -0.6176  -16.4383  -41.1045 O.2       5 UNK        -0.5000 
     47 CA          0.0874  -14.2074  -40.5934 C.3       5 UNK         0.1400 
     48 CB         -1.3557  -13.6890  -40.4778 C.3       5 UNK        -0.1800 
     49 N           0.9231  -13.5448  -39.5852 N.am      5 UNK        -0.5000 
     50 C           1.8193  -12.5634  -39.7527 C.2       4 UNK         0.5000 
     51 O           2.5467  -12.2116  -38.8238 O.2       4 UNK        -0.5000 
     52 CA          1.9591  -11.8369  -41.1108 C.3       4 UNK         0.1400 
     53 CB          1.8984  -10.3117  -40.9190 C.3       4 UNK        -0.1800 
     54 N           3.2125  -12.1685  -41.7864 N.am      4 UNK        -0.5000 
     55 C           3.6009  -13.3802  -42.2041 C.2       3 UNK         0.5000 
     56 O           2.9615  -14.4230  -42.0383 O.2       3 UNK        -0.5000 
     57 CA          4.9315  -13.4252  -42.9796 C.3       3 UNK         0.1400 
     58 CB          5.9875  -14.2390  -42.2156 C.3       3 UNK        -0.1800 
     59 N           4.7435  -13.9931  -44.3160 N.am      3 UNK        -0.5000 
     60 C           3.9767  -13.4463  -45.2696 C.2       2 UNK         0.5000 
     61 O           3.4367  -12.3423  -45.1525 O.2       2 UNK        -0.5000 
     62 CA          3.7894  -14.2529  -46.5676 C.3       2 UNK         0.1400 
     63 CB          3.5792  -15.7601  -46.3226 C.3       2 UNK        -0.1800 
     64 N           2.6418  -13.7130  -47.2853 N.am      2 UNK        -0.5000 
     65 C           2.4401  -13.7345  -48.6025 C.2       1 UNK         0.5000 
     66 O           3.2269  -14.2555  -49.3952 O.2       1 UNK        -0.5000 
     67 C          -1.3448  -22.0885  -47.2011 C.2       11 UNK         0.5000 
     68 O          -1.6194  -23.0040  -47.9773 O.2       11 UNK        -0.5000 
     69 N          -2.2695  -21.3048  -46.6286 N.am      12 UNK        -0.5000 
     70 CA         -3.7120  -21.4375  -46.8402 C.3       12 UNK         0.1400 
     71 CB         -4.4464  -20.2932  -46.1275 C.3       12 UNK        -0.1800 
     72 C          -4.2705  -22.8055  -46.4049 C.2       12 UNK         0.5000 
     73 O          -5.1584  -23.3312  -47.0735 O.2       12 UNK        -0.5000 
     74 N          -3.7266  -23.3708  -45.3207 N.am      13 UNK        -0.5000 
     75 CA         -4.0543  -24.7101  -44.8415 C.3       13 UNK         0.1400 
     76 CB         -3.5868  -24.8610  -43.3851 C.3       13 UNK        -0.1800 
     77 C          -3.4544  -25.8175  -45.7279 C.2       13 UNK         0.5000 
     78 O          -4.1755  -26.7364  -46.1181 O.2       13 UNK        -0.5000 
     79 N          -2.1464  -25.7304  -46.0056 N.am      14 UNK        -0.5000 
     80 CA         -1.3800  -26.7896  -46.6628 C.3       14 UNK         0.1400 
     81 CB          0.1103  -26.6240  -46.3268 C.3       14 UNK        -0.1800 
     82 C          -1.5754  -26.8483  -48.1864 C.2       14 UNK         0.5000 
     83 O          -1.7122  -27.9441  -48.7323 O.2       14 UNK        -0.5000 
     84 N          -1.5500  -25.6849  -48.8474 N.am      15 UNK        -0.5000 
     85 CA         -1.5355  -25.5630  -50.3070 C.3       15 UNK         0.1400 
     86 CB         -0.3919  -24.6173  -50.7104 C.3       15 UNK        -0.1800 
     87 C          -2.8720  -25.0661  -50.8809 C.2       15 UNK         0.5000 
     88 O          -2.9974  -24.9911  -52.1039 O.2       15 UNK        -0.5000 
     89 N          -3.8360  -24.7148  -50.0155 N.am      16 UNK        -0.5000 
     90 CA         -5.1841  -24.2412  -50.3582 C.3       16 UNK         0.1400 
     91 CB         -6.0123  -25.3852  -50.9814 C.3       16 UNK        -0.1800 
     92 C          -5.1687  -22.9688  -51.2315 C.2       16 UNK         0.5000 
     93 O          -5.9246  -22.8804  -52.1984 O.2       16 UNK        -0.5000 
     94 N          -4.2681  -22.0280  -50.9034 N.am      17 UNK        -0.5000 
     95 CA         -3.9836  -20.7952  -51.6547 C.3       17 UNK         0.1400 
     96 CB         -5.1836  -19.8262  -51.6079 C.3       17 UNK        -0.1800 
     97 C          -3.4932  -21.0896  -53.0900 C.2       17 UNK         0.5000 
     98 O          -3.9588  -20.4699  -54.0489 O.2       17 UNK        -0.5000 
     99 N          -2.5851  -22.0735  -53.1911 N.am      18 UNK        -0.5000 
    100 CA        -2.0228  -22.6491  -54.4168 C.3       18 UNK         0.1400 
    101 CB        -1.1640  -21.6109  -55.1677 C.3       18 UNK        -0.1800 
    102 C         -3.1154  -23.2872  -55.2974 C.2       18 UNK         0.5000 
    103 O         -3.2233  -22.9685  -56.4810 O.2       18 UNK        -0.5000 
    104 N         -3.9384  -24.1484  -54.6806 N.am      19 UNK        -0.5000 
    105 CA        -5.1332  -24.7843  -55.2516 C.3       19 UNK         0.1400 
    106 CB        -4.7362  -25.8417  -56.3022 C.3       19 UNK        -0.1800 
    107 C         -6.1465  -23.7463  -55.7844 C.2       19 UNK         0.5000 
    108 O         -6.6443  -23.8697  -56.9047 O.2       19 UNK        -0.5000 
    109 N         -6.3889  -22.7174  -54.9621 N.am      20 UNK        -0.5000 
    110 CA        -7.2327  -21.5403  -55.1761 C.3       20 UNK         0.1400 
    111 CB        -8.7034  -21.9490  -55.3971 C.3       20 UNK        -0.1800 
    112 C         -6.7362  -20.5559  -56.2569 C.2       20 UNK         0.5000 
    113 O         -7.4262  -19.5662  -56.5100 O.2       20 UNK        -0.5000 
    114 N         -5.5577  -20.7880  -56.8569 N.am      21 UNK        -0.5000 
    115 CA        -4.9844  -19.9362  -57.9052 C.3       21 UNK         0.1400 
    116 CB        -3.7512  -20.6138  -58.5185 C.3       21 UNK        -0.1800 
    117 C         -4.6297  -18.5175  -57.4225 C.2       21 UNK         0.5000 
    118 O         -4.7072  -17.5768  -58.2143 O.2       21 UNK        -0.5000 
    119 N         -4.2787  -18.3838  -56.1380 N.am      22 UNK        -0.5000 
    120 CA        -4.0381  -17.0954  -55.4708 C.3       22 UNK         0.1400 
    121 C         -5.3338  -16.4256  -54.9207 C.2       22 UNK         0.5000 
    122 N         -6.5206  -16.9972  -55.0963 N.am      22 UNK        -0.7600 
    123 O         -5.2660  -15.3501  -54.3319 O.2       22 UNK        -0.5000 
    124 C124       -2.9506  -17.2098  -54.3737 C.3       23 UNK        -0.0398 
    125 S125       -1.3588  -17.8356  -55.0146 S.3       23 UNK        -0.2404 
    126 C126       -0.1812  -17.1270  -53.8215 C.3       23 UNK        -0.0205 
    127 H127       -0.1464   -9.6361  -47.5036 H         1 UNK         0.0600 
    128 H128        0.3530  -10.0325  -45.8565 H         1 UNK         0.0600 
    129 H129       -1.2847  -10.4129  -46.3995 H         1 UNK         0.0600 
    130 H130        0.7020  -11.0122  -48.9506 H         1 UNK         0.3000 
    131 H131        1.5171  -12.5843  -50.0850 H         1 UNK         0.0600 
    132 H132        0.4624  -14.6616  -50.3819 H         1 UNK         0.0800 
    133 H133       -0.7693  -13.4907  -50.0173 H         1 UNK         0.0800 
    134 H134       -2.5589  -16.5245  -48.4800 H         1 UNK         0.0800 
    135 H135       -2.5450  -15.2896  -49.7124 H         1 UNK         0.0800 
    136 H136       -1.2537  -15.6282  -51.8147 H         1 UNK         0.1150 
    137 H137        0.1906  -19.5669  -52.6750 H         1 UNK         0.1150 
    138 H138       -1.3833  -18.6485  -48.7873 H         1 UNK         0.1150 
    139 H139       -1.2169  -21.0616  -49.7205 H         1 UNK         0.0800 
    140 H140       -0.2917  -21.3381  -51.1600 H         1 UNK         0.0800 
    141 H141        0.0298  -19.7448  -47.5461 H         1 UNK         0.0800 
    142 H142        1.6138  -20.2694  -47.0968 H         1 UNK         0.0800 
    143 H143        0.6986  -22.7065  -47.1298 H         1 UNK         0.0600 
    144 H144        0.6310  -20.8199  -45.0226 H         1 UNK         0.3000 
    145 H145       -0.4067  -23.1294  -42.4562 H         1 UNK         0.0600 
    146 H146        1.6568  -22.2095  -41.4614 H         1 UNK         0.0600 
    147 H147        2.0654  -23.3138  -42.7642 H         1 UNK         0.0600 
    148 H148        2.1726  -21.5780  -43.0241 H         1 UNK         0.0600 
    149 H149        0.0960  -20.3545  -42.2911 H         1 UNK         0.3000 
    150 H150       -3.2409  -19.2342  -43.0772 H         1 UNK         0.0600 
    151 H151       -2.9034  -18.1598  -40.8751 H         1 UNK         0.0600 
    152 H152       -3.1858  -19.8812  -40.6611 H         1 UNK         0.0600 
    153 H153       -1.5545  -19.2358  -40.5184 H         1 UNK         0.0600 
    154 H154       -0.9348  -17.7463  -42.4136 H         1 UNK         0.3000 
    155 H155        0.3692  -17.3227  -45.7381 H         1 UNK         0.0600 
    156 H156       -0.8448  -15.4896  -43.5968 H         1 UNK         0.0600 
    157 H157       -1.3434  -15.5762  -45.2797 H         1 UNK         0.0600 
    158 H158        0.2649  -14.9998  -44.8755 H         1 UNK         0.0600 
    159 H159        1.3516  -16.5876  -43.1478 H         1 UNK         0.3000 
    160 H160        3.3747  -19.4485  -42.5644 H         1 UNK         0.0600 
    161 H161        4.1200  -16.5992  -43.3868 H         1 UNK         0.0600 
    162 H162        4.7181  -18.0709  -44.1459 H         1 UNK         0.0600 
    163 H163        5.1425  -17.7136  -42.4787 H         1 UNK         0.0600 
    164 H164        2.9595  -16.9132  -41.2325 H         1 UNK         0.3000 
    165 H165        0.3624  -18.0934  -39.0714 H         1 UNK         0.0600 
    166 H166        2.0010  -17.3820  -37.3567 H         1 UNK         0.0600 
    167 H167        2.4997  -18.9106  -38.0630 H         1 UNK         0.0600 
    168 H168        3.3076  -17.4222  -38.5409 H         1 UNK         0.0600 
    169 H169        1.7548  -15.6091  -39.2111 H         1 UNK         0.3000 
    170 H170        0.4382  -14.0190  -41.6056 H         1 UNK         0.0600 
    171 H171       -2.0007  -14.1441  -41.2307 H         1 UNK         0.0600 
    172 H172       -1.7835  -13.9108  -39.4996 H         1 UNK         0.0600 
    173 H173       -1.3994  -12.6099  -40.6261 H         1 UNK         0.0600 
    174 H174        0.8342  -13.9329  -38.6574 H         1 UNK         0.3000 
    175 H175        1.1380  -12.0786  -41.7818 H         1 UNK         0.0600 
    176 H176        2.7311   -9.9427  -40.3185 H         1 UNK         0.0600 
    177 H177        1.9219   -9.7923  -41.8773 H         1 UNK         0.0600 
    178 H178        0.9758  -10.0192  -40.4158 H         1 UNK         0.0600 
    179 H179        3.8211  -11.3856  -41.9743 H         1 UNK         0.3000 
    180 H180        5.3122  -12.4087  -43.1003 H         1 UNK         0.0600 
    181 H181        5.6692  -15.2681  -42.0511 H         1 UNK         0.0600 
    182 H182        6.1810  -13.7989  -41.2366 H         1 UNK         0.0600 
    183 H183        6.9354  -14.2618  -42.7536 H         1 UNK         0.0600 
    184 H184        5.1553  -14.8989  -44.4800 H         1 UNK         0.3000 
    185 H185        4.6886  -14.1081  -47.1694 H         1 UNK         0.0600 
    186 H186        4.4697  -16.2248  -45.9003 H         1 UNK         0.0600 
    187 H187        2.7490  -15.9354  -45.6397 H         1 UNK         0.0600 
    188 H188        3.3590  -16.2871  -47.2511 H         1 UNK         0.0600 
    189 H189        1.9428  -13.2520  -46.7058 H         1 UNK         0.3000 
    190 H190       -1.9696  -20.5465  -46.0197 H         1 UNK         0.3000 
    191 H191       -3.8949  -21.3361  -47.9116 H         1 UNK         0.0600 
    192 H192       -4.1085  -19.3219  -46.4892 H         1 UNK         0.0600 
    193 H193       -5.5215  -20.3499  -46.3022 H         1 UNK         0.0600 
    194 H194       -4.2865  -20.3236  -45.0498 H         1 UNK         0.0600 
    195 H195       -3.0522  -22.8404  -44.7777 H         1 UNK         0.3000 
    196 H196       -5.1405  -24.8237  -44.8552 H         1 UNK         0.0600 
    197 H197       -3.8224  -25.8534  -42.9990 H         1 UNK         0.0600 
    198 H198       -4.0788  -24.1344  -42.7382 H         1 UNK         0.0600 
    199 H199       -2.5103  -24.7162  -43.2879 H         1 UNK         0.0600 
    200 H200       -1.6103  -24.9477  -45.6374 H         1 UNK         0.3000 
    201 H201       -1.7034  -27.7489  -46.2527 H         1 UNK         0.0600 
    202 H202        0.2770  -26.6519  -45.2499 H         1 UNK         0.0600 
    203 H203        0.5050  -25.6787  -46.7016 H         1 UNK         0.0600 
    204 H204        0.7030  -27.4258  -46.7689 H         1 UNK         0.0600 
    205 H205       -1.4767  -24.8113  -48.3296 H         1 UNK         0.3000 
    206 H206       -1.3389  -26.5324  -50.7692 H         1 UNK         0.0600 
    207 H207        0.5680  -24.9849  -50.3473 H         1 UNK         0.0600 
    208 H208       -0.3143  -24.5287  -51.7947 H         1 UNK         0.0600 
    209 H209       -0.5369  -23.6162  -50.3078 H         1 UNK         0.0600 
    210 H210       -3.6311  -24.7909  -49.0288 H         1 UNK         0.3000 
    211 H211       -5.6768  -23.9622  -49.4294 H         1 UNK         0.0600 
    212 H212       -5.6126  -25.7001  -51.9454 H         1 UNK         0.0600 
    213 H213       -7.0466  -25.0783  -51.1410 H         1 UNK         0.0600 
    214 H214       -6.0318  -26.2566  -50.3270 H         1 UNK         0.0600 
    215 H215       -3.6781  -22.2101  -50.1043 H         1 UNK         0.3000 
    216 H216       -3.1565  -20.3029  -51.1449 H         1 UNK         0.0600 
    217 H217       -6.0473  -20.2182  -52.1448 H         1 UNK         0.0600 
    218 H218       -4.9294  -18.8669  -52.0593 H         1 UNK         0.0600 
    219 H219       -5.4890  -19.6287  -50.5805 H         1 UNK         0.0600 
    220 H220       -2.3412  -22.5653  -52.3448 H         1 UNK         0.3000 
    221 H221       -1.3634  -23.4607  -54.1059 H         1 UNK         0.0600 
    222 H222       -1.7680  -20.7914  -55.5573 H         1 UNK         0.0600 
    223 H223       -0.4008  -21.1839  -54.5176 H         1 UNK         0.0600 
    224 H224       -0.6524  -22.0683  -56.0150 H         1 UNK         0.0600 
    225 H225       -3.7429  -24.3704  -53.7065 H         1 UNK         0.3000 
    226 H226       -5.6290  -25.3034  -54.4303 H         1 UNK         0.0600 
    227 H227       -4.0404  -26.5690  -55.8842 H         1 UNK         0.0600 
    228 H228       -5.6106  -26.3923  -56.6509 H         1 UNK         0.0600 
    229 H229       -4.2647  -25.3897  -57.1753 H         1 UNK         0.0600 
    230 H230       -5.9571  -22.7481  -54.0404 H         1 UNK         0.3000 
    231 H231       -7.1887  -20.9857  -54.2381 H         1 UNK         0.0600 
    232 H232       -8.8458  -22.4537  -56.3528 H         1 UNK         0.0600 
    233 H233       -9.3577  -21.0766  -55.3906 H         1 UNK         0.0600 
    234 H234       -9.0495  -22.6169  -54.6082 H         1 UNK         0.0600 
    235 H235       -5.0132  -21.5954  -56.5787 H         1 UNK         0.3000 
    236 H236       -5.7365  -19.8364  -58.6904 H         1 UNK         0.0600 
    237 H237       -3.9842  -21.6184  -58.8721 H         1 UNK         0.0600 
    238 H238       -3.3794  -20.0456  -59.3719 H         1 UNK         0.0600 
    239 H239       -2.9360  -20.6886  -57.7983 H         1 UNK         0.0600 
    240 H240       -4.2290  -19.2076  -55.5441 H         1 UNK         0.3000 
    241 H241       -3.6533  -16.3954  -56.2147 H         1 UNK         0.0600 
    242 H242       -6.6184  -17.8644  -55.6103 H         1 UNK         0.3800 
    243 H243       -7.3433  -16.5390  -54.7380 H         1 UNK         0.3800 
    244 H244       -3.2821  -17.8665  -53.5690 H         1 UNK         0.0800 
    245 H245       -2.7741  -16.2332  -53.9200 H         1 UNK         0.0800 
    246 H246       -0.1863  -16.0398  -53.9129 H         1 UNK         0.0800 
    247 H247        0.8270  -17.4514  -54.0829 H         1 UNK         0.0800 
@<TRIPOS>BOND
     1    1    2 1    
     2    1  127 1    
     3    1  128 1    
     4    1  129 1    
     5    2    3 2    
     6    2    4 am   BACKBONE|DICT|INTERRES
     7    4    5 1    
     8    4  130 1    
     9    5    6 1    
    10    5   65 1    
    11    5  131 1    
    12    6    7 1    
    13    6  132 1    
    14    6  133 1    
    15    7    8 1    
    16    8    9 1    
    17    8  134 1    
    18    8  135 1    
    19    9   10 ar   
    20    9   14 ar   
    21   10   11 ar   
    22   10  136 1    
    23   11   12 ar   
    24   11  126 1    
    25   12   13 ar   
    26   12  137 1    
    27   13   14 ar   
    28   13   15 1    
    29   14  138 1    
    30   15   16 1    
    31   15  139 1    
    32   15  140 1    
    33   16   17 1    
    34   17   18 1    
    35   17  141 1    
    36   17  142 1    
    37   18   19 1    
    38   18   67 1    
    39   18  143 1    
    40   19   20 am   BACKBONE|DICT|INTERRES
    41   19  144 1    
    42   20   21 2    
    43   20   22 1    
    44   22   23 1    
    45   22   24 1    
    46   22  145 1    
    47   23  146 1    
    48   23  147 1    
    49   23  148 1    
    50   24   25 am   BACKBONE|DICT|INTERRES
    51   24  149 1    
    52   25   26 2    
    53   25   27 1    
    54   27   28 1    
    55   27   29 1    
    56   27  150 1    
    57   28  151 1    
    58   28  152 1    
    59   28  153 1    
    60   29   30 am   BACKBONE|DICT|INTERRES
    61   29  154 1    
    62   30   31 2    
    63   30   32 1    
    64   32   33 1    
    65   32   34 1    
    66   32  155 1    
    67   33  156 1    
    68   33  157 1    
    69   33  158 1    
    70   34   35 am   BACKBONE|DICT|INTERRES
    71   34  159 1    
    72   35   36 2    
    73   35   37 1    
    74   37   38 1    
    75   37   39 1    
    76   37  160 1    
    77   38  161 1    
    78   38  162 1    
    79   38  163 1    
    80   39   40 am   BACKBONE|DICT|INTERRES
    81   39  164 1    
    82   40   41 2    
    83   40   42 1    
    84   42   43 1    
    85   42   44 1    
    86   42  165 1    
    87   43  166 1    
    88   43  167 1    
    89   43  168 1    
    90   44   45 am   BACKBONE|DICT|INTERRES
    91   44  169 1    
    92   45   46 2    
    93   45   47 1    
    94   47   48 1    
    95   47   49 1    
    96   47  170 1    
    97   48  171 1    
    98   48  172 1    
    99   48  173 1    
   100   49   50 am   BACKBONE|DICT|INTERRES
   101   49  174 1    
   102   50   51 2    
   103   50   52 1    
   104   52   53 1    
   105   52   54 1    
   106   52  175 1    
   107   53  176 1    
   108   53  177 1    
   109   53  178 1    
   110   54   55 am   BACKBONE|DICT|INTERRES
   111   54  179 1    
   112   55   56 2    
   113   55   57 1    
   114   57   58 1    
   115   57   59 1    
   116   57  180 1    
   117   58  181 1    
   118   58  182 1    
   119   58  183 1    
   120   59   60 am   BACKBONE|DICT|INTERRES
   121   59  184 1    
   122   60   61 2    
   123   60   62 1    
   124   62   63 1    
   125   62   64 1    
   126   62  185 1    
   127   63  186 1    
   128   63  187 1    
   129   63  188 1    
   130   64   65 am   BACKBONE|DICT|INTERRES
   131   64  189 1    
   132   65   66 2    
   133   67   68 2    
   134   67   69 am   BACKBONE|DICT|INTERRES
   135   69   70 1    
   136   69  190 1    
   137   70   71 1    
   138   70   72 1    
   139   70  191 1    
   140   71  192 1    
   141   71  193 1    
   142   71  194 1    
   143   72   73 2    
   144   72   74 am   BACKBONE|DICT|INTERRES
   145   74   75 1    
   146   74  195 1    
   147   75   76 1    
   148   75   77 1    
   149   75  196 1    
   150   76  197 1    
   151   76  198 1    
   152   76  199 1    
   153   77   78 2    
   154   77   79 am   BACKBONE|DICT|INTERRES
   155   79   80 1    
   156   79  200 1    
   157   80   81 1    
   158   80   82 1    
   159   80  201 1    
   160   81  202 1    
   161   81  203 1    
   162   81  204 1    
   163   82   83 2    
   164   82   84 am   BACKBONE|DICT|INTERRES
   165   84   85 1    
   166   84  205 1    
   167   85   86 1    
   168   85   87 1    
   169   85  206 1    
   170   86  207 1    
   171   86  208 1    
   172   86  209 1    
   173   87   88 2    
   174   87   89 am   BACKBONE|DICT|INTERRES
   175   89   90 1    
   176   89  210 1    
   177   90   91 1    
   178   90   92 1    
   179   90  211 1    
   180   91  212 1    
   181   91  213 1    
   182   91  214 1    
   183   92   93 2    
   184   92   94 am   BACKBONE|DICT|INTERRES
   185   94   95 1    
   186   94  215 1    
   187   95   96 1    
   188   95   97 1    
   189   95  216 1    
   190   96  217 1    
   191   96  218 1    
   192   96  219 1    
   193   97   98 2    
   194   97   99 am   BACKBONE|DICT|INTERRES
   195   99  100 1    
   196   99  220 1    
   197  100  101 1    
   198  100  102 1    
   199  100  221 1    
   200  101  222 1    
   201  101  223 1    
   202  101  224 1    
   203  102  103 2    
   204  102  104 am   BACKBONE|DICT|INTERRES
   205  104  105 1    
   206  104  225 1    
   207  105  106 1    
   208  105  107 1    
   209  105  226 1    
   210  106  227 1    
   211  106  228 1    
   212  106  229 1    
   213  107  108 2    
   214  107  109 am   BACKBONE|DICT|INTERRES
   215  109  110 1    
   216  109  230 1    
   217  110  111 1    
   218  110  112 1    
   219  110  231 1    
   220  111  232 1    
   221  111  233 1    
   222  111  234 1    
   223  112  113 2    
   224  112  114 am   BACKBONE|DICT|INTERRES
   225  114  115 1    
   226  114  235 1    
   227  115  116 1    
   228  115  117 1    
   229  115  236 1    
   230  116  237 1    
   231  116  238 1    
   232  116  239 1    
   233  117  118 2    
   234  117  119 am   BACKBONE|DICT|INTERRES
   235  119  120 1    
   236  119  240 1    
   237  120  121 1    
   238  120  124 1    
   239  120  241 1    
   240  121  122 am   BACKBONE|DICT|INTERRES
   241  121  123 2    
   242  122  242 1    
   243  122  243 1    
   244  124  125 1    
   245  124  244 1    
   246  124  245 1    
   247  125  126 1    
   248  126  246 1    
   249  126  247 1    
@<TRIPOS>SUBSTRUCTURE
     1 UNK         1 GROUP             0       ****    0 ROOT    
