@<TRIPOS>MOLECULE
3R540
247   249    1
SMALL
USER_CHARGES


@<TRIPOS>ATOM
      1 CA         -0.6246  -13.0071  -48.5638 C.3       0 UNK        -0.1800 
      2 C           0.7248  -12.3860  -48.8859 C.2       0 UNK         0.5000 
      3 O           0.8127  -11.5346  -49.7713 O.2       0 UNK        -0.5000 
      4 N           1.7771  -12.7926  -48.1656 N.am      1 UNK        -0.5000 
      5 CA          3.1401  -12.2700  -48.3069 C.3       1 UNK         0.1400 
      6 C6          4.2063  -13.3262  -47.9238 C.3       23 UNK        -0.0398 
      7 S7          4.2610  -14.6991  -49.1212 S.3       23 UNK        -0.2404 
      8 C8          3.3291  -15.9732  -48.2184 C.3       23 UNK        -0.0205 
      9 C9          2.9680  -17.1457  -49.1151 C.ar      23 UNK        -0.0193 
     10 C10         2.0900  -16.9596  -50.1862 C.ar      23 UNK        -0.1150 
     11 C11         1.7208  -18.0322  -51.0022 C.ar      23 UNK        -0.0193 
     12 C12         2.2441  -19.3021  -50.7388 C.ar      23 UNK        -0.1150 
     13 C13         3.1370  -19.4987  -49.6804 C.ar      23 UNK        -0.0193 
     14 C14         3.4925  -18.4171  -48.8694 C.ar      23 UNK        -0.1150 
     15 C15         3.7402  -20.8724  -49.4267 C.3       23 UNK        -0.0205 
     16 S16         2.9989  -21.6937  -47.9835 S.3       23 UNK        -0.2404 
     17 C17         1.3039  -21.9944  -48.5811 C.3       23 UNK        -0.0398 
     18 CA          0.5390  -22.9750  -47.6632 C.3       11 UNK         0.1400 
     19 N           0.2483  -22.4073  -46.3420 N.am      11 UNK        -0.5000 
     20 C          -0.2525  -23.1035  -45.3114 C.2       10 UNK         0.5000 
     21 O          -0.4762  -24.3134  -45.3490 O.2       10 UNK        -0.5000 
     22 CA         -0.6156  -22.3122  -44.0424 C.3       10 UNK         0.1400 
     23 CB          0.6321  -22.0270  -43.1936 C.3       10 UNK        -0.1800 
     24 N          -1.3155  -21.0622  -44.3417 N.am      10 UNK        -0.5000 
     25 C          -2.5218  -20.9910  -44.9227 C.2       9 UNK         0.5000 
     26 O          -3.1939  -21.9781  -45.2190 O.2       9 UNK        -0.5000 
     27 CA         -3.0498  -19.5884  -45.2773 C.3       9 UNK         0.1400 
     28 CB         -3.6778  -18.9105  -44.0511 C.3       9 UNK        -0.1800 
     29 N          -2.0173  -18.7223  -45.8462 N.am      9 UNK        -0.5000 
     30 C          -1.3737  -18.9640  -46.9975 C.2       8 UNK         0.5000 
     31 O          -1.6151  -19.9221  -47.7313 O.2       8 UNK        -0.5000 
     32 CA         -0.2351  -17.9977  -47.3643 C.3       8 UNK         0.1400 
     33 CB         -0.7960  -16.7176  -47.9960 C.3       8 UNK        -0.1800 
     34 N           0.6014  -17.6573  -46.2122 N.am      8 UNK        -0.5000 
     35 C           1.3395  -18.5474  -45.5331 C.2       7 UNK         0.5000 
     36 O           1.4178  -19.7383  -45.8276 O.2       7 UNK        -0.5000 
     37 CA          2.0497  -18.0330  -44.2698 C.3       7 UNK         0.1400 
     38 CB          3.3228  -17.2526  -44.6263 C.3       7 UNK        -0.1800 
     39 N           1.1718  -17.1945  -43.4543 N.am      7 UNK        -0.5000 
     40 C           0.0846  -17.6432  -42.8100 C.2       6 UNK         0.5000 
     41 O          -0.2604  -18.8235  -42.7935 O.2       6 UNK        -0.5000 
     42 CA         -0.7868  -16.5916  -42.0991 C.3       6 UNK         0.1400 
     43 CB         -0.3064  -16.3815  -40.6557 C.3       6 UNK        -0.1800 
     44 N          -0.8088  -15.3026  -42.7925 N.am      6 UNK        -0.5000 
     45 C          -1.3029  -15.0984  -44.0229 C.2       5 UNK         0.5000 
     46 O          -1.8220  -15.9830  -44.7033 O.2       5 UNK        -0.5000 
     47 CA         -1.1442  -13.6801  -44.6029 C.3       5 UNK         0.1400 
     48 CB         -2.3794  -12.8230  -44.2943 C.3       5 UNK        -0.1800 
     49 N           0.0512  -13.0094  -44.0891 N.am      5 UNK        -0.5000 
     50 C           1.3068  -13.3200  -44.4324 C.2       4 UNK         0.5000 
     51 O           1.5909  -14.0987  -45.3466 O.2       4 UNK        -0.5000 
     52 CA          2.4071  -12.6489  -43.5886 C.3       4 UNK         0.1400 
     53 CB          3.8092  -13.2302  -43.8339 C.3       4 UNK        -0.1800 
     54 N           2.4288  -11.2020  -43.7979 N.am      4 UNK        -0.5000 
     55 C           1.6329  -10.3279  -43.1642 C.2       3 UNK         0.5000 
     56 O           0.7821  -10.6674  -42.3399 O.2       3 UNK        -0.5000 
     57 CA          1.7974   -8.8328  -43.5033 C.3       3 UNK         0.1400 
     58 CB          2.7201   -8.1504  -42.4822 C.3       3 UNK        -0.1800 
     59 N           2.3221   -8.5990  -44.8487 N.am      3 UNK        -0.5000 
     60 C           1.6356   -8.8102  -45.9785 C.2       2 UNK         0.5000 
     61 O           0.4587   -9.1738  -46.0038 O.2       2 UNK        -0.5000 
     62 CA          2.3883   -8.6215  -47.3108 C.3       2 UNK         0.1400 
     63 CB          3.7201   -7.8454  -47.1918 C.3       2 UNK        -0.1800 
     64 N           2.5902   -9.9155  -47.9657 N.am      2 UNK        -0.5000 
     65 C           3.2573  -10.9734  -47.4820 C.2       1 UNK         0.5000 
     66 O           3.8839  -10.9634  -46.4207 O.2       1 UNK        -0.5000 
     67 C          -0.7340  -23.4992  -48.3575 C.2       11 UNK         0.5000 
     68 O          -0.7018  -24.5975  -48.9124 O.2       11 UNK        -0.5000 
     69 N          -1.8367  -22.7393  -48.2765 N.am      12 UNK        -0.5000 
     70 CA         -3.1492  -23.1405  -48.7830 C.3       12 UNK         0.1400 
     71 CB         -4.1399  -21.9720  -48.6685 C.3       12 UNK        -0.1800 
     72 C          -3.6961  -24.3837  -48.0618 C.2       12 UNK         0.5000 
     73 O          -4.1645  -25.3080  -48.7232 O.2       12 UNK        -0.5000 
     74 N          -3.6015  -24.4031  -46.7241 N.am      13 UNK        -0.5000 
     75 CA         -4.0031  -25.5240  -45.8718 C.3       13 UNK         0.1400 
     76 CB         -3.8935  -25.1211  -44.3942 C.3       13 UNK        -0.1800 
     77 C          -3.2005  -26.8066  -46.1538 C.2       13 UNK         0.5000 
     78 O          -3.7968  -27.8777  -46.2715 O.2       13 UNK        -0.5000 
     79 N          -1.8764  -26.6690  -46.3174 N.am      14 UNK        -0.5000 
     80 CA         -0.9618  -27.7499  -46.6991 C.3       14 UNK         0.1400 
     81 CB          0.4862  -27.2439  -46.6191 C.3       14 UNK        -0.1800 
     82 C          -1.2566  -28.3339  -48.0956 C.2       14 UNK         0.5000 
     83 O          -1.0453  -29.5269  -48.3134 O.2       14 UNK        -0.5000 
     84 N          -1.7853  -27.4964  -48.9957 N.am      15 UNK        -0.5000 
     85 CA         -2.2601  -27.8526  -50.3326 C.3       15 UNK         0.1400 
     86 CB         -1.9636  -26.6787  -51.2793 C.3       15 UNK        -0.1800 
     87 C          -3.7483  -28.2781  -50.3507 C.2       15 UNK         0.5000 
     88 O          -4.3849  -28.2195  -51.4034 O.2       15 UNK        -0.5000 
     89 N          -4.2673  -28.7298  -49.1982 N.am      16 UNK        -0.5000 
     90 CA         -5.6095  -29.2741  -48.9655 C.3       16 UNK         0.1400 
     91 CB         -5.8681  -30.5289  -49.8271 C.3       16 UNK        -0.1800 
     92 C          -6.7274  -28.2169  -49.0658 C.2       16 UNK         0.5000 
     93 O          -7.8043  -28.5012  -49.5933 O.2       16 UNK        -0.5000 
     94 N          -6.4507  -27.0257  -48.5185 N.am      17 UNK        -0.5000 
     95 CA         -7.3319  -25.8579  -48.4151 C.3       17 UNK         0.1400 
     96 CB         -8.5650  -26.1647  -47.5392 C.3       17 UNK        -0.1800 
     97 C          -7.6843  -25.2597  -49.7908 C.2       17 UNK         0.5000 
     98 O          -8.8429  -24.9258  -50.0474 O.2       17 UNK        -0.5000 
     99 N          -6.6694  -25.1285  -50.6505 N.am      18 UNK        -0.5000 
    100 CA        -6.7685  -24.5585  -51.9889 C.3       18 UNK         0.1400 
    101 CB        -7.1920  -25.6498  -52.9873 C.3       18 UNK        -0.1800 
    102 C         -5.4132  -23.9552  -52.3756 C.2       18 UNK         0.5000 
    103 O         -4.3844  -24.4557  -51.9259 O.2       18 UNK        -0.5000 
    104 N         -5.4518  -22.9106  -53.2141 N.am      19 UNK        -0.5000 
    105 CA        -4.3238  -22.1439  -53.7613 C.3       19 UNK         0.1400 
    106 CB        -3.6399  -22.9699  -54.8708 C.3       19 UNK        -0.1800 
    107 C         -3.3103  -21.6602  -52.6893 C.2       19 UNK         0.5000 
    108 O         -2.2474  -22.2672  -52.5582 O.2       19 UNK        -0.5000 
    109 N         -3.5791  -20.6129  -51.8920 N.am      20 UNK        -0.5000 
    110 CA        -4.6395  -19.5948  -51.9112 C.3       20 UNK         0.1400 
    111 CB        -6.0507  -20.1943  -51.7592 C.3       20 UNK        -0.1800 
    112 C         -4.5408  -18.6277  -53.1077 C.2       20 UNK         0.5000 
    113 O         -3.8001  -18.8816  -54.0595 O.2       20 UNK        -0.5000 
    114 N         -5.2829  -17.5136  -53.0118 N.am      21 UNK        -0.5000 
    115 CA        -5.2980  -16.3771  -53.9479 C.3       21 UNK         0.1400 
    116 CB        -5.8690  -16.7971  -55.3191 C.3       21 UNK        -0.1800 
    117 C         -3.9321  -15.6587  -54.0569 C.2       21 UNK         0.5000 
    118 O         -3.6142  -15.0775  -55.0963 O.2       21 UNK        -0.5000 
    119 N         -3.1472  -15.7294  -52.9759 N.am      22 UNK        -0.5000 
    120 CA        -1.7996  -15.1639  -52.8473 C.3       22 UNK         0.1400 
    121 C         -1.8043  -13.6113  -52.7901 C.2       22 UNK         0.5000 
    122 N         -0.7893  -12.9621  -53.3435 N.am      22 UNK        -0.7600 
    123 O         -2.6952  -12.9927  -52.2116 O.2       22 UNK        -0.5000 
    124 C124       -1.0692  -15.7504  -51.6131 C.3       23 UNK        -0.0398 
    125 S125       -0.9417  -17.5757  -51.6679 S.3       23 UNK        -0.2404 
    126 C126        0.7867  -17.8189  -52.1861 C.3       23 UNK        -0.0205 
    127 H127       -0.5181  -13.8635  -47.9021 H         1 UNK         0.0600 
    128 H128       -1.1150  -13.3407  -49.4780 H         1 UNK         0.0600 
    129 H129       -1.2682  -12.2745  -48.0768 H         1 UNK         0.0600 
    130 H130        1.6400  -13.4351  -47.3936 H         1 UNK         0.3000 
    131 H131        3.3170  -11.9970  -49.3498 H         1 UNK         0.0600 
    132 H132        5.2004  -12.8763  -47.9002 H         1 UNK         0.0800 
    133 H133        4.0248  -13.7228  -46.9255 H         1 UNK         0.0800 
    134 H134        2.4132  -15.5483  -47.8067 H         1 UNK         0.0800 
    135 H135        3.9289  -16.3063  -47.3715 H         1 UNK         0.0800 
    136 H136        1.7011  -15.9717  -50.3792 H         1 UNK         0.1150 
    137 H137        1.9687  -20.1366  -51.3683 H         1 UNK         0.1150 
    138 H138        4.1747  -18.5708  -48.0452 H         1 UNK         0.1150 
    139 H139        3.6350  -21.5119  -50.3045 H         1 UNK         0.0800 
    140 H140        4.8125  -20.7663  -49.2567 H         1 UNK         0.0800 
    141 H141        1.3736  -22.3919  -49.5955 H         1 UNK         0.0800 
    142 H142        0.7768  -21.0418  -48.6554 H         1 UNK         0.0800 
    143 H143        1.1795  -23.8449  -47.5009 H         1 UNK         0.0600 
    144 H144        0.4632  -21.4222  -46.2144 H         1 UNK         0.3000 
    145 H145       -1.2892  -22.9332  -43.4483 H         1 UNK         0.0600 
    146 H146        0.3666  -21.5396  -42.2554 H         1 UNK         0.0600 
    147 H147        1.1533  -22.9519  -42.9438 H         1 UNK         0.0600 
    148 H148        1.3393  -21.3829  -43.7158 H         1 UNK         0.0600 
    149 H149       -0.8448  -20.2028  -44.0759 H         1 UNK         0.3000 
    150 H150       -3.8292  -19.7092  -46.0324 H         1 UNK         0.0600 
    151 H151       -4.4985  -19.5092  -43.6541 H         1 UNK         0.0600 
    152 H152       -4.0816  -17.9301  -44.3048 H         1 UNK         0.0600 
    153 H153       -2.9531  -18.7769  -43.2487 H         1 UNK         0.0600 
    154 H154       -1.7897  -17.8782  -45.3301 H         1 UNK         0.3000 
    155 H155        0.3938  -18.4966  -48.1047 H         1 UNK         0.0600 
    156 H156       -1.3478  -16.1142  -47.2765 H         1 UNK         0.0600 
    157 H157        0.0013  -16.1051  -48.4135 H         1 UNK         0.0600 
    158 H158       -1.4827  -16.9582  -48.8068 H         1 UNK         0.0600 
    159 H159        0.5594  -16.7052  -45.8800 H         1 UNK         0.3000 
    160 H160        2.3405  -18.9020  -43.6755 H         1 UNK         0.0600 
    161 H161        3.0935  -16.3294  -45.1577 H         1 UNK         0.0600 
    162 H162        3.9804  -17.8468  -45.2622 H         1 UNK         0.0600 
    163 H163        3.8866  -16.9907  -43.7310 H         1 UNK         0.0600 
    164 H164        1.3736  -16.2067  -43.4337 H         1 UNK         0.3000 
    165 H165       -1.8092  -16.9726  -42.0675 H         1 UNK         0.0600 
    166 H166       -0.9627  -15.6979  -40.1168 H         1 UNK         0.0600 
    167 H167       -0.2995  -17.3238  -40.1061 H         1 UNK         0.0600 
    168 H168        0.7049  -15.9743  -40.6217 H         1 UNK         0.0600 
    169 H169       -0.4111  -14.5171  -42.2998 H         1 UNK         0.3000 
    170 H170       -1.0557  -13.7734  -45.6851 H         1 UNK         0.0600 
    171 H171       -3.2853  -13.2897  -44.6837 H         1 UNK         0.0600 
    172 H172       -2.5161  -12.6827  -43.2213 H         1 UNK         0.0600 
    173 H173       -2.2983  -11.8378  -44.7541 H         1 UNK         0.0600 
    174 H174       -0.0837  -12.3096  -43.3677 H         1 UNK         0.3000 
    175 H175        2.1674  -12.8537  -42.5429 H         1 UNK         0.0600 
    176 H176        4.1794  -13.0002  -44.8296 H         1 UNK         0.0600 
    177 H177        4.5264  -12.8293  -43.1177 H         1 UNK         0.0600 
    178 H178        3.8126  -14.3146  -43.7208 H         1 UNK         0.0600 
    179 H179        3.0508  -10.8666  -44.5261 H         1 UNK         0.3000 
    180 H180        0.8110   -8.3692  -43.4340 H         1 UNK         0.0600 
    181 H181        2.3435   -8.2812  -41.4668 H         1 UNK         0.0600 
    182 H182        2.7880   -7.0780  -42.6663 H         1 UNK         0.0600 
    183 H183        3.7297   -8.5621  -42.5135 H         1 UNK         0.0600 
    184 H184        3.2920   -8.3268  -44.9184 H         1 UNK         0.3000 
    185 H185        1.7270   -8.0434  -47.9579 H         1 UNK         0.0600 
    186 H186        4.4611   -8.3701  -46.5883 H         1 UNK         0.0600 
    187 H187        4.1592   -7.6802  -48.1757 H         1 UNK         0.0600 
    188 H188        3.5618   -6.8635  -46.7442 H         1 UNK         0.0600 
    189 H189        2.0360  -10.0715  -48.8007 H         1 UNK         0.3000 
    190 H190       -1.7730  -21.8191  -47.8488 H         1 UNK         0.3000 
    191 H191       -3.0325  -23.3867  -49.8401 H         1 UNK         0.0600 
    192 H192       -4.3377  -21.7064  -47.6304 H         1 UNK         0.0600 
    193 H193       -5.0943  -22.2295  -49.1289 H         1 UNK         0.0600 
    194 H194       -3.7634  -21.0813  -49.1692 H         1 UNK         0.0600 
    195 H195       -3.2464  -23.5777  -46.2474 H         1 UNK         0.3000 
    196 H196       -5.0524  -25.7388  -46.0820 H         1 UNK         0.0600 
    197 H197       -4.2064  -25.9374  -43.7420 H         1 UNK         0.0600 
    198 H198       -4.5305  -24.2648  -44.1719 H         1 UNK         0.0600 
    199 H199       -2.8717  -24.8560  -44.1225 H         1 UNK         0.0600 
    200 H200       -1.4570  -25.7559  -46.1599 H         1 UNK         0.3000 
    201 H201       -1.0815  -28.5570  -45.9736 H         1 UNK         0.0600 
    202 H202        0.7295  -26.9028  -45.6128 H         1 UNK         0.0600 
    203 H203        0.6597  -26.4138  -47.3045 H         1 UNK         0.0600 
    204 H204        1.1923  -28.0349  -46.8745 H         1 UNK         0.0600 
    205 H205       -1.9033  -26.5246  -48.7343 H         1 UNK         0.3000 
    206 H206       -1.6942  -28.7126  -50.6956 H         1 UNK         0.0600 
    207 H207       -0.8915  -26.4953  -51.3501 H         1 UNK         0.0600 
    208 H208       -2.3274  -26.8680  -52.2897 H         1 UNK         0.0600 
    209 H209       -2.4285  -25.7600  -50.9241 H         1 UNK         0.0600 
    210 H210       -3.6798  -28.6856  -48.3752 H         1 UNK         0.3000 
    211 H211       -5.6123  -29.5998  -47.9243 H         1 UNK         0.0600 
    212 H212       -5.9596  -30.2855  -50.8859 H         1 UNK         0.0600 
    213 H213       -6.7932  -31.0226  -49.5274 H         1 UNK         0.0600 
    214 H214       -5.0638  -31.2562  -49.7171 H         1 UNK         0.0600 
    215 H215       -5.4942  -26.8604  -48.2279 H         1 UNK         0.3000 
    216 H216       -6.7590  -25.0891  -47.8958 H         1 UNK         0.0600 
    217 H217       -9.1429  -25.2594  -47.3505 H         1 UNK         0.0600 
    218 H218       -8.2695  -26.5674  -46.5704 H         1 UNK         0.0600 
    219 H219       -9.2337  -26.8841  -48.0125 H         1 UNK         0.0600 
    220 H220       -5.7288  -25.3830  -50.3628 H         1 UNK         0.3000 
    221 H221       -7.5120  -23.7584  -51.9872 H         1 UNK         0.0600 
    222 H222       -6.4795  -26.4761  -52.9990 H         1 UNK         0.0600 
    223 H223       -8.1715  -26.0574  -52.7366 H         1 UNK         0.0600 
    224 H224       -7.2542  -25.2526  -54.0011 H         1 UNK         0.0600 
    225 H225       -6.3612  -22.5942  -53.5183 H         1 UNK         0.3000 
    226 H226       -4.7495  -21.2677  -54.2461 H         1 UNK         0.0600 
    227 H227       -4.3432  -23.2212  -55.6646 H         1 UNK         0.0600 
    228 H228       -2.8228  -22.4090  -55.3262 H         1 UNK         0.0600 
    229 H229       -3.2247  -23.9022  -54.4859 H         1 UNK         0.0600 
    230 H230       -2.8473  -20.3898  -51.2341 H         1 UNK         0.3000 
    231 H231       -4.4473  -18.9975  -51.0183 H         1 UNK         0.0600 
    232 H232       -6.7363  -19.4550  -51.3442 H         1 UNK         0.0600 
    233 H233       -6.0578  -21.0477  -51.0817 H         1 UNK         0.0600 
    234 H234       -6.4736  -20.5042  -52.7138 H         1 UNK         0.0600 
    235 H235       -5.8660  -17.3982  -52.1942 H         1 UNK         0.3000 
    236 H236       -5.9843  -15.6440  -53.5218 H         1 UNK         0.0600 
    237 H237       -6.0299  -15.9281  -55.9580 H         1 UNK         0.0600 
    238 H238       -5.1968  -17.4711  -55.8506 H         1 UNK         0.0600 
    239 H239       -6.8302  -17.2990  -55.2090 H         1 UNK         0.0600 
    240 H240       -3.4953  -16.2200  -52.1673 H         1 UNK         0.3000 
    241 H241       -1.2421  -15.4607  -53.7381 H         1 UNK         0.0600 
    242 H242       -0.7699  -11.9553  -53.2936 H         1 UNK         0.3800 
    243 H243       -0.0448  -13.4455  -53.8216 H         1 UNK         0.3800 
    244 H244       -0.0741  -15.3153  -51.5250 H         1 UNK         0.0800 
    245 H245       -1.5981  -15.4757  -50.6996 H         1 UNK         0.0800 
    246 H246        1.1288  -16.9725  -52.7830 H         1 UNK         0.0800 
    247 H247        0.8219  -18.6839  -52.8501 H         1 UNK         0.0800 
@<TRIPOS>BOND
     1    1    2 1    
     2    1  127 1    
     3    1  128 1    
     4    1  129 1    
     5    2    3 2    
     6    2    4 am   BACKBONE|DICT|INTERRES
     7    4    5 1    
     8    4  130 1    
     9    5    6 1    
    10    5   65 1    
    11    5  131 1    
    12    6    7 1    
    13    6  132 1    
    14    6  133 1    
    15    7    8 1    
    16    8    9 1    
    17    8  134 1    
    18    8  135 1    
    19    9   10 ar   
    20    9   14 ar   
    21   10   11 ar   
    22   10  136 1    
    23   11   12 ar   
    24   11  126 1    
    25   12   13 ar   
    26   12  137 1    
    27   13   14 ar   
    28   13   15 1    
    29   14  138 1    
    30   15   16 1    
    31   15  139 1    
    32   15  140 1    
    33   16   17 1    
    34   17   18 1    
    35   17  141 1    
    36   17  142 1    
    37   18   19 1    
    38   18   67 1    
    39   18  143 1    
    40   19   20 am   BACKBONE|DICT|INTERRES
    41   19  144 1    
    42   20   21 2    
    43   20   22 1    
    44   22   23 1    
    45   22   24 1    
    46   22  145 1    
    47   23  146 1    
    48   23  147 1    
    49   23  148 1    
    50   24   25 am   BACKBONE|DICT|INTERRES
    51   24  149 1    
    52   25   26 2    
    53   25   27 1    
    54   27   28 1    
    55   27   29 1    
    56   27  150 1    
    57   28  151 1    
    58   28  152 1    
    59   28  153 1    
    60   29   30 am   BACKBONE|DICT|INTERRES
    61   29  154 1    
    62   30   31 2    
    63   30   32 1    
    64   32   33 1    
    65   32   34 1    
    66   32  155 1    
    67   33  156 1    
    68   33  157 1    
    69   33  158 1    
    70   34   35 am   BACKBONE|DICT|INTERRES
    71   34  159 1    
    72   35   36 2    
    73   35   37 1    
    74   37   38 1    
    75   37   39 1    
    76   37  160 1    
    77   38  161 1    
    78   38  162 1    
    79   38  163 1    
    80   39   40 am   BACKBONE|DICT|INTERRES
    81   39  164 1    
    82   40   41 2    
    83   40   42 1    
    84   42   43 1    
    85   42   44 1    
    86   42  165 1    
    87   43  166 1    
    88   43  167 1    
    89   43  168 1    
    90   44   45 am   BACKBONE|DICT|INTERRES
    91   44  169 1    
    92   45   46 2    
    93   45   47 1    
    94   47   48 1    
    95   47   49 1    
    96   47  170 1    
    97   48  171 1    
    98   48  172 1    
    99   48  173 1    
   100   49   50 am   BACKBONE|DICT|INTERRES
   101   49  174 1    
   102   50   51 2    
   103   50   52 1    
   104   52   53 1    
   105   52   54 1    
   106   52  175 1    
   107   53  176 1    
   108   53  177 1    
   109   53  178 1    
   110   54   55 am   BACKBONE|DICT|INTERRES
   111   54  179 1    
   112   55   56 2    
   113   55   57 1    
   114   57   58 1    
   115   57   59 1    
   116   57  180 1    
   117   58  181 1    
   118   58  182 1    
   119   58  183 1    
   120   59   60 am   BACKBONE|DICT|INTERRES
   121   59  184 1    
   122   60   61 2    
   123   60   62 1    
   124   62   63 1    
   125   62   64 1    
   126   62  185 1    
   127   63  186 1    
   128   63  187 1    
   129   63  188 1    
   130   64   65 am   BACKBONE|DICT|INTERRES
   131   64  189 1    
   132   65   66 2    
   133   67   68 2    
   134   67   69 am   BACKBONE|DICT|INTERRES
   135   69   70 1    
   136   69  190 1    
   137   70   71 1    
   138   70   72 1    
   139   70  191 1    
   140   71  192 1    
   141   71  193 1    
   142   71  194 1    
   143   72   73 2    
   144   72   74 am   BACKBONE|DICT|INTERRES
   145   74   75 1    
   146   74  195 1    
   147   75   76 1    
   148   75   77 1    
   149   75  196 1    
   150   76  197 1    
   151   76  198 1    
   152   76  199 1    
   153   77   78 2    
   154   77   79 am   BACKBONE|DICT|INTERRES
   155   79   80 1    
   156   79  200 1    
   157   80   81 1    
   158   80   82 1    
   159   80  201 1    
   160   81  202 1    
   161   81  203 1    
   162   81  204 1    
   163   82   83 2    
   164   82   84 am   BACKBONE|DICT|INTERRES
   165   84   85 1    
   166   84  205 1    
   167   85   86 1    
   168   85   87 1    
   169   85  206 1    
   170   86  207 1    
   171   86  208 1    
   172   86  209 1    
   173   87   88 2    
   174   87   89 am   BACKBONE|DICT|INTERRES
   175   89   90 1    
   176   89  210 1    
   177   90   91 1    
   178   90   92 1    
   179   90  211 1    
   180   91  212 1    
   181   91  213 1    
   182   91  214 1    
   183   92   93 2    
   184   92   94 am   BACKBONE|DICT|INTERRES
   185   94   95 1    
   186   94  215 1    
   187   95   96 1    
   188   95   97 1    
   189   95  216 1    
   190   96  217 1    
   191   96  218 1    
   192   96  219 1    
   193   97   98 2    
   194   97   99 am   BACKBONE|DICT|INTERRES
   195   99  100 1    
   196   99  220 1    
   197  100  101 1    
   198  100  102 1    
   199  100  221 1    
   200  101  222 1    
   201  101  223 1    
   202  101  224 1    
   203  102  103 2    
   204  102  104 am   BACKBONE|DICT|INTERRES
   205  104  105 1    
   206  104  225 1    
   207  105  106 1    
   208  105  107 1    
   209  105  226 1    
   210  106  227 1    
   211  106  228 1    
   212  106  229 1    
   213  107  108 2    
   214  107  109 am   BACKBONE|DICT|INTERRES
   215  109  110 1    
   216  109  230 1    
   217  110  111 1    
   218  110  112 1    
   219  110  231 1    
   220  111  232 1    
   221  111  233 1    
   222  111  234 1    
   223  112  113 2    
   224  112  114 am   BACKBONE|DICT|INTERRES
   225  114  115 1    
   226  114  235 1    
   227  115  116 1    
   228  115  117 1    
   229  115  236 1    
   230  116  237 1    
   231  116  238 1    
   232  116  239 1    
   233  117  118 2    
   234  117  119 am   BACKBONE|DICT|INTERRES
   235  119  120 1    
   236  119  240 1    
   237  120  121 1    
   238  120  124 1    
   239  120  241 1    
   240  121  122 am   BACKBONE|DICT|INTERRES
   241  121  123 2    
   242  122  242 1    
   243  122  243 1    
   244  124  125 1    
   245  124  244 1    
   246  124  245 1    
   247  125  126 1    
   248  126  246 1    
   249  126  247 1    
@<TRIPOS>SUBSTRUCTURE
     1 UNK         1 GROUP             0       ****    0 ROOT    
