@<TRIPOS>MOLECULE
3R540
247   249    1
SMALL
USER_CHARGES


@<TRIPOS>ATOM
      1 CA         -4.9478   -9.7882  -49.5320 C.3       0 UNK        -0.1800 
      2 C          -4.6313  -11.2212  -49.1275 C.2       0 UNK         0.5000 
      3 O          -3.9198  -11.9178  -49.8512 O.2       0 UNK        -0.5000 
      4 N          -5.1625  -11.6631  -47.9808 N.am      1 UNK        -0.5000 
      5 CA         -4.9204  -12.9847  -47.3951 C.3       1 UNK         0.1400 
      6 C6         -5.8909  -13.2785  -46.2228 C.3       23 UNK        -0.0398 
      7 S7         -7.5115  -13.8390  -46.8492 S.3       23 UNK        -0.2404 
      8 C8         -7.4993  -15.6196  -46.4365 C.3       23 UNK        -0.0205 
      9 C9         -6.2103  -16.3214  -46.8486 C.ar      23 UNK        -0.0193 
     10 C10        -5.8658  -16.4388  -48.1992 C.ar      23 UNK        -0.1150 
     11 C11        -4.6596  -17.0388  -48.5737 C.ar      23 UNK        -0.0193 
     12 C12        -3.8063  -17.5346  -47.5870 C.ar      23 UNK        -0.1150 
     13 C13        -4.1500  -17.4496  -46.2371 C.ar      23 UNK        -0.0193 
     14 C14        -5.3526  -16.8403  -45.8725 C.ar      23 UNK        -0.1150 
     15 C15        -3.1980  -17.9812  -45.1788 C.3       23 UNK        -0.0205 
     16 S16        -3.5570  -19.6987  -44.6978 S.3       23 UNK        -0.2404 
     17 C17        -3.2406  -20.5958  -46.2587 C.3       23 UNK        -0.0398 
     18 CA         -2.6623  -22.0231  -46.1110 C.3       11 UNK         0.1400 
     19 N          -1.2366  -22.0306  -45.7420 N.am      11 UNK        -0.5000 
     20 C          -0.4607  -23.1263  -45.7283 C.2       10 UNK         0.5000 
     21 O          -0.8985  -24.2720  -45.8354 O.2       10 UNK        -0.5000 
     22 CA          1.0564  -22.9299  -45.6010 C.3       10 UNK         0.1400 
     23 CB          1.6490  -22.5412  -46.9643 C.3       10 UNK        -0.1800 
     24 N           1.4517  -21.9558  -44.5861 N.am      10 UNK        -0.5000 
     25 C           1.2830  -22.1213  -43.2664 C.2       9 UNK         0.5000 
     26 O           0.7083  -23.0880  -42.7642 O.2       9 UNK        -0.5000 
     27 CA          1.8633  -21.0267  -42.3515 C.3       9 UNK         0.1400 
     28 CB          3.3811  -21.1994  -42.1857 C.3       9 UNK        -0.1800 
     29 N           1.5807  -19.6833  -42.8496 N.am      9 UNK        -0.5000 
     30 C           0.3669  -19.1174  -42.8355 C.2       8 UNK         0.5000 
     31 O          -0.6228  -19.6301  -42.3129 O.2       8 UNK        -0.5000 
     32 CA          0.2319  -17.7609  -43.5492 C.3       8 UNK         0.1400 
     33 CB          0.6492  -16.6096  -42.6222 C.3       8 UNK        -0.1800 
     34 N           0.9922  -17.6904  -44.7996 N.am      8 UNK        -0.5000 
     35 C           0.8132  -18.4902  -45.8630 C.2       7 UNK         0.5000 
     36 O          -0.0439  -19.3710  -45.9325 O.2       7 UNK        -0.5000 
     37 CA          1.7957  -18.3053  -47.0309 C.3       7 UNK         0.1400 
     38 CB          1.3777  -17.1227  -47.9145 C.3       7 UNK        -0.1800 
     39 N           3.1687  -18.1124  -46.5649 N.am      7 UNK        -0.5000 
     40 C           3.8977  -19.0577  -45.9539 C.2       6 UNK         0.5000 
     41 O           3.4969  -20.2004  -45.7407 O.2       6 UNK        -0.5000 
     42 CA          5.2882  -18.6364  -45.4489 C.3       6 UNK         0.1400 
     43 CB          6.3076  -18.6318  -46.5978 C.3       6 UNK        -0.1800 
     44 N           5.2672  -17.3213  -44.8090 N.am      6 UNK        -0.5000 
     45 C           4.6104  -17.0410  -43.6743 C.2       5 UNK         0.5000 
     46 O           3.9907  -17.8780  -43.0180 O.2       5 UNK        -0.5000 
     47 CA          4.6115  -15.5674  -43.2260 C.3       5 UNK         0.1400 
     48 CB          5.8307  -15.2743  -42.3391 C.3       5 UNK        -0.1800 
     49 N           4.5889  -14.6255  -44.3500 N.am      5 UNK        -0.5000 
     50 C           3.5718  -14.5026  -45.2120 C.2       4 UNK         0.5000 
     51 O           2.5422  -15.1815  -45.1603 O.2       4 UNK        -0.5000 
     52 CA          3.7526  -13.4905  -46.3488 C.3       4 UNK         0.1400 
     53 CB          4.3943  -14.1713  -47.5723 C.3       4 UNK        -0.1800 
     54 N           2.4414  -12.9562  -46.6942 N.am      4 UNK        -0.5000 
     55 C           2.1920  -11.8579  -47.4172 C.2       3 UNK         0.5000 
     56 O           3.0804  -11.1417  -47.8823 O.2       3 UNK        -0.5000 
     57 CA          0.7100  -11.4672  -47.6316 C.3       3 UNK         0.1400 
     58 CB          0.4362  -10.9569  -49.0617 C.3       3 UNK        -0.1800 
     59 N          -0.2538  -12.5096  -47.2548 N.am      3 UNK        -0.5000 
     60 C          -0.4221  -13.7188  -47.8079 C.2       2 UNK         0.5000 
     61 O           0.2029  -14.1241  -48.7862 O.2       2 UNK        -0.5000 
     62 CA         -1.4413  -14.6460  -47.1216 C.3       2 UNK         0.1400 
     63 CB         -1.1410  -14.8220  -45.6189 C.3       2 UNK        -0.1800 
     64 N          -2.8294  -14.2424  -47.3496 N.am      2 UNK        -0.5000 
     65 C          -3.4534  -13.1273  -46.9475 C.2       1 UNK         0.5000 
     66 O          -2.9406  -12.2500  -46.2476 O.2       1 UNK        -0.5000 
     67 C          -3.5672  -22.9415  -45.2607 C.2       11 UNK         0.5000 
     68 O          -4.5812  -23.4218  -45.7677 O.2       11 UNK        -0.5000 
     69 N          -3.1573  -23.2163  -44.0147 N.am      12 UNK        -0.5000 
     70 CA         -3.8121  -24.1479  -43.0961 C.3       12 UNK         0.1400 
     71 CB         -3.1207  -24.0575  -41.7273 C.3       12 UNK        -0.1800 
     72 C          -3.8309  -25.6080  -43.5961 C.2       12 UNK         0.5000 
     73 O          -4.7386  -26.3543  -43.2268 O.2       12 UNK        -0.5000 
     74 N          -2.8458  -25.9835  -44.4232 N.am      13 UNK        -0.5000 
     75 CA         -2.7351  -27.2993  -45.0525 C.3       13 UNK         0.1400 
     76 CB         -1.3515  -27.8880  -44.7345 C.3       13 UNK        -0.1800 
     77 C          -2.9403  -27.2131  -46.5744 C.2       13 UNK         0.5000 
     78 O          -3.5588  -28.1060  -47.1542 O.2       13 UNK        -0.5000 
     79 N          -2.4113  -26.1511  -47.1972 N.am      14 UNK        -0.5000 
     80 CA         -2.4035  -25.9417  -48.6450 C.3       14 UNK         0.1400 
     81 CB         -1.3054  -24.9241  -48.9827 C.3       14 UNK        -0.1800 
     82 C          -3.7641  -25.5069  -49.2250 C.2       14 UNK         0.5000 
     83 O          -3.9806  -25.6830  -50.4239 O.2       14 UNK        -0.5000 
     84 N          -4.6544  -24.9758  -48.3734 N.am      15 UNK        -0.5000 
     85 CA         -6.0404  -24.5997  -48.6621 C.3       15 UNK         0.1400 
     86 CB         -6.8932  -25.8628  -48.9225 C.3       15 UNK        -0.1800 
     87 C          -6.1558  -23.5123  -49.7536 C.2       15 UNK         0.5000 
     88 O          -5.5591  -22.4443  -49.5984 O.2       15 UNK        -0.5000 
     89 N          -6.9458  -23.7799  -50.8050 N.am      16 UNK        -0.5000 
     90 CA         -7.2812  -22.8724  -51.9053 C.3       16 UNK         0.1400 
     91 CB         -8.1534  -23.6201  -52.9252 C.3       16 UNK        -0.1800 
     92 C          -6.0424  -22.2679  -52.5907 C.2       16 UNK         0.5000 
     93 O          -5.1480  -23.0104  -53.0027 O.2       16 UNK        -0.5000 
     94 N          -6.0030  -20.9274  -52.6481 N.am      17 UNK        -0.5000 
     95 CA         -4.9153  -20.0814  -53.1654 C.3       17 UNK         0.1400 
     96 CB         -4.7655  -20.2705  -54.6885 C.3       17 UNK        -0.1800 
     97 C          -3.5656  -20.2624  -52.4341 C.2       17 UNK         0.5000 
     98 O          -2.5332  -19.8203  -52.9490 O.2       17 UNK        -0.5000 
     99 N          -3.5952  -20.9229  -51.2630 N.am      18 UNK        -0.5000 
    100 CA        -2.4545  -21.4428  -50.5081 C.3       18 UNK         0.1400 
    101 CB        -1.7158  -20.2941  -49.8049 C.3       18 UNK        -0.1800 
    102 C         -1.5503  -22.3228  -51.3944 C.2       18 UNK         0.5000 
    103 O         -0.3287  -22.1536  -51.3990 O.2       18 UNK        -0.5000 
    104 N         -2.1980  -23.1890  -52.1914 N.am      19 UNK        -0.5000 
    105 CA        -1.6832  -23.9782  -53.3150 C.3       19 UNK         0.1400 
    106 CB        -0.6178  -25.0023  -52.8773 C.3       19 UNK        -0.1800 
    107 C         -1.1944  -23.0960  -54.4783 C.2       19 UNK         0.5000 
    108 O         -1.7432  -23.1752  -55.5780 O.2       19 UNK        -0.5000 
    109 N         -0.1893  -22.2611  -54.2030 N.am      20 UNK        -0.5000 
    110 CA         0.3777  -21.2757  -55.1165 C.3       20 UNK         0.1400 
    111 CB         1.4016  -21.9622  -56.0414 C.3       20 UNK        -0.1800 
    112 C          1.0000  -20.0730  -54.3796 C.2       20 UNK         0.5000 
    113 O          1.5481  -19.1986  -55.0528 O.2       20 UNK        -0.5000 
    114 N          0.9452  -20.0293  -53.0356 N.am      21 UNK        -0.5000 
    115 CA         1.5728  -18.9620  -52.2487 C.3       21 UNK         0.1400 
    116 CB         1.7939  -19.4201  -50.7988 C.3       21 UNK        -0.1800 
    117 C          0.8069  -17.6257  -52.3266 C.2       21 UNK         0.5000 
    118 O          1.4520  -16.5764  -52.3310 O.2       21 UNK        -0.5000 
    119 N         -0.5283  -17.6795  -52.4453 N.am      22 UNK        -0.5000 
    120 CA        -1.3434  -16.5406  -52.9030 C.3       22 UNK         0.1400 
    121 C         -1.5075  -16.5799  -54.4457 C.2       22 UNK         0.5000 
    122 N         -1.7861  -17.7404  -55.0309 N.am      22 UNK        -0.7600 
    123 O         -1.3843  -15.5568  -55.1129 O.2       22 UNK        -0.5000 
    124 C124       -2.7437  -16.4644  -52.2439 C.3       23 UNK        -0.0398 
    125 S125       -2.7175  -16.3207  -50.4288 S.3       23 UNK        -0.2404 
    126 C126       -4.2813  -17.1695  -50.0395 C.3       23 UNK        -0.0205 
    127 H127       -5.4500   -9.7735  -50.4993 H         1 UNK         0.0600 
    128 H128       -4.0271   -9.2108  -49.6157 H         1 UNK         0.0600 
    129 H129       -5.5940   -9.2946  -48.8057 H         1 UNK         0.0600 
    130 H130       -5.7292  -11.0374  -47.4270 H         1 UNK         0.3000 
    131 H131       -5.0919  -13.7199  -48.1842 H         1 UNK         0.0600 
    132 H132       -5.4926  -14.0346  -45.5447 H         1 UNK         0.0800 
    133 H133       -6.0354  -12.3902  -45.6060 H         1 UNK         0.0800 
    134 H134       -8.3433  -16.1031  -46.9301 H         1 UNK         0.0800 
    135 H135       -7.6703  -15.7296  -45.3644 H         1 UNK         0.0800 
    136 H136       -6.5320  -16.0450  -48.9541 H         1 UNK         0.1150 
    137 H137       -2.8636  -17.9759  -47.8729 H         1 UNK         0.1150 
    138 H138       -5.6122  -16.7592  -44.8262 H         1 UNK         0.1150 
    139 H139       -2.1767  -17.9183  -45.5502 H         1 UNK         0.0800 
    140 H140       -3.2457  -17.3514  -44.2895 H         1 UNK         0.0800 
    141 H141       -4.1756  -20.6289  -46.8213 H         1 UNK         0.0800 
    142 H142       -2.5514  -20.0092  -46.8630 H         1 UNK         0.0800 
    143 H143       -2.6913  -22.4551  -47.1131 H         1 UNK         0.0600 
    144 H144       -0.7944  -21.1190  -45.6446 H         1 UNK         0.3000 
    145 H145        1.4850  -23.8930  -45.3157 H         1 UNK         0.0600 
    146 H146        2.7382  -22.5217  -46.9300 H         1 UNK         0.0600 
    147 H147        1.3637  -23.2577  -47.7359 H         1 UNK         0.0600 
    148 H148        1.3046  -21.5587  -47.2875 H         1 UNK         0.0600 
    149 H149        1.9772  -21.1523  -44.9164 H         1 UNK         0.3000 
    150 H150        1.4023  -21.1330  -41.3672 H         1 UNK         0.0600 
    151 H151        3.6218  -22.1904  -41.7990 H         1 UNK         0.0600 
    152 H152        3.7854  -20.4686  -41.4850 H         1 UNK         0.0600 
    153 H153        3.9080  -21.0783  -43.1328 H         1 UNK         0.0600 
    154 H154        2.3587  -19.1640  -43.2413 H         1 UNK         0.3000 
    155 H155       -0.8201  -17.6210  -43.7887 H         1 UNK         0.0600 
    156 H156        1.6884  -16.7004  -42.3091 H         1 UNK         0.0600 
    157 H157        0.0372  -16.5976  -41.7196 H         1 UNK         0.0600 
    158 H158        0.5291  -15.6418  -43.1088 H         1 UNK         0.0600 
    159 H159        1.7015  -16.9663  -44.8547 H         1 UNK         0.3000 
    160 H160        1.7687  -19.2099  -47.6414 H         1 UNK         0.0600 
    161 H161        1.3616  -16.1890  -47.3535 H         1 UNK         0.0600 
    162 H162        0.3806  -17.2777  -48.3291 H         1 UNK         0.0600 
    163 H163        2.0593  -16.9886  -48.7538 H         1 UNK         0.0600 
    164 H164        3.5542  -17.1850  -46.6550 H         1 UNK         0.3000 
    165 H165        5.6106  -19.3704  -44.7071 H         1 UNK         0.0600 
    166 H166        7.3106  -18.4088  -46.2334 H         1 UNK         0.0600 
    167 H167        6.3495  -19.6069  -47.0851 H         1 UNK         0.0600 
    168 H168        6.0557  -17.8939  -47.3606 H         1 UNK         0.0600 
    169 H169        5.7564  -16.5744  -45.2789 H         1 UNK         0.3000 
    170 H170        3.7113  -15.4015  -42.6312 H         1 UNK         0.0600 
    171 H171        5.8606  -15.9487  -41.4822 H         1 UNK         0.0600 
    172 H172        6.7666  -15.3961  -42.8857 H         1 UNK         0.0600 
    173 H173        5.7989  -14.2569  -41.9487 H         1 UNK         0.0600 
    174 H174        5.4028  -14.0378  -44.4612 H         1 UNK         0.3000 
    175 H175        4.3899  -12.6751  -46.0005 H         1 UNK         0.0600 
    176 H176        3.7567  -14.9613  -47.9712 H         1 UNK         0.0600 
    177 H177        4.5775  -13.4567  -48.3746 H         1 UNK         0.0600 
    178 H178        5.3551  -14.6191  -47.3158 H         1 UNK         0.0600 
    179 H179        1.6671  -13.4882  -46.3197 H         1 UNK         0.3000 
    180 H180        0.5235  -10.6364  -46.9500 H         1 UNK         0.0600 
    181 H181        0.6824  -11.7065  -49.8142 H         1 UNK         0.0600 
    182 H182        1.0300  -10.0690  -49.2814 H         1 UNK         0.0600 
    183 H183       -0.6118  -10.6849  -49.1896 H         1 UNK         0.0600 
    184 H184       -0.8932  -12.2646  -46.5058 H         1 UNK         0.3000 
    185 H185       -1.3397  -15.6271  -47.5875 H         1 UNK         0.0600 
    186 H186       -0.1329  -15.2066  -45.4724 H         1 UNK         0.0600 
    187 H187       -1.2139  -13.8884  -45.0615 H         1 UNK         0.0600 
    188 H188       -1.8287  -15.5279  -45.1587 H         1 UNK         0.0600 
    189 H189       -3.3480  -14.8789  -47.9404 H         1 UNK         0.3000 
    190 H190       -2.3017  -22.7859  -43.6929 H         1 UNK         0.3000 
    191 H191       -4.8494  -23.8271  -42.9803 H         1 UNK         0.0600 
    192 H192       -2.0674  -24.3349  -41.7910 H         1 UNK         0.0600 
    193 H193       -3.5938  -24.7235  -41.0044 H         1 UNK         0.0600 
    194 H194       -3.1772  -23.0467  -41.3226 H         1 UNK         0.0600 
    195 H195       -2.1498  -25.2954  -44.6913 H         1 UNK         0.3000 
    196 H196       -3.4905  -27.9820  -44.6583 H         1 UNK         0.0600 
    197 H197       -1.2281  -28.8692  -45.1947 H         1 UNK         0.0600 
    198 H198       -1.2164  -28.0133  -43.6601 H         1 UNK         0.0600 
    199 H199       -0.5468  -27.2483  -45.0999 H         1 UNK         0.0600 
    200 H200       -1.8816  -25.4749  -46.6506 H         1 UNK         0.3000 
    201 H201       -2.1377  -26.8885  -49.1200 H         1 UNK         0.0600 
    202 H202       -0.3428  -25.2286  -48.5716 H         1 UNK         0.0600 
    203 H203       -1.5359  -23.9323  -48.5959 H         1 UNK         0.0600 
    204 H204       -1.1776  -24.8393  -50.0590 H         1 UNK         0.0600 
    205 H205       -4.3666  -24.8189  -47.4153 H         1 UNK         0.3000 
    206 H206       -6.4204  -24.1384  -47.7496 H         1 UNK         0.0600 
    207 H207       -6.8051  -26.5659  -48.0940 H         1 UNK         0.0600 
    208 H208       -7.9514  -25.6154  -49.0159 H         1 UNK         0.0600 
    209 H209       -6.5885  -26.3867  -49.8293 H         1 UNK         0.0600 
    210 H210       -7.3597  -24.6989  -50.8539 H         1 UNK         0.3000 
    211 H211       -7.8774  -22.0627  -51.4798 H         1 UNK         0.0600 
    212 H212       -7.6281  -24.4762  -53.3511 H         1 UNK         0.0600 
    213 H213       -8.4376  -22.9660  -53.7506 H         1 UNK         0.0600 
    214 H214       -9.0741  -23.9837  -52.4684 H         1 UNK         0.0600 
    215 H215       -6.7850  -20.4185  -52.2590 H         1 UNK         0.3000 
    216 H216       -5.2199  -19.0495  -52.9866 H         1 UNK         0.0600 
    217 H217       -4.0914  -19.5267  -55.1133 H         1 UNK         0.0600 
    218 H218       -5.7237  -20.1622  -55.1965 H         1 UNK         0.0600 
    219 H219       -4.3628  -21.2534  -54.9364 H         1 UNK         0.0600 
    220 H220       -4.4960  -21.2422  -50.9223 H         1 UNK         0.3000 
    221 H221       -2.8581  -22.0990  -49.7364 H         1 UNK         0.0600 
    222 H222       -1.3169  -19.5786  -50.5209 H         1 UNK         0.0600 
    223 H223       -2.3944  -19.7512  -49.1527 H         1 UNK         0.0600 
    224 H224       -0.8945  -20.6648  -49.1903 H         1 UNK         0.0600 
    225 H225       -3.2119  -23.1842  -52.1425 H         1 UNK         0.3000 
    226 H226       -2.5377  -24.5430  -53.6916 H         1 UNK         0.0600 
    227 H227       -1.0423  -25.7384  -52.1952 H         1 UNK         0.0600 
    228 H228       -0.2325  -25.5511  -53.7374 H         1 UNK         0.0600 
    229 H229        0.2341  -24.5350  -52.3836 H         1 UNK         0.0600 
    230 H230        0.1598  -22.2630  -53.2505 H         1 UNK         0.3000 
    231 H231       -0.4276  -20.8670  -55.7304 H         1 UNK         0.0600 
    232 H232        1.8269  -21.2557  -56.7552 H         1 UNK         0.0600 
    233 H233        0.9404  -22.7624  -56.6204 H         1 UNK         0.0600 
    234 H234        2.2260  -22.3928  -55.4722 H         1 UNK         0.0600 
    235 H235        0.4598  -20.7478  -52.5105 H         1 UNK         0.3000 
    236 H236        2.5643  -18.7879  -52.6730 H         1 UNK         0.0600 
    237 H237        2.2160  -20.4243  -50.7559 H         1 UNK         0.0600 
    238 H238        2.4950  -18.7556  -50.2944 H         1 UNK         0.0600 
    239 H239        0.8759  -19.4167  -50.2179 H         1 UNK         0.0600 
    240 H240       -0.9882  -18.5824  -52.4619 H         1 UNK         0.3000 
    241 H241       -0.8318  -15.6078  -52.6574 H         1 UNK         0.0600 
    242 H242       -1.8889  -17.7759  -56.0324 H         1 UNK         0.3800 
    243 H243       -1.9334  -18.5732  -54.4743 H         1 UNK         0.3800 
    244 H244       -3.2870  -15.5967  -52.6230 H         1 UNK         0.0800 
    245 H245       -3.3399  -17.3315  -52.5243 H         1 UNK         0.0800 
    246 H246       -4.1887  -18.2274  -50.2846 H         1 UNK         0.0800 
    247 H247       -5.0731  -16.7682  -50.6741 H         1 UNK         0.0800 
@<TRIPOS>BOND
     1    1    2 1    
     2    1  127 1    
     3    1  128 1    
     4    1  129 1    
     5    2    3 2    
     6    2    4 am   BACKBONE|DICT|INTERRES
     7    4    5 1    
     8    4  130 1    
     9    5    6 1    
    10    5   65 1    
    11    5  131 1    
    12    6    7 1    
    13    6  132 1    
    14    6  133 1    
    15    7    8 1    
    16    8    9 1    
    17    8  134 1    
    18    8  135 1    
    19    9   10 ar   
    20    9   14 ar   
    21   10   11 ar   
    22   10  136 1    
    23   11   12 ar   
    24   11  126 1    
    25   12   13 ar   
    26   12  137 1    
    27   13   14 ar   
    28   13   15 1    
    29   14  138 1    
    30   15   16 1    
    31   15  139 1    
    32   15  140 1    
    33   16   17 1    
    34   17   18 1    
    35   17  141 1    
    36   17  142 1    
    37   18   19 1    
    38   18   67 1    
    39   18  143 1    
    40   19   20 am   BACKBONE|DICT|INTERRES
    41   19  144 1    
    42   20   21 2    
    43   20   22 1    
    44   22   23 1    
    45   22   24 1    
    46   22  145 1    
    47   23  146 1    
    48   23  147 1    
    49   23  148 1    
    50   24   25 am   BACKBONE|DICT|INTERRES
    51   24  149 1    
    52   25   26 2    
    53   25   27 1    
    54   27   28 1    
    55   27   29 1    
    56   27  150 1    
    57   28  151 1    
    58   28  152 1    
    59   28  153 1    
    60   29   30 am   BACKBONE|DICT|INTERRES
    61   29  154 1    
    62   30   31 2    
    63   30   32 1    
    64   32   33 1    
    65   32   34 1    
    66   32  155 1    
    67   33  156 1    
    68   33  157 1    
    69   33  158 1    
    70   34   35 am   BACKBONE|DICT|INTERRES
    71   34  159 1    
    72   35   36 2    
    73   35   37 1    
    74   37   38 1    
    75   37   39 1    
    76   37  160 1    
    77   38  161 1    
    78   38  162 1    
    79   38  163 1    
    80   39   40 am   BACKBONE|DICT|INTERRES
    81   39  164 1    
    82   40   41 2    
    83   40   42 1    
    84   42   43 1    
    85   42   44 1    
    86   42  165 1    
    87   43  166 1    
    88   43  167 1    
    89   43  168 1    
    90   44   45 am   BACKBONE|DICT|INTERRES
    91   44  169 1    
    92   45   46 2    
    93   45   47 1    
    94   47   48 1    
    95   47   49 1    
    96   47  170 1    
    97   48  171 1    
    98   48  172 1    
    99   48  173 1    
   100   49   50 am   BACKBONE|DICT|INTERRES
   101   49  174 1    
   102   50   51 2    
   103   50   52 1    
   104   52   53 1    
   105   52   54 1    
   106   52  175 1    
   107   53  176 1    
   108   53  177 1    
   109   53  178 1    
   110   54   55 am   BACKBONE|DICT|INTERRES
   111   54  179 1    
   112   55   56 2    
   113   55   57 1    
   114   57   58 1    
   115   57   59 1    
   116   57  180 1    
   117   58  181 1    
   118   58  182 1    
   119   58  183 1    
   120   59   60 am   BACKBONE|DICT|INTERRES
   121   59  184 1    
   122   60   61 2    
   123   60   62 1    
   124   62   63 1    
   125   62   64 1    
   126   62  185 1    
   127   63  186 1    
   128   63  187 1    
   129   63  188 1    
   130   64   65 am   BACKBONE|DICT|INTERRES
   131   64  189 1    
   132   65   66 2    
   133   67   68 2    
   134   67   69 am   BACKBONE|DICT|INTERRES
   135   69   70 1    
   136   69  190 1    
   137   70   71 1    
   138   70   72 1    
   139   70  191 1    
   140   71  192 1    
   141   71  193 1    
   142   71  194 1    
   143   72   73 2    
   144   72   74 am   BACKBONE|DICT|INTERRES
   145   74   75 1    
   146   74  195 1    
   147   75   76 1    
   148   75   77 1    
   149   75  196 1    
   150   76  197 1    
   151   76  198 1    
   152   76  199 1    
   153   77   78 2    
   154   77   79 am   BACKBONE|DICT|INTERRES
   155   79   80 1    
   156   79  200 1    
   157   80   81 1    
   158   80   82 1    
   159   80  201 1    
   160   81  202 1    
   161   81  203 1    
   162   81  204 1    
   163   82   83 2    
   164   82   84 am   BACKBONE|DICT|INTERRES
   165   84   85 1    
   166   84  205 1    
   167   85   86 1    
   168   85   87 1    
   169   85  206 1    
   170   86  207 1    
   171   86  208 1    
   172   86  209 1    
   173   87   88 2    
   174   87   89 am   BACKBONE|DICT|INTERRES
   175   89   90 1    
   176   89  210 1    
   177   90   91 1    
   178   90   92 1    
   179   90  211 1    
   180   91  212 1    
   181   91  213 1    
   182   91  214 1    
   183   92   93 2    
   184   92   94 am   BACKBONE|DICT|INTERRES
   185   94   95 1    
   186   94  215 1    
   187   95   96 1    
   188   95   97 1    
   189   95  216 1    
   190   96  217 1    
   191   96  218 1    
   192   96  219 1    
   193   97   98 2    
   194   97   99 am   BACKBONE|DICT|INTERRES
   195   99  100 1    
   196   99  220 1    
   197  100  101 1    
   198  100  102 1    
   199  100  221 1    
   200  101  222 1    
   201  101  223 1    
   202  101  224 1    
   203  102  103 2    
   204  102  104 am   BACKBONE|DICT|INTERRES
   205  104  105 1    
   206  104  225 1    
   207  105  106 1    
   208  105  107 1    
   209  105  226 1    
   210  106  227 1    
   211  106  228 1    
   212  106  229 1    
   213  107  108 2    
   214  107  109 am   BACKBONE|DICT|INTERRES
   215  109  110 1    
   216  109  230 1    
   217  110  111 1    
   218  110  112 1    
   219  110  231 1    
   220  111  232 1    
   221  111  233 1    
   222  111  234 1    
   223  112  113 2    
   224  112  114 am   BACKBONE|DICT|INTERRES
   225  114  115 1    
   226  114  235 1    
   227  115  116 1    
   228  115  117 1    
   229  115  236 1    
   230  116  237 1    
   231  116  238 1    
   232  116  239 1    
   233  117  118 2    
   234  117  119 am   BACKBONE|DICT|INTERRES
   235  119  120 1    
   236  119  240 1    
   237  120  121 1    
   238  120  124 1    
   239  120  241 1    
   240  121  122 am   BACKBONE|DICT|INTERRES
   241  121  123 2    
   242  122  242 1    
   243  122  243 1    
   244  124  125 1    
   245  124  244 1    
   246  124  245 1    
   247  125  126 1    
   248  126  246 1    
   249  126  247 1    
@<TRIPOS>SUBSTRUCTURE
     1 UNK         1 GROUP             0       ****    0 ROOT    
