@<TRIPOS>MOLECULE
3R540
247   249    1
SMALL
USER_CHARGES


@<TRIPOS>ATOM
      1 CA          8.3340  -13.0813  -48.7480 C.3       0 UNK        -0.1800 
      2 C           7.0325  -12.5348  -48.1794 C.2       0 UNK         0.5000 
      3 O           6.9041  -12.3929  -46.9627 O.2       0 UNK        -0.5000 
      4 N           6.0699  -12.2105  -49.0511 N.am      1 UNK        -0.5000 
      5 CA          4.7327  -11.7005  -48.7149 C.3       1 UNK         0.1400 
      6 C6          3.6989  -12.0214  -49.8256 C.3       23 UNK        -0.0398 
      7 S7          3.5524  -13.8137  -50.1420 S.3       23 UNK        -0.2404 
      8 C8          1.9975  -14.1881  -49.2802 C.3       23 UNK        -0.0205 
      9 C9          1.7381  -15.6849  -49.2404 C.ar      23 UNK        -0.0193 
     10 C10         1.0768  -16.3181  -50.2985 C.ar      23 UNK        -0.1150 
     11 C11         0.8143  -17.6910  -50.2486 C.ar      23 UNK        -0.0193 
     12 C12         1.2131  -18.4252  -49.1293 C.ar      23 UNK        -0.1150 
     13 C13         1.8568  -17.8014  -48.0592 C.ar      23 UNK        -0.0193 
     14 C14         2.1327  -16.4339  -48.1277 C.ar      23 UNK        -0.1150 
     15 C15         2.2108  -18.6004  -46.8168 C.3       23 UNK        -0.0205 
     16 S16         3.7898  -19.4820  -46.9995 S.3       23 UNK        -0.2404 
     17 C17         3.6799  -20.6225  -45.5697 C.3       23 UNK        -0.0398 
     18 CA          3.3865  -22.1307  -45.8493 C.3       11 UNK         0.1400 
     19 N           2.6609  -22.7271  -44.7256 N.am      11 UNK        -0.5000 
     20 C           2.9342  -23.9107  -44.1650 C.2       10 UNK         0.5000 
     21 O           3.8523  -24.6461  -44.5287 O.2       10 UNK        -0.5000 
     22 CA          2.0347  -24.3485  -42.9914 C.3       10 UNK         0.1400 
     23 CB          2.6841  -23.9705  -41.6514 C.3       10 UNK        -0.1800 
     24 N           0.6852  -23.7798  -43.0407 N.am      10 UNK        -0.5000 
     25 C          -0.2509  -24.1334  -43.9296 C.2       9 UNK         0.5000 
     26 O          -0.0784  -24.9731  -44.8141 O.2       9 UNK        -0.5000 
     27 CA         -1.6120  -23.4207  -43.8370 C.3       9 UNK         0.1400 
     28 CB         -2.5330  -24.1619  -42.8562 C.3       9 UNK        -0.1800 
     29 N          -1.5855  -21.9975  -43.4835 N.am      9 UNK        -0.5000 
     30 C          -0.8442  -21.0446  -44.0631 C.2       8 UNK         0.5000 
     31 O           0.0970  -21.2649  -44.8274 O.2       8 UNK        -0.5000 
     32 CA         -1.2594  -19.5897  -43.7879 C.3       8 UNK         0.1400 
     33 CB         -0.0699  -18.7752  -43.2581 C.3       8 UNK        -0.1800 
     34 N          -1.7791  -18.9794  -45.0157 N.am      8 UNK        -0.5000 
     35 C          -2.9188  -19.3558  -45.6210 C.2       7 UNK         0.5000 
     36 O          -3.7027  -20.1664  -45.1253 O.2       7 UNK        -0.5000 
     37 CA         -3.2239  -18.7917  -47.0272 C.3       7 UNK         0.1400 
     38 CB         -4.7281  -18.5287  -47.2566 C.3       7 UNK        -0.1800 
     39 N          -2.4096  -17.6351  -47.4114 N.am      7 UNK        -0.5000 
     40 C          -2.4725  -16.3948  -46.9094 C.2       6 UNK         0.5000 
     41 O          -3.2513  -16.0325  -46.0256 O.2       6 UNK        -0.5000 
     42 CA         -1.4796  -15.3863  -47.5142 C.3       6 UNK         0.1400 
     43 CB         -2.2028  -14.3789  -48.4205 C.3       6 UNK        -0.1800 
     44 N          -0.7158  -14.6570  -46.5035 N.am      6 UNK        -0.5000 
     45 C           0.0132  -15.2066  -45.5215 C.2       5 UNK         0.5000 
     46 O           0.1335  -16.4213  -45.3655 O.2       5 UNK        -0.5000 
     47 CA          0.7616  -14.2492  -44.5720 C.3       5 UNK         0.1400 
     48 CB          2.2820  -14.4505  -44.6852 C.3       5 UNK        -0.1800 
     49 N           0.4674  -12.8382  -44.8269 N.am      5 UNK        -0.5000 
     50 C          -0.5882  -12.1565  -44.3708 C.2       4 UNK         0.5000 
     51 O          -1.4443  -12.6466  -43.6331 O.2       4 UNK        -0.5000 
     52 CA         -0.6893  -10.6812  -44.8251 C.3       4 UNK         0.1400 
     53 CB         -1.9362   -9.9731  -44.2651 C.3       4 UNK        -0.1800 
     54 N           0.4951   -9.8888  -44.4770 N.am      4 UNK        -0.5000 
     55 C           1.6984   -9.9677  -45.0590 C.2       3 UNK         0.5000 
     56 O           1.9639  -10.7529  -45.9765 O.2       3 UNK        -0.5000 
     57 CA          2.7861   -9.0332  -44.5056 C.3       3 UNK         0.1400 
     58 CB          3.1909   -9.4342  -43.0766 C.3       3 UNK        -0.1800 
     59 N           3.9561   -9.1268  -45.3687 N.am      3 UNK        -0.5000 
     60 C           4.6731   -8.1118  -45.8600 C.2       2 UNK         0.5000 
     61 O           4.4879   -6.9318  -45.5589 O.2       2 UNK        -0.5000 
     62 CA          5.7880   -8.4780  -46.8616 C.3       2 UNK         0.1400 
     63 CB          7.1686   -8.3674  -46.1962 C.3       2 UNK        -0.1800 
     64 N           5.6394   -9.8298  -47.4084 N.am      2 UNK        -0.5000 
     65 C           4.7718  -10.1939  -48.3613 C.2       1 UNK         0.5000 
     66 O           4.0391   -9.3941  -48.9461 O.2       1 UNK        -0.5000 
     67 C           2.6196  -22.4179  -47.1586 C.2       11 UNK         0.5000 
     68 O           3.2289  -22.8056  -48.1563 O.2       11 UNK        -0.5000 
     69 N           1.2937  -22.2359  -47.1236 N.am      12 UNK        -0.5000 
     70 CA          0.3989  -22.3058  -48.2757 C.3       12 UNK         0.1400 
     71 CB         -0.8367  -21.4456  -47.9702 C.3       12 UNK        -0.1800 
     72 C          -0.0276  -23.7323  -48.6659 C.2       12 UNK         0.5000 
     73 O          -0.7913  -23.8705  -49.6197 O.2       12 UNK        -0.5000 
     74 N           0.4186  -24.7542  -47.9205 N.am      13 UNK        -0.5000 
     75 CA          0.0800  -26.1741  -48.0825 C.3       13 UNK         0.1400 
     76 CB          0.6271  -26.7270  -49.4153 C.3       13 UNK        -0.1800 
     77 C          -1.4325  -26.4098  -47.9053 C.2       13 UNK         0.5000 
     78 O          -2.1245  -26.8188  -48.8412 O.2       13 UNK        -0.5000 
     79 N          -1.9170  -26.0751  -46.7012 N.am      14 UNK        -0.5000 
     80 CA         -3.3196  -26.1167  -46.2738 C.3       14 UNK         0.1400 
     81 CB         -3.8270  -27.5722  -46.2006 C.3       14 UNK        -0.1800 
     82 C          -4.2209  -25.2051  -47.1310 C.2       14 UNK         0.5000 
     83 O          -5.3169  -25.6108  -47.5158 O.2       14 UNK        -0.5000 
     84 N          -3.7189  -23.9987  -47.4395 N.am      15 UNK        -0.5000 
     85 CA         -4.3392  -22.9870  -48.3047 C.3       15 UNK         0.1400 
     86 CB         -5.6183  -22.4196  -47.6545 C.3       15 UNK        -0.1800 
     87 C          -4.5696  -23.5195  -49.7334 C.2       15 UNK         0.5000 
     88 O          -5.6798  -23.4248  -50.2594 O.2       15 UNK        -0.5000 
     89 N          -3.5130  -24.1075  -50.3129 N.am      16 UNK        -0.5000 
     90 CA         -3.4743  -24.7945  -51.6054 C.3       16 UNK         0.1400 
     91 CB         -3.6239  -23.7793  -52.7567 C.3       16 UNK        -0.1800 
     92 C          -4.4876  -25.9546  -51.6733 C.2       16 UNK         0.5000 
     93 O          -5.2728  -26.0347  -52.6179 O.2       16 UNK        -0.5000 
     94 N          -4.4762  -26.8047  -50.6351 N.am      17 UNK        -0.5000 
     95 CA         -5.4165  -27.9052  -50.3906 C.3       17 UNK         0.1400 
     96 CB         -5.1921  -29.0468  -51.4036 C.3       17 UNK        -0.1800 
     97 C          -6.8841  -27.4234  -50.3293 C.2       17 UNK         0.5000 
     98 O          -7.7571  -27.9825  -50.9957 O.2       17 UNK        -0.5000 
     99 N          -7.1077  -26.3694  -49.5329 N.am      18 UNK        -0.5000 
    100 CA        -8.3715  -25.6766  -49.2673 C.3       18 UNK         0.1400 
    101 CB        -9.3800  -26.6200  -48.5793 C.3       18 UNK        -0.1800 
    102 C         -8.9798  -24.9388  -50.4805 C.2       18 UNK         0.5000 
    103 O        -10.1573  -24.5772  -50.4354 O.2       18 UNK        -0.5000 
    104 N         -8.1836  -24.6946  -51.5308 N.am      19 UNK        -0.5000 
    105 CA        -8.5905  -23.9167  -52.7038 C.3       19 UNK         0.1400 
    106 CB        -7.6837  -24.2685  -53.8920 C.3       19 UNK        -0.1800 
    107 C         -8.5680  -22.3972  -52.4495 C.2       19 UNK         0.5000 
    108 O         -9.2846  -21.6666  -53.1346 O.2       19 UNK        -0.5000 
    109 N         -7.7414  -21.9530  -51.4885 N.am      20 UNK        -0.5000 
    110 CA        -7.4922  -20.5603  -51.0976 C.3       20 UNK         0.1400 
    111 CB        -8.7538  -19.9202  -50.4835 C.3       20 UNK        -0.1800 
    112 C         -6.8733  -19.7213  -52.2357 C.2       20 UNK         0.5000 
    113 O         -7.1609  -18.5289  -52.3624 O.2       20 UNK        -0.5000 
    114 N         -6.0108  -20.3660  -53.0364 N.am      21 UNK        -0.5000 
    115 CA        -5.3650  -19.8136  -54.2328 C.3       21 UNK         0.1400 
    116 CB        -4.5611  -20.9273  -54.9208 C.3       21 UNK        -0.1800 
    117 C         -4.4690  -18.5852  -53.9733 C.2       21 UNK         0.5000 
    118 O         -4.2341  -17.8040  -54.8961 O.2       21 UNK        -0.5000 
    119 N         -4.0039  -18.4273  -52.7279 N.am      22 UNK        -0.5000 
    120 CA        -3.2624  -17.2516  -52.2464 C.3       22 UNK         0.1400 
    121 C         -4.1219  -15.9570  -52.1253 C.2       22 UNK         0.5000 
    122 N         -5.4486  -16.0248  -52.1657 N.am      22 UNK        -0.7600 
    123 O         -3.5705  -14.8685  -51.9924 O.2       22 UNK        -0.5000 
    124 C124       -2.5332  -17.5308  -50.9069 C.3       23 UNK        -0.0398 
    125 S125       -1.5177  -19.0469  -50.9269 S.3       23 UNK        -0.2404 
    126 C126        0.1150  -18.3938  -51.4029 C.3       23 UNK        -0.0205 
    127 H127        8.3046  -13.1483  -49.8359 H         1 UNK         0.0600 
    128 H128        8.5268  -14.0780  -48.3510 H         1 UNK         0.0600 
    129 H129        9.1659  -12.4347  -48.4689 H         1 UNK         0.0600 
    130 H130        6.2440  -12.3350  -50.0383 H         1 UNK         0.3000 
    131 H131        4.3933  -12.2107  -47.8104 H         1 UNK         0.0600 
    132 H132        2.7155  -11.6267  -49.5625 H         1 UNK         0.0800 
    133 H133        3.9796  -11.5330  -50.7603 H         1 UNK         0.0800 
    134 H134        1.1715  -13.6801  -49.7804 H         1 UNK         0.0800 
    135 H135        2.0367  -13.7889  -48.2652 H         1 UNK         0.0800 
    136 H136        0.7706  -15.7406  -51.1595 H         1 UNK         0.1150 
    137 H137        1.0152  -19.4854  -49.0902 H         1 UNK         0.1150 
    138 H138        2.6347  -15.9494  -47.3032 H         1 UNK         0.1150 
    139 H139        2.2699  -17.9434  -45.9480 H         1 UNK         0.0800 
    140 H140        1.4106  -19.3116  -46.6067 H         1 UNK         0.0800 
    141 H141        2.9275  -20.2195  -44.8895 H         1 UNK         0.0800 
    142 H142        4.6164  -20.5449  -45.0162 H         1 UNK         0.0800 
    143 H143        4.3559  -22.6219  -45.9578 H         1 UNK         0.0600 
    144 H144        1.8449  -22.2197  -44.4027 H         1 UNK         0.3000 
    145 H145        1.9479  -25.4364  -43.0332 H         1 UNK         0.0600 
    146 H146        2.7811  -22.8896  -41.5418 H         1 UNK         0.0600 
    147 H147        2.0990  -24.3429  -40.8103 H         1 UNK         0.0600 
    148 H148        3.6831  -24.4002  -41.5658 H         1 UNK         0.0600 
    149 H149        0.4587  -23.0738  -42.3555 H         1 UNK         0.3000 
    150 H150       -2.0620  -23.4804  -44.8292 H         1 UNK         0.0600 
    151 H151       -2.5515  -25.2337  -43.0579 H         1 UNK         0.0600 
    152 H152       -3.5591  -23.8010  -42.9292 H         1 UNK         0.0600 
    153 H153       -2.2045  -24.0327  -41.8242 H         1 UNK         0.0600 
    154 H154       -2.3332  -21.6955  -42.8754 H         1 UNK         0.3000 
    155 H155       -2.0467  -19.5734  -43.0316 H         1 UNK         0.0600 
    156 H156        0.3327  -19.2185  -42.3467 H         1 UNK         0.0600 
    157 H157       -0.3684  -17.7547  -43.0179 H         1 UNK         0.0600 
    158 H158        0.7422  -18.7246  -43.9843 H         1 UNK         0.0600 
    159 H159       -1.1863  -18.2879  -45.4578 H         1 UNK         0.3000 
    160 H160       -2.9427  -19.5825  -47.7220 H         1 UNK         0.0600 
    161 H161       -4.9180  -18.1596  -48.2642 H         1 UNK         0.0600 
    162 H162       -5.1269  -17.8003  -46.5507 H         1 UNK         0.0600 
    163 H163       -5.3091  -19.4428  -47.1348 H         1 UNK         0.0600 
    164 H164       -1.7030  -17.8267  -48.1081 H         1 UNK         0.3000 
    165 H165       -0.7657  -15.9381  -48.1244 H         1 UNK         0.0600 
    166 H166       -2.8740  -13.7360  -47.8496 H         1 UNK         0.0600 
    167 H167       -1.4927  -13.7418  -48.9482 H         1 UNK         0.0600 
    168 H168       -2.8035  -14.8878  -49.1748 H         1 UNK         0.0600 
    169 H169       -0.7672  -13.6513  -46.5393 H         1 UNK         0.3000 
    170 H170        0.4576  -14.5011  -43.5540 H         1 UNK         0.0600 
    171 H171        2.6520  -14.1733  -45.6727 H         1 UNK         0.0600 
    172 H172        2.8130  -13.8461  -43.9496 H         1 UNK         0.0600 
    173 H173        2.5580  -15.4911  -44.5085 H         1 UNK         0.0600 
    174 H174        1.1335  -12.3270  -45.4010 H         1 UNK         0.3000 
    175 H175       -0.7817  -10.6930  -45.9132 H         1 UNK         0.0600 
    176 H176       -1.9111   -9.9139  -43.1763 H         1 UNK         0.0600 
    177 H177       -2.0220   -8.9584  -44.6545 H         1 UNK         0.0600 
    178 H178       -2.8477  -10.5028  -44.5454 H         1 UNK         0.0600 
    179 H179        0.3760   -9.2425  -43.7103 H         1 UNK         0.3000 
    180 H180        2.3908   -8.0153  -44.5054 H         1 UNK         0.0600 
    181 H181        3.5455  -10.4650  -43.0336 H         1 UNK         0.0600 
    182 H182        2.3519   -9.3453  -42.3859 H         1 UNK         0.0600 
    183 H183        3.9873   -8.7919  -42.7001 H         1 UNK         0.0600 
    184 H184        4.1285  -10.0514  -45.7385 H         1 UNK         0.3000 
    185 H185        5.7437   -7.7595  -47.6827 H         1 UNK         0.0600 
    186 H186        7.3333   -7.3647  -45.7997 H         1 UNK         0.0600 
    187 H187        7.2730   -9.0699  -45.3683 H         1 UNK         0.0600 
    188 H188        7.9675   -8.5689  -46.9101 H         1 UNK         0.0600 
    189 H189        6.2153  -10.5597  -46.9984 H         1 UNK         0.3000 
    190 H190        0.8689  -21.9168  -46.2543 H         1 UNK         0.3000 
    191 H191        0.9088  -21.8765  -49.1404 H         1 UNK         0.0600 
    192 H192       -1.4377  -21.8758  -47.1688 H         1 UNK         0.0600 
    193 H193       -0.5556  -20.4387  -47.6644 H         1 UNK         0.0600 
    194 H194       -1.4692  -21.3491  -48.8528 H         1 UNK         0.0600 
    195 H195        0.9966  -24.5298  -47.1226 H         1 UNK         0.3000 
    196 H196        0.5798  -26.7096  -47.2739 H         1 UNK         0.0600 
    197 H197        1.7018  -26.5645  -49.4965 H         1 UNK         0.0600 
    198 H198        0.1522  -26.2627  -50.2800 H         1 UNK         0.0600 
    199 H199        0.4536  -27.8012  -49.4886 H         1 UNK         0.0600 
    200 H200       -1.2506  -25.7365  -46.0094 H         1 UNK         0.3000 
    201 H201       -3.3522  -25.7096  -45.2639 H         1 UNK         0.0600 
    202 H202       -4.8294  -27.6157  -45.7731 H         1 UNK         0.0600 
    203 H203       -3.1802  -28.1826  -45.5705 H         1 UNK         0.0600 
    204 H204       -3.8723  -28.0385  -47.1850 H         1 UNK         0.0600 
    205 H205       -2.7912  -23.7851  -47.1086 H         1 UNK         0.3000 
    206 H206       -3.6311  -22.1645  -48.3946 H         1 UNK         0.0600 
    207 H207       -6.4042  -23.1706  -47.5723 H         1 UNK         0.0600 
    208 H208       -6.0203  -21.5931  -48.2398 H         1 UNK         0.0600 
    209 H209       -5.4137  -22.0383  -46.6540 H         1 UNK         0.0600 
    210 H210       -2.6230  -24.1125  -49.8201 H         1 UNK         0.3000 
    211 H211       -2.4842  -25.2456  -51.6864 H         1 UNK         0.0600 
    212 H212       -2.8507  -23.0131  -52.7020 H         1 UNK         0.0600 
    213 H213       -3.5289  -24.2681  -53.7269 H         1 UNK         0.0600 
    214 H214       -4.5915  -23.2796  -52.7340 H         1 UNK         0.0600 
    215 H215       -3.7662  -26.6687  -49.9197 H         1 UNK         0.3000 
    216 H216       -5.1806  -28.2938  -49.3991 H         1 UNK         0.0600 
    217 H217       -5.8122  -29.9105  -51.1610 H         1 UNK         0.0600 
    218 H218       -5.4395  -28.7423  -52.4210 H         1 UNK         0.0600 
    219 H219       -4.1545  -29.3804  -51.3963 H         1 UNK         0.0600 
    220 H220       -6.3201  -26.0112  -48.9951 H         1 UNK         0.3000 
    221 H221       -8.1213  -24.8936  -48.5503 H         1 UNK         0.0600 
    222 H222       -9.7372  -27.3955  -49.2573 H         1 UNK         0.0600 
    223 H223       -8.9340  -27.1091  -47.7133 H         1 UNK         0.0600 
    224 H224      -10.2527  -26.0709  -48.2242 H         1 UNK         0.0600 
    225 H225       -7.2206  -25.0042  -51.4943 H         1 UNK         0.3000 
    226 H226       -9.6126  -24.1940  -52.9701 H         1 UNK         0.0600 
    227 H227       -7.6952  -25.3397  -54.0946 H         1 UNK         0.0600 
    228 H228       -8.0147  -23.7614  -54.7991 H         1 UNK         0.0600 
    229 H229       -6.6507  -23.9725  -53.7118 H         1 UNK         0.0600 
    230 H230       -7.1585  -22.6401  -51.0125 H         1 UNK         0.3000 
    231 H231       -6.7344  -20.5991  -50.3149 H         1 UNK         0.0600 
    232 H232       -8.5281  -18.9406  -50.0605 H         1 UNK         0.0600 
    233 H233       -9.1546  -20.5358  -49.6782 H         1 UNK         0.0600 
    234 H234       -9.5413  -19.7816  -51.2245 H         1 UNK         0.0600 
    235 H235       -5.8364  -21.3411  -52.8450 H         1 UNK         0.3000 
    236 H236       -6.1590  -19.4959  -54.9115 H         1 UNK         0.0600 
    237 H237       -5.1890  -21.7885  -55.1506 H         1 UNK         0.0600 
    238 H238       -4.1358  -20.5763  -55.8620 H         1 UNK         0.0600 
    239 H239       -3.7343  -21.2674  -54.2969 H         1 UNK         0.0600 
    240 H240       -4.2256  -19.1298  -52.0397 H         1 UNK         0.3000 
    241 H241       -2.4952  -17.0329  -52.9916 H         1 UNK         0.0600 
    242 H242       -5.9866  -15.1764  -52.0898 H         1 UNK         0.3800 
    243 H243       -5.9301  -16.9110  -52.2762 H         1 UNK         0.3800 
    244 H244       -1.9017  -16.6847  -50.6321 H         1 UNK         0.0800 
    245 H245       -3.2651  -17.6370  -50.1054 H         1 UNK         0.0800 
    246 H246        0.0066  -17.7298  -52.2618 H         1 UNK         0.0800 
    247 H247        0.7387  -19.2243  -51.7364 H         1 UNK         0.0800 
@<TRIPOS>BOND
     1    1    2 1    
     2    1  127 1    
     3    1  128 1    
     4    1  129 1    
     5    2    3 2    
     6    2    4 am   BACKBONE|DICT|INTERRES
     7    4    5 1    
     8    4  130 1    
     9    5    6 1    
    10    5   65 1    
    11    5  131 1    
    12    6    7 1    
    13    6  132 1    
    14    6  133 1    
    15    7    8 1    
    16    8    9 1    
    17    8  134 1    
    18    8  135 1    
    19    9   10 ar   
    20    9   14 ar   
    21   10   11 ar   
    22   10  136 1    
    23   11   12 ar   
    24   11  126 1    
    25   12   13 ar   
    26   12  137 1    
    27   13   14 ar   
    28   13   15 1    
    29   14  138 1    
    30   15   16 1    
    31   15  139 1    
    32   15  140 1    
    33   16   17 1    
    34   17   18 1    
    35   17  141 1    
    36   17  142 1    
    37   18   19 1    
    38   18   67 1    
    39   18  143 1    
    40   19   20 am   BACKBONE|DICT|INTERRES
    41   19  144 1    
    42   20   21 2    
    43   20   22 1    
    44   22   23 1    
    45   22   24 1    
    46   22  145 1    
    47   23  146 1    
    48   23  147 1    
    49   23  148 1    
    50   24   25 am   BACKBONE|DICT|INTERRES
    51   24  149 1    
    52   25   26 2    
    53   25   27 1    
    54   27   28 1    
    55   27   29 1    
    56   27  150 1    
    57   28  151 1    
    58   28  152 1    
    59   28  153 1    
    60   29   30 am   BACKBONE|DICT|INTERRES
    61   29  154 1    
    62   30   31 2    
    63   30   32 1    
    64   32   33 1    
    65   32   34 1    
    66   32  155 1    
    67   33  156 1    
    68   33  157 1    
    69   33  158 1    
    70   34   35 am   BACKBONE|DICT|INTERRES
    71   34  159 1    
    72   35   36 2    
    73   35   37 1    
    74   37   38 1    
    75   37   39 1    
    76   37  160 1    
    77   38  161 1    
    78   38  162 1    
    79   38  163 1    
    80   39   40 am   BACKBONE|DICT|INTERRES
    81   39  164 1    
    82   40   41 2    
    83   40   42 1    
    84   42   43 1    
    85   42   44 1    
    86   42  165 1    
    87   43  166 1    
    88   43  167 1    
    89   43  168 1    
    90   44   45 am   BACKBONE|DICT|INTERRES
    91   44  169 1    
    92   45   46 2    
    93   45   47 1    
    94   47   48 1    
    95   47   49 1    
    96   47  170 1    
    97   48  171 1    
    98   48  172 1    
    99   48  173 1    
   100   49   50 am   BACKBONE|DICT|INTERRES
   101   49  174 1    
   102   50   51 2    
   103   50   52 1    
   104   52   53 1    
   105   52   54 1    
   106   52  175 1    
   107   53  176 1    
   108   53  177 1    
   109   53  178 1    
   110   54   55 am   BACKBONE|DICT|INTERRES
   111   54  179 1    
   112   55   56 2    
   113   55   57 1    
   114   57   58 1    
   115   57   59 1    
   116   57  180 1    
   117   58  181 1    
   118   58  182 1    
   119   58  183 1    
   120   59   60 am   BACKBONE|DICT|INTERRES
   121   59  184 1    
   122   60   61 2    
   123   60   62 1    
   124   62   63 1    
   125   62   64 1    
   126   62  185 1    
   127   63  186 1    
   128   63  187 1    
   129   63  188 1    
   130   64   65 am   BACKBONE|DICT|INTERRES
   131   64  189 1    
   132   65   66 2    
   133   67   68 2    
   134   67   69 am   BACKBONE|DICT|INTERRES
   135   69   70 1    
   136   69  190 1    
   137   70   71 1    
   138   70   72 1    
   139   70  191 1    
   140   71  192 1    
   141   71  193 1    
   142   71  194 1    
   143   72   73 2    
   144   72   74 am   BACKBONE|DICT|INTERRES
   145   74   75 1    
   146   74  195 1    
   147   75   76 1    
   148   75   77 1    
   149   75  196 1    
   150   76  197 1    
   151   76  198 1    
   152   76  199 1    
   153   77   78 2    
   154   77   79 am   BACKBONE|DICT|INTERRES
   155   79   80 1    
   156   79  200 1    
   157   80   81 1    
   158   80   82 1    
   159   80  201 1    
   160   81  202 1    
   161   81  203 1    
   162   81  204 1    
   163   82   83 2    
   164   82   84 am   BACKBONE|DICT|INTERRES
   165   84   85 1    
   166   84  205 1    
   167   85   86 1    
   168   85   87 1    
   169   85  206 1    
   170   86  207 1    
   171   86  208 1    
   172   86  209 1    
   173   87   88 2    
   174   87   89 am   BACKBONE|DICT|INTERRES
   175   89   90 1    
   176   89  210 1    
   177   90   91 1    
   178   90   92 1    
   179   90  211 1    
   180   91  212 1    
   181   91  213 1    
   182   91  214 1    
   183   92   93 2    
   184   92   94 am   BACKBONE|DICT|INTERRES
   185   94   95 1    
   186   94  215 1    
   187   95   96 1    
   188   95   97 1    
   189   95  216 1    
   190   96  217 1    
   191   96  218 1    
   192   96  219 1    
   193   97   98 2    
   194   97   99 am   BACKBONE|DICT|INTERRES
   195   99  100 1    
   196   99  220 1    
   197  100  101 1    
   198  100  102 1    
   199  100  221 1    
   200  101  222 1    
   201  101  223 1    
   202  101  224 1    
   203  102  103 2    
   204  102  104 am   BACKBONE|DICT|INTERRES
   205  104  105 1    
   206  104  225 1    
   207  105  106 1    
   208  105  107 1    
   209  105  226 1    
   210  106  227 1    
   211  106  228 1    
   212  106  229 1    
   213  107  108 2    
   214  107  109 am   BACKBONE|DICT|INTERRES
   215  109  110 1    
   216  109  230 1    
   217  110  111 1    
   218  110  112 1    
   219  110  231 1    
   220  111  232 1    
   221  111  233 1    
   222  111  234 1    
   223  112  113 2    
   224  112  114 am   BACKBONE|DICT|INTERRES
   225  114  115 1    
   226  114  235 1    
   227  115  116 1    
   228  115  117 1    
   229  115  236 1    
   230  116  237 1    
   231  116  238 1    
   232  116  239 1    
   233  117  118 2    
   234  117  119 am   BACKBONE|DICT|INTERRES
   235  119  120 1    
   236  119  240 1    
   237  120  121 1    
   238  120  124 1    
   239  120  241 1    
   240  121  122 am   BACKBONE|DICT|INTERRES
   241  121  123 2    
   242  122  242 1    
   243  122  243 1    
   244  124  125 1    
   245  124  244 1    
   246  124  245 1    
   247  125  126 1    
   248  126  246 1    
   249  126  247 1    
@<TRIPOS>SUBSTRUCTURE
     1 UNK         1 GROUP             0       ****    0 ROOT    
