@<TRIPOS>MOLECULE
3R540
247   249    1
SMALL
USER_CHARGES


@<TRIPOS>ATOM
      1 CA         -0.8009  -12.3692  -47.3933 C.3       0 UNK        -0.1800 
      2 C           0.5202  -11.6401  -47.5898 C.2       0 UNK         0.5000 
      3 O           0.5453  -10.5705  -48.1994 O.2       0 UNK        -0.5000 
      4 N           1.6145  -12.2129  -47.0756 N.am      1 UNK        -0.5000 
      5 CA          2.9475  -11.6017  -47.0787 C.3       1 UNK         0.1400 
      6 C6          4.0707  -12.6576  -46.9407 C.3       23 UNK        -0.0398 
      7 S7          4.1308  -13.7858  -48.3717 S.3       23 UNK        -0.2404 
      8 C8          3.3867  -15.2847  -47.6558 C.3       23 UNK        -0.0205 
      9 C9          2.7240  -16.1521  -48.7140 C.ar      23 UNK        -0.0193 
     10 C10         1.6546  -15.6489  -49.4595 C.ar      23 UNK        -0.1150 
     11 C11         0.9946  -16.4432  -50.4013 C.ar      23 UNK        -0.0193 
     12 C12         1.4158  -17.7664  -50.5826 C.ar      23 UNK        -0.1150 
     13 C13         2.4957  -18.2793  -49.8558 C.ar      23 UNK        -0.0193 
     14 C14         3.1462  -17.4666  -48.9232 C.ar      23 UNK        -0.1150 
     15 C15         2.9775  -19.7045  -50.0884 C.3       23 UNK        -0.0205 
     16 S16         2.5168  -20.8225  -48.7277 S.3       23 UNK        -0.2404 
     17 C17         0.7169  -20.9465  -48.9750 C.3       23 UNK        -0.0398 
     18 CA          0.0834  -22.0807  -48.1359 C.3       11 UNK         0.1400 
     19 N           0.1036  -21.8088  -46.6939 N.am      11 UNK        -0.5000 
     20 C          -0.2566  -22.6903  -45.7492 C.2       10 UNK         0.5000 
     21 O          -0.5857  -23.8517  -45.9893 O.2       10 UNK        -0.5000 
     22 CA         -0.3158  -22.1819  -44.2973 C.3       10 UNK         0.1400 
     23 CB          1.0818  -22.1551  -43.6614 C.3       10 UNK        -0.1800 
     24 N          -0.9447  -20.8649  -44.1880 N.am      10 UNK        -0.5000 
     25 C          -2.2248  -20.6108  -44.4971 C.2       9 UNK         0.5000 
     26 O          -3.0243  -21.4758  -44.8531 O.2       9 UNK        -0.5000 
     27 CA         -2.6792  -19.1401  -44.4505 C.3       9 UNK         0.1400 
     28 CB         -3.0208  -18.7130  -43.0156 C.3       9 UNK        -0.1800 
     29 N          -1.6848  -18.2276  -45.0137 N.am      9 UNK        -0.5000 
     30 C          -1.2775  -18.2447  -46.2907 C.2       8 UNK         0.5000 
     31 O          -1.7454  -18.9924  -47.1502 O.2       8 UNK        -0.5000 
     32 CA         -0.1184  -17.3021  -46.6560 C.3       8 UNK         0.1400 
     33 CB         -0.6344  -15.8778  -46.9039 C.3       8 UNK        -0.1800 
     34 N           0.9217  -17.2852  -45.6251 N.am      8 UNK        -0.5000 
     35 C           1.6730  -18.3495  -45.3062 C.2       7 UNK         0.5000 
     36 O           1.5915  -19.4362  -45.8739 O.2       7 UNK        -0.5000 
     37 CA          2.6197  -18.1996  -44.1042 C.3       7 UNK         0.1400 
     38 CB          3.9444  -17.5416  -44.5166 C.3       7 UNK        -0.1800 
     39 N           1.9970  -17.4420  -43.0185 N.am      7 UNK        -0.5000 
     40 C           0.9942  -17.9152  -42.2624 C.2       6 UNK         0.5000 
     41 O           0.5398  -19.0532  -42.3731 O.2       6 UNK        -0.5000 
     42 CA          0.3626  -16.9491  -41.2414 C.3       6 UNK         0.1400 
     43 CB          1.0865  -17.0457  -39.8906 C.3       6 UNK        -0.1800 
     44 N           0.3650  -15.5566  -41.6908 N.am      6 UNK        -0.5000 
     45 C          -0.2906  -15.0951  -42.7657 C.2       5 UNK         0.5000 
     46 O          -1.0270  -15.7930  -43.4622 O.2       5 UNK        -0.5000 
     47 CA         -0.0334  -13.6260  -43.1597 C.3       5 UNK         0.1400 
     48 CB         -1.1318  -12.7118  -42.5999 C.3       5 UNK        -0.1800 
     49 N           1.2779  -13.1345  -42.7225 N.am      5 UNK        -0.5000 
     50 C           2.4498  -13.5997  -43.1771 C.2       4 UNK         0.5000 
     51 O           2.5349  -14.4509  -44.0639 O.2       4 UNK        -0.5000 
     52 CA          3.7117  -13.0349  -42.5041 C.3       4 UNK         0.1400 
     53 CB          5.0270  -13.4168  -43.2107 C.3       4 UNK        -0.1800 
     54 N           3.6133  -11.5834  -42.3747 N.am      4 UNK        -0.5000 
     55 C           4.1741  -10.8574  -41.3982 C.2       3 UNK         0.5000 
     56 O           4.7913  -11.3573  -40.4558 O.2       3 UNK        -0.5000 
     57 CA          4.0095   -9.3214  -41.4781 C.3       3 UNK         0.1400 
     58 CB          5.1577   -8.5597  -40.7825 C.3       3 UNK        -0.1800 
     59 N           3.8002   -8.8189  -42.8420 N.am      3 UNK        -0.5000 
     60 C           4.6423   -8.9126  -43.8815 C.2       2 UNK         0.5000 
     61 O           5.7706   -9.4057  -43.8270 O.2       2 UNK        -0.5000 
     62 CA          4.0962   -8.4123  -45.2325 C.3       2 UNK         0.1400 
     63 CB          5.0537   -7.3989  -45.8804 C.3       2 UNK        -0.1800 
     64 N           3.8567   -9.5138  -46.1680 N.am      2 UNK        -0.5000 
     65 C           3.0394  -10.5537  -45.9515 C.2       1 UNK         0.5000 
     66 O           2.3890  -10.7100  -44.9133 O.2       1 UNK        -0.5000 
     67 C          -1.3386  -22.4030  -48.6376 C.2       11 UNK         0.5000 
     68 O          -1.5076  -23.3827  -49.3642 O.2       11 UNK        -0.5000 
     69 N          -2.3367  -21.6195  -48.2015 N.am      12 UNK        -0.5000 
     70 CA         -3.7476  -21.8297  -48.5277 C.3       12 UNK         0.1400 
     71 CB         -4.5950  -20.6576  -48.0110 C.3       12 UNK        -0.1800 
     72 C          -4.2821  -23.1639  -47.9827 C.2       12 UNK         0.5000 
     73 O          -4.9736  -23.8754  -48.7095 O.2       12 UNK        -0.5000 
     74 N          -3.9227  -23.4948  -46.7341 N.am      13 UNK        -0.5000 
     75 CA         -4.2574  -24.7574  -46.0768 C.3       13 UNK         0.1400 
     76 CB         -3.8584  -24.6942  -44.5950 C.3       13 UNK        -0.1800 
     77 C          -3.6173  -25.9744  -46.7675 C.2       13 UNK         0.5000 
     78 O          -4.3068  -26.9692  -46.9916 O.2       13 UNK        -0.5000 
     79 N          -2.3323  -25.8630  -47.1350 N.am      14 UNK        -0.5000 
     80 CA         -1.5861  -26.8832  -47.8780 C.3       14 UNK         0.1400 
     81 CB         -0.1032  -26.4884  -47.9445 C.3       14 UNK        -0.1800 
     82 C          -2.1489  -27.1273  -49.2915 C.2       14 UNK         0.5000 
     83 O          -2.1985  -28.2728  -49.7403 O.2       14 UNK        -0.5000 
     84 N          -2.5998  -26.0505  -49.9468 N.am      15 UNK        -0.5000 
     85 CA         -3.2799  -26.0709  -51.2418 C.3       15 UNK         0.1400 
     86 CB         -3.1503  -24.6760  -51.8722 C.3       15 UNK        -0.1800 
     87 C          -4.7660  -26.4790  -51.1562 C.2       15 UNK         0.5000 
     88 O          -5.4174  -26.5860  -52.1988 O.2       15 UNK        -0.5000 
     89 N          -5.2940  -26.6362  -49.9312 N.am      16 UNK        -0.5000 
     90 CA         -6.6914  -26.9148  -49.5716 C.3       16 UNK         0.1400 
     91 CB         -7.0748  -28.3441  -50.0059 C.3       16 UNK        -0.1800 
     92 C          -7.6888  -25.8548  -50.0930 C.2       16 UNK         0.5000 
     93 O          -8.8669  -26.1616  -50.2825 O.2       16 UNK        -0.5000 
     94 N          -7.1804  -24.6419  -50.3628 N.am      17 UNK        -0.5000 
     95 CA         -7.8105  -23.5277  -51.0801 C.3       17 UNK         0.1400 
     96 CB         -8.9189  -22.8953  -50.2150 C.3       17 UNK        -0.1800 
     97 C          -8.3021  -23.8929  -52.5034 C.2       17 UNK         0.5000 
     98 O          -9.1649  -23.1976  -53.0431 O.2       17 UNK        -0.5000 
     99 N          -7.7677  -24.9805  -53.0772 N.am      18 UNK        -0.5000 
    100 CA        -8.2270  -25.5888  -54.3237 C.3       18 UNK         0.1400 
    101 CB        -8.7064  -27.0201  -54.0324 C.3       18 UNK        -0.1800 
    102 C         -7.1168  -25.5964  -55.3811 C.2       18 UNK         0.5000 
    103 O         -7.3784  -25.2405  -56.5309 O.2       18 UNK        -0.5000 
    104 N         -5.8958  -25.9831  -54.9831 N.am      19 UNK        -0.5000 
    105 CA        -4.7211  -26.0001  -55.8603 C.3       19 UNK         0.1400 
    106 CB        -3.6429  -26.9064  -55.2471 C.3       19 UNK        -0.1800 
    107 C         -4.1624  -24.5890  -56.1286 C.2       19 UNK         0.5000 
    108 O         -3.5248  -24.3713  -57.1595 O.2       19 UNK        -0.5000 
    109 N         -4.4258  -23.6608  -55.2038 N.am      20 UNK        -0.5000 
    110 CA        -4.0588  -22.2539  -55.2427 C.3       20 UNK         0.1400 
    111 CB        -2.5545  -22.0797  -54.9597 C.3       20 UNK        -0.1800 
    112 C         -4.8939  -21.5274  -54.1814 C.2       20 UNK         0.5000 
    113 O         -5.2516  -22.1326  -53.1671 O.2       20 UNK        -0.5000 
    114 N         -5.1685  -20.2418  -54.4245 N.am      21 UNK        -0.5000 
    115 CA        -5.8520  -19.3516  -53.4817 C.3       21 UNK         0.1400 
    116 CB        -6.7180  -18.3634  -54.2794 C.3       21 UNK        -0.1800 
    117 C         -4.8654  -18.5897  -52.5730 C.2       21 UNK         0.5000 
    118 O         -5.2959  -17.9930  -51.5858 O.2       21 UNK        -0.5000 
    119 N         -3.5739  -18.5973  -52.9320 N.am      22 UNK        -0.5000 
    120 CA        -2.4790  -17.9526  -52.1959 C.3       22 UNK         0.1400 
    121 C         -2.1903  -18.7032  -50.8673 C.2       22 UNK         0.5000 
    122 N         -2.5131  -18.1120  -49.7261 N.am      22 UNK        -0.7600 
    123 O         -1.6539  -19.8065  -50.8757 O.2       22 UNK        -0.5000 
    124 C124       -1.2079  -17.8275  -53.0889 C.3       23 UNK        -0.0398 
    125 S125       -0.2466  -16.2728  -52.9466 S.3       23 UNK        -0.2404 
    126 C126       -0.1825  -15.8435  -51.1701 C.3       23 UNK        -0.0205 
    127 H127       -1.0015  -13.0218  -48.2428 H         1 UNK         0.0600 
    128 H128       -1.6201  -11.6552  -47.3092 H         1 UNK         0.0600 
    129 H129       -0.7911  -12.9709  -46.4856 H         1 UNK         0.0600 
    130 H130        1.5293  -13.0633  -46.5403 H         1 UNK         0.3000 
    131 H131        3.0888  -11.0831  -48.0297 H         1 UNK         0.0600 
    132 H132        5.0468  -12.1748  -46.8667 H         1 UNK         0.0800 
    133 H133        3.9470  -13.2366  -46.0263 H         1 UNK         0.0800 
    134 H134        2.6367  -15.0180  -46.9110 H         1 UNK         0.0800 
    135 H135        4.1637  -15.8389  -47.1284 H         1 UNK         0.0800 
    136 H136        1.3302  -14.6311  -49.2929 H         1 UNK         0.1150 
    137 H137        0.9105  -18.4029  -51.2913 H         1 UNK         0.1150 
    138 H138        3.9710  -17.8674  -48.3508 H         1 UNK         0.1150 
    139 H139        2.5919  -20.0966  -51.0308 H         1 UNK         0.0800 
    140 H140        4.0641  -19.7011  -50.1847 H         1 UNK         0.0800 
    141 H141        0.5453  -21.1197  -50.0391 H         1 UNK         0.0800 
    142 H142        0.2563  -19.9856  -48.7411 H         1 UNK         0.0800 
    143 H143        0.6781  -22.9827  -48.2963 H         1 UNK         0.0600 
    144 H144        0.4291  -20.8880  -46.4116 H         1 UNK         0.3000 
    145 H145       -0.9269  -22.8850  -43.7275 H         1 UNK         0.0600 
    146 H146        1.0329  -21.8553  -42.6145 H         1 UNK         0.0600 
    147 H147        1.5433  -23.1427  -43.6961 H         1 UNK         0.0600 
    148 H148        1.7492  -21.4648  -44.1761 H         1 UNK         0.0600 
    149 H149       -0.3608  -20.1075  -43.8498 H         1 UNK         0.3000 
    150 H150       -3.5851  -19.0529  -45.0537 H         1 UNK         0.0600 
    151 H151       -2.1590  -18.7934  -42.3540 H         1 UNK         0.0600 
    152 H152       -3.3725  -17.6816  -42.9836 H         1 UNK         0.0600 
    153 H153       -3.8108  -19.3406  -42.6015 H         1 UNK         0.0600 
    154 H154       -1.2884  -17.5340  -44.3873 H         1 UNK         0.3000 
    155 H155        0.3331  -17.6690  -47.5799 H         1 UNK         0.0600 
    156 H156       -1.2890  -15.8521  -47.7758 H         1 UNK         0.0600 
    157 H157        0.1856  -15.1877  -47.0921 H         1 UNK         0.0600 
    158 H158       -1.2039  -15.4945  -46.0578 H         1 UNK         0.0600 
    159 H159        1.0244  -16.4389  -45.0841 H         1 UNK         0.3000 
    160 H160        2.8479  -19.2015  -43.7342 H         1 UNK         0.0600 
    161 H161        3.7972  -16.5281  -44.8852 H         1 UNK         0.0600 
    162 H162        4.4297  -18.1105  -45.3108 H         1 UNK         0.0600 
    163 H163        4.6390  -17.4944  -43.6780 H         1 UNK         0.0600 
    164 H164        2.2882  -16.4806  -42.9100 H         1 UNK         0.3000 
    165 H165       -0.6760  -17.2524  -41.0958 H         1 UNK         0.0600 
    166 H166        0.6005  -16.4257  -39.1370 H         1 UNK         0.0600 
    167 H167        1.0816  -18.0711  -39.5181 H         1 UNK         0.0600 
    168 H168        2.1275  -16.7292  -39.9670 H         1 UNK         0.0600 
    169 H169        0.9388  -14.9119  -41.1681 H         1 UNK         0.3000 
    170 H170       -0.0660  -13.5713  -44.2492 H         1 UNK         0.0600 
    171 H171       -2.1183  -13.0395  -42.9308 H         1 UNK         0.0600 
    172 H172       -1.1353  -12.7068  -41.5092 H         1 UNK         0.0600 
    173 H173       -1.0005  -11.6848  -42.9414 H         1 UNK         0.0600 
    174 H174        1.2832  -12.4228  -42.0061 H         1 UNK         0.3000 
    175 H175        3.7281  -13.4837  -41.5089 H         1 UNK         0.0600 
    176 H176        5.0751  -14.4851  -43.4257 H         1 UNK         0.0600 
    177 H177        5.1511  -12.8774  -44.1482 H         1 UNK         0.0600 
    178 H178        5.8862  -13.1780  -42.5839 H         1 UNK         0.0600 
    179 H179        3.1172  -11.1104  -43.1265 H         1 UNK         0.3000 
    180 H180        3.0926   -9.0952  -40.9321 H         1 UNK         0.0600 
    181 H181        6.1268   -8.7962  -41.2225 H         1 UNK         0.0600 
    182 H182        5.2108   -8.8128  -39.7230 H         1 UNK         0.0600 
    183 H183        5.0129   -7.4814  -40.8487 H         1 UNK         0.0600 
    184 H184        2.8831   -8.4308  -43.0156 H         1 UNK         0.3000 
    185 H185        3.1420   -7.9090  -45.0631 H         1 UNK         0.0600 
    186 H186        5.2500   -6.5633  -45.2073 H         1 UNK         0.0600 
    187 H187        6.0141   -7.8521  -46.1295 H         1 UNK         0.0600 
    188 H188        4.6305   -6.9848  -46.7958 H         1 UNK         0.0600 
    189 H189        4.3711   -9.4710  -47.0358 H         1 UNK         0.3000 
    190 H190       -2.1129  -20.8097  -47.6309 H         1 UNK         0.3000 
    191 H191       -3.8348  -21.8553  -49.6161 H         1 UNK         0.0600 
    192 H192       -4.5035  -20.5359  -46.9320 H         1 UNK         0.0600 
    193 H193       -5.6510  -20.8118  -48.2364 H         1 UNK         0.0600 
    194 H194       -4.3018  -19.7198  -48.4793 H         1 UNK         0.0600 
    195 H195       -3.3925  -22.8236  -46.1849 H         1 UNK         0.3000 
    196 H196       -5.3413  -24.8796  -46.1295 H         1 UNK         0.0600 
    197 H197       -4.1160  -25.6209  -44.0808 H         1 UNK         0.0600 
    198 H198       -4.3759  -23.8830  -44.0827 H         1 UNK         0.0600 
    199 H199       -2.7868  -24.5363  -44.4718 H         1 UNK         0.0600 
    200 H200       -1.8184  -25.0245  -46.8756 H         1 UNK         0.3000 
    201 H201       -1.6636  -27.8213  -47.3246 H         1 UNK         0.0600 
    202 H202        0.3245  -26.3951  -46.9461 H         1 UNK         0.0600 
    203 H203        0.0370  -25.5366  -48.4578 H         1 UNK         0.0600 
    204 H204        0.4788  -27.2401  -48.4792 H         1 UNK         0.0600 
    205 H205       -2.4549  -25.1342  -49.5320 H         1 UNK         0.3000 
    206 H206       -2.7796  -26.7918  -51.8910 H         1 UNK         0.0600 
    207 H207       -2.1051  -24.3952  -52.0023 H         1 UNK         0.0600 
    208 H208       -3.6178  -24.6427  -52.8533 H         1 UNK         0.0600 
    209 H209       -3.6283  -23.9104  -51.2597 H         1 UNK         0.0600 
    210 H210       -4.6780  -26.4918  -49.1411 H         1 UNK         0.3000 
    211 H211       -6.7416  -26.8697  -48.4830 H         1 UNK         0.0600 
    212 H212       -7.1093  -28.4407  -51.0916 H         1 UNK         0.0600 
    213 H213       -8.0566  -28.6220  -49.6212 H         1 UNK         0.0600 
    214 H214       -6.3609  -29.0751  -49.6263 H         1 UNK         0.0600 
    215 H215       -6.2240  -24.4738  -50.0611 H         1 UNK         0.3000 
    216 H216       -7.0295  -22.7784  -51.2136 H         1 UNK         0.0600 
    217 H217       -9.2973  -21.9787  -50.6689 H         1 UNK         0.0600 
    218 H218       -8.5436  -22.6336  -49.2255 H         1 UNK         0.0600 
    219 H219       -9.7648  -23.5710  -50.0859 H         1 UNK         0.0600 
    220 H220       -7.0407  -25.4807  -52.5767 H         1 UNK         0.3000 
    221 H221       -9.0691  -25.0306  -54.7377 H         1 UNK         0.0600 
    222 H222       -7.9120  -27.6344  -53.6062 H         1 UNK         0.0600 
    223 H223       -9.5376  -27.0179  -53.3269 H         1 UNK         0.0600 
    224 H224       -9.0521  -27.5110  -54.9429 H         1 UNK         0.0600 
    225 H225       -5.7509  -26.2737  -54.0194 H         1 UNK         0.3000 
    226 H226       -5.0120  -26.4282  -56.8220 H         1 UNK         0.0600 
    227 H227       -4.0214  -27.9158  -55.0848 H         1 UNK         0.0600 
    228 H228       -2.7787  -26.9852  -55.9078 H         1 UNK         0.0600 
    229 H229       -3.2887  -26.5242  -54.2910 H         1 UNK         0.0600 
    230 H230       -4.9843  -23.9126  -54.3980 H         1 UNK         0.3000 
    231 H231       -4.3019  -21.8514  -56.2282 H         1 UNK         0.0600 
    232 H232       -1.9452  -22.5867  -55.7077 H         1 UNK         0.0600 
    233 H233       -2.2824  -22.4784  -53.9814 H         1 UNK         0.0600 
    234 H234       -2.2712  -21.0269  -54.9752 H         1 UNK         0.0600 
    235 H235       -4.8652  -19.8267  -55.2944 H         1 UNK         0.3000 
    236 H236       -6.5128  -19.9322  -52.8340 H         1 UNK         0.0600 
    237 H237       -7.2699  -17.6996  -53.6125 H         1 UNK         0.0600 
    238 H238       -6.1144  -17.7385  -54.9388 H         1 UNK         0.0600 
    239 H239       -7.4514  -18.8883  -54.8918 H         1 UNK         0.0600 
    240 H240       -3.3093  -19.1476  -53.7333 H         1 UNK         0.3000 
    241 H241       -2.8276  -16.9448  -51.9631 H         1 UNK         0.0600 
    242 H242       -2.2956  -18.5768  -48.8493 H         1 UNK         0.3800 
    243 H243       -3.0264  -17.2460  -49.7136 H         1 UNK         0.3800 
    244 H244       -0.5389  -18.6809  -52.9722 H         1 UNK         0.0800 
    245 H245       -1.5006  -17.8646  -54.1392 H         1 UNK         0.0800 
    246 H246       -0.1078  -14.7556  -51.1303 H         1 UNK         0.0800 
    247 H247       -1.1128  -16.0746  -50.6605 H         1 UNK         0.0800 
@<TRIPOS>BOND
     1    1    2 1    
     2    1  127 1    
     3    1  128 1    
     4    1  129 1    
     5    2    3 2    
     6    2    4 am   BACKBONE|DICT|INTERRES
     7    4    5 1    
     8    4  130 1    
     9    5    6 1    
    10    5   65 1    
    11    5  131 1    
    12    6    7 1    
    13    6  132 1    
    14    6  133 1    
    15    7    8 1    
    16    8    9 1    
    17    8  134 1    
    18    8  135 1    
    19    9   10 ar   
    20    9   14 ar   
    21   10   11 ar   
    22   10  136 1    
    23   11   12 ar   
    24   11  126 1    
    25   12   13 ar   
    26   12  137 1    
    27   13   14 ar   
    28   13   15 1    
    29   14  138 1    
    30   15   16 1    
    31   15  139 1    
    32   15  140 1    
    33   16   17 1    
    34   17   18 1    
    35   17  141 1    
    36   17  142 1    
    37   18   19 1    
    38   18   67 1    
    39   18  143 1    
    40   19   20 am   BACKBONE|DICT|INTERRES
    41   19  144 1    
    42   20   21 2    
    43   20   22 1    
    44   22   23 1    
    45   22   24 1    
    46   22  145 1    
    47   23  146 1    
    48   23  147 1    
    49   23  148 1    
    50   24   25 am   BACKBONE|DICT|INTERRES
    51   24  149 1    
    52   25   26 2    
    53   25   27 1    
    54   27   28 1    
    55   27   29 1    
    56   27  150 1    
    57   28  151 1    
    58   28  152 1    
    59   28  153 1    
    60   29   30 am   BACKBONE|DICT|INTERRES
    61   29  154 1    
    62   30   31 2    
    63   30   32 1    
    64   32   33 1    
    65   32   34 1    
    66   32  155 1    
    67   33  156 1    
    68   33  157 1    
    69   33  158 1    
    70   34   35 am   BACKBONE|DICT|INTERRES
    71   34  159 1    
    72   35   36 2    
    73   35   37 1    
    74   37   38 1    
    75   37   39 1    
    76   37  160 1    
    77   38  161 1    
    78   38  162 1    
    79   38  163 1    
    80   39   40 am   BACKBONE|DICT|INTERRES
    81   39  164 1    
    82   40   41 2    
    83   40   42 1    
    84   42   43 1    
    85   42   44 1    
    86   42  165 1    
    87   43  166 1    
    88   43  167 1    
    89   43  168 1    
    90   44   45 am   BACKBONE|DICT|INTERRES
    91   44  169 1    
    92   45   46 2    
    93   45   47 1    
    94   47   48 1    
    95   47   49 1    
    96   47  170 1    
    97   48  171 1    
    98   48  172 1    
    99   48  173 1    
   100   49   50 am   BACKBONE|DICT|INTERRES
   101   49  174 1    
   102   50   51 2    
   103   50   52 1    
   104   52   53 1    
   105   52   54 1    
   106   52  175 1    
   107   53  176 1    
   108   53  177 1    
   109   53  178 1    
   110   54   55 am   BACKBONE|DICT|INTERRES
   111   54  179 1    
   112   55   56 2    
   113   55   57 1    
   114   57   58 1    
   115   57   59 1    
   116   57  180 1    
   117   58  181 1    
   118   58  182 1    
   119   58  183 1    
   120   59   60 am   BACKBONE|DICT|INTERRES
   121   59  184 1    
   122   60   61 2    
   123   60   62 1    
   124   62   63 1    
   125   62   64 1    
   126   62  185 1    
   127   63  186 1    
   128   63  187 1    
   129   63  188 1    
   130   64   65 am   BACKBONE|DICT|INTERRES
   131   64  189 1    
   132   65   66 2    
   133   67   68 2    
   134   67   69 am   BACKBONE|DICT|INTERRES
   135   69   70 1    
   136   69  190 1    
   137   70   71 1    
   138   70   72 1    
   139   70  191 1    
   140   71  192 1    
   141   71  193 1    
   142   71  194 1    
   143   72   73 2    
   144   72   74 am   BACKBONE|DICT|INTERRES
   145   74   75 1    
   146   74  195 1    
   147   75   76 1    
   148   75   77 1    
   149   75  196 1    
   150   76  197 1    
   151   76  198 1    
   152   76  199 1    
   153   77   78 2    
   154   77   79 am   BACKBONE|DICT|INTERRES
   155   79   80 1    
   156   79  200 1    
   157   80   81 1    
   158   80   82 1    
   159   80  201 1    
   160   81  202 1    
   161   81  203 1    
   162   81  204 1    
   163   82   83 2    
   164   82   84 am   BACKBONE|DICT|INTERRES
   165   84   85 1    
   166   84  205 1    
   167   85   86 1    
   168   85   87 1    
   169   85  206 1    
   170   86  207 1    
   171   86  208 1    
   172   86  209 1    
   173   87   88 2    
   174   87   89 am   BACKBONE|DICT|INTERRES
   175   89   90 1    
   176   89  210 1    
   177   90   91 1    
   178   90   92 1    
   179   90  211 1    
   180   91  212 1    
   181   91  213 1    
   182   91  214 1    
   183   92   93 2    
   184   92   94 am   BACKBONE|DICT|INTERRES
   185   94   95 1    
   186   94  215 1    
   187   95   96 1    
   188   95   97 1    
   189   95  216 1    
   190   96  217 1    
   191   96  218 1    
   192   96  219 1    
   193   97   98 2    
   194   97   99 am   BACKBONE|DICT|INTERRES
   195   99  100 1    
   196   99  220 1    
   197  100  101 1    
   198  100  102 1    
   199  100  221 1    
   200  101  222 1    
   201  101  223 1    
   202  101  224 1    
   203  102  103 2    
   204  102  104 am   BACKBONE|DICT|INTERRES
   205  104  105 1    
   206  104  225 1    
   207  105  106 1    
   208  105  107 1    
   209  105  226 1    
   210  106  227 1    
   211  106  228 1    
   212  106  229 1    
   213  107  108 2    
   214  107  109 am   BACKBONE|DICT|INTERRES
   215  109  110 1    
   216  109  230 1    
   217  110  111 1    
   218  110  112 1    
   219  110  231 1    
   220  111  232 1    
   221  111  233 1    
   222  111  234 1    
   223  112  113 2    
   224  112  114 am   BACKBONE|DICT|INTERRES
   225  114  115 1    
   226  114  235 1    
   227  115  116 1    
   228  115  117 1    
   229  115  236 1    
   230  116  237 1    
   231  116  238 1    
   232  116  239 1    
   233  117  118 2    
   234  117  119 am   BACKBONE|DICT|INTERRES
   235  119  120 1    
   236  119  240 1    
   237  120  121 1    
   238  120  124 1    
   239  120  241 1    
   240  121  122 am   BACKBONE|DICT|INTERRES
   241  121  123 2    
   242  122  242 1    
   243  122  243 1    
   244  124  125 1    
   245  124  244 1    
   246  124  245 1    
   247  125  126 1    
   248  126  246 1    
   249  126  247 1    
@<TRIPOS>SUBSTRUCTURE
     1 UNK         1 GROUP             0       ****    0 ROOT    
