@<TRIPOS>MOLECULE
3R540
247   249    1
SMALL
USER_CHARGES


@<TRIPOS>ATOM
      1 CA         -3.0874  -14.3585  -44.1018 C.3       0 UNK        -0.1800 
      2 C          -2.9810  -13.1415  -45.0097 C.2       0 UNK         0.5000 
      3 O          -3.5049  -12.0772  -44.6820 O.2       0 UNK        -0.5000 
      4 N          -2.2894  -13.2958  -46.1456 N.am      1 UNK        -0.5000 
      5 CA         -2.0245  -12.2324  -47.1281 C.3       1 UNK         0.1400 
      6 C6         -1.6952  -12.8201  -48.5248 C.3       23 UNK        -0.0398 
      7 S7         -3.1463  -13.5901  -49.3263 S.3       23 UNK        -0.2404 
      8 C8         -3.0329  -15.3410  -48.8367 C.3       23 UNK        -0.0205 
      9 C9         -1.9427  -16.0983  -49.5817 C.ar      23 UNK        -0.0193 
     10 C10        -2.2095  -16.6898  -50.8199 C.ar      23 UNK        -0.1150 
     11 C11        -1.2229  -17.4285  -51.4811 C.ar      23 UNK        -0.0193 
     12 C12         0.0438  -17.5558  -50.9039 C.ar      23 UNK        -0.1150 
     13 C13         0.3183  -16.9848  -49.6577 C.ar      23 UNK        -0.0193 
     14 C14        -0.6784  -16.2521  -49.0090 C.ar      23 UNK        -0.1150 
     15 C15         1.6853  -17.1629  -49.0088 C.3       23 UNK        -0.0205 
     16 S16         1.6742  -18.4098  -47.6740 S.3       23 UNK        -0.2404 
     17 C17         1.3331  -19.9456  -48.6085 C.3       23 UNK        -0.0398 
     18 CA          0.0986  -20.7609  -48.1466 C.3       11 UNK         0.1400 
     19 N           0.3439  -21.5023  -46.9056 N.am      11 UNK        -0.5000 
     20 C          -0.3495  -22.5954  -46.5560 C.2       10 UNK         0.5000 
     21 O          -1.2579  -23.0721  -47.2357 O.2       10 UNK        -0.5000 
     22 CA          0.0079  -23.2516  -45.2115 C.3       10 UNK         0.1400 
     23 CB          1.2795  -24.1032  -45.3431 C.3       10 UNK        -0.1800 
     24 N           0.1758  -22.3009  -44.1125 N.am      10 UNK        -0.5000 
     25 C          -0.7539  -21.4485  -43.6656 C.2       9 UNK         0.5000 
     26 O          -1.8519  -21.3032  -44.2012 O.2       9 UNK        -0.5000 
     27 CA         -0.4139  -20.6079  -42.4209 C.3       9 UNK         0.1400 
     28 CB         -0.7946  -21.3516  -41.1282 C.3       9 UNK        -0.1800 
     29 N           0.9646  -20.1108  -42.3636 N.am      9 UNK        -0.5000 
     30 C           2.1183  -20.7759  -42.2144 C.2       8 UNK         0.5000 
     31 O           2.2070  -22.0024  -42.1494 O.2       8 UNK        -0.5000 
     32 CA          3.3930  -19.9161  -42.1384 C.3       8 UNK         0.1400 
     33 CB          3.8872  -19.5701  -43.5516 C.3       8 UNK        -0.1800 
     34 N           3.1990  -18.6831  -41.3710 N.am      8 UNK        -0.5000 
     35 C           2.9794  -18.6376  -40.0483 C.2       7 UNK         0.5000 
     36 O           2.9780  -19.6314  -39.3206 O.2       7 UNK        -0.5000 
     37 CA          2.7008  -17.2530  -39.4332 C.3       7 UNK         0.1400 
     38 CB          4.0097  -16.4846  -39.1956 C.3       7 UNK        -0.1800 
     39 N           1.7976  -16.4441  -40.2519 N.am      7 UNK        -0.5000 
     40 C           0.4971  -16.7117  -40.4426 C.2       6 UNK         0.5000 
     41 O          -0.1013  -17.6373  -39.8941 O.2       6 UNK        -0.5000 
     42 CA         -0.2554  -15.8119  -41.4413 C.3       6 UNK         0.1400 
     43 CB         -0.7288  -14.5170  -40.7641 C.3       6 UNK        -0.1800 
     44 N           0.5557  -15.4789  -42.6113 N.am      6 UNK        -0.5000 
     45 C           0.9944  -16.3691  -43.5111 C.2       5 UNK         0.5000 
     46 O           0.7013  -17.5625  -43.4932 O.2       5 UNK        -0.5000 
     47 CA          1.9489  -15.8444  -44.5933 C.3       5 UNK         0.1400 
     48 CB          1.1514  -15.2195  -45.7418 C.3       5 UNK        -0.1800 
     49 N           2.9090  -14.8769  -44.0638 N.am      5 UNK        -0.5000 
     50 C           3.9080  -15.1913  -43.2271 C.2       4 UNK         0.5000 
     51 O           4.1379  -16.3358  -42.8389 O.2       4 UNK        -0.5000 
     52 CA          4.7668  -14.0254  -42.7049 C.3       4 UNK         0.1400 
     53 CB          5.8710  -13.6728  -43.7124 C.3       4 UNK        -0.1800 
     54 N           3.9718  -12.8307  -42.4178 N.am      4 UNK        -0.5000 
     55 C           3.0614  -12.7443  -41.4374 C.2       3 UNK         0.5000 
     56 O           2.8260  -13.6527  -40.6409 O.2       3 UNK        -0.5000 
     57 CA          2.2356  -11.4441  -41.3805 C.3       3 UNK         0.1400 
     58 CB          2.9851  -10.3594  -40.5929 C.3       3 UNK        -0.1800 
     59 N           1.8826  -10.9298  -42.7093 N.am      3 UNK        -0.5000 
     60 C           1.1302  -11.5959  -43.5939 C.2       2 UNK         0.5000 
     61 O           0.6505  -12.7122  -43.3727 O.2       2 UNK        -0.5000 
     62 CA          0.9159  -10.9404  -44.9657 C.3       2 UNK         0.1400 
     63 CB          2.1983  -11.0112  -45.8157 C.3       2 UNK        -0.1800 
     64 N          -0.1578  -11.6687  -45.6262 N.am      2 UNK        -0.5000 
     65 C          -0.9069  -11.2692  -46.6583 C.2       1 UNK         0.5000 
     66 O          -0.7515  -10.1909  -47.2330 O.2       1 UNK        -0.5000 
     67 C          -1.2107  -19.9438  -48.0745 C.2       11 UNK         0.5000 
     68 O          -1.9286  -19.8592  -49.0676 O.2       11 UNK        -0.5000 
     69 N          -1.5378  -19.4180  -46.8843 N.am      12 UNK        -0.5000 
     70 CA         -2.7847  -18.7009  -46.6210 C.3       12 UNK         0.1400 
     71 CB         -2.6907  -17.9873  -45.2640 C.3       12 UNK        -0.1800 
     72 C          -4.0154  -19.6245  -46.6937 C.2       12 UNK         0.5000 
     73 O          -5.0507  -19.2147  -47.2159 O.2       12 UNK        -0.5000 
     74 N          -3.8686  -20.8681  -46.2167 N.am      13 UNK        -0.5000 
     75 CA         -4.8708  -21.9289  -46.3291 C.3       13 UNK         0.1400 
     76 CB         -4.4823  -23.0867  -45.3970 C.3       13 UNK        -0.1800 
     77 C          -5.0593  -22.4351  -47.7740 C.2       13 UNK         0.5000 
     78 O          -6.1550  -22.8761  -48.1212 O.2       13 UNK        -0.5000 
     79 N          -3.9993  -22.3586  -48.5900 N.am      14 UNK        -0.5000 
     80 CA         -3.9981  -22.7431  -50.0022 C.3       14 UNK         0.1400 
     81 CB         -2.5562  -23.0196  -50.4489 C.3       14 UNK        -0.1800 
     82 C          -4.6572  -21.7050  -50.9304 C.2       14 UNK         0.5000 
     83 O          -4.9167  -22.0273  -52.0902 O.2       14 UNK        -0.5000 
     84 N          -4.9223  -20.4887  -50.4319 N.am      15 UNK        -0.5000 
     85 CA         -5.5812  -19.4094  -51.1681 C.3       15 UNK         0.1400 
     86 CB         -5.6666  -18.1660  -50.2735 C.3       15 UNK        -0.1800 
     87 C          -6.9805  -19.8308  -51.6574 C.2       15 UNK         0.5000 
     88 O          -7.7595  -20.3783  -50.8745 O.2       15 UNK        -0.5000 
     89 N          -7.2457  -19.6211  -52.9543 N.am      16 UNK        -0.5000 
     90 CA         -8.4312  -20.0261  -53.7291 C.3       16 UNK         0.1400 
     91 CB         -9.7249  -19.4209  -53.1504 C.3       16 UNK        -0.1800 
     92 C          -8.5752  -21.5494  -53.9498 C.2       16 UNK         0.5000 
     93 O          -9.0765  -21.9561  -54.9985 O.2       16 UNK        -0.5000 
     94 N          -8.1161  -22.3657  -52.9930 N.am      17 UNK        -0.5000 
     95 CA         -8.0679  -23.8283  -53.0669 C.3       17 UNK         0.1400 
     96 CB         -7.8478  -24.3832  -51.6507 C.3       17 UNK        -0.1800 
     97 C          -6.9758  -24.3570  -54.0194 C.2       17 UNK         0.5000 
     98 O          -7.0590  -25.5055  -54.4576 O.2       17 UNK        -0.5000 
     99 N          -5.9649  -23.5218  -54.2945 N.am      18 UNK        -0.5000 
    100 CA        -4.7423  -23.7597  -55.0631 C.3       18 UNK         0.1400 
    101 CB        -5.0210  -24.2601  -56.4934 C.3       18 UNK        -0.1800 
    102 C         -3.7549  -24.6618  -54.3083 C.2       18 UNK         0.5000 
    103 O         -2.6435  -24.2217  -54.0115 O.2       18 UNK        -0.5000 
    104 N         -4.1725  -25.9027  -54.0183 N.am      19 UNK        -0.5000 
    105 CA        -3.4786  -26.9260  -53.2204 C.3       19 UNK         0.1400 
    106 CB        -3.5314  -26.5375  -51.7293 C.3       19 UNK        -0.1800 
    107 C         -2.0376  -27.2493  -53.6846 C.2       19 UNK         0.5000 
    108 O         -1.2192  -27.6921  -52.8774 O.2       19 UNK        -0.5000 
    109 N         -1.7510  -26.9933  -54.9708 N.am      20 UNK        -0.5000 
    110 CA        -0.4404  -27.0530  -55.6307 C.3       20 UNK         0.1400 
    111 CB         0.0959  -28.4998  -55.6623 C.3       20 UNK        -0.1800 
    112 C          0.5978  -26.0448  -55.0786 C.2       20 UNK         0.5000 
    113 O          1.7933  -26.2204  -55.3212 O.2       20 UNK        -0.5000 
    114 N          0.1365  -25.0035  -54.3707 N.am      21 UNK        -0.5000 
    115 CA         0.9649  -23.9486  -53.7829 C.3       21 UNK         0.1400 
    116 CB         0.7719  -23.9400  -52.2581 C.3       21 UNK        -0.1800 
    117 C          0.6198  -22.5776  -54.3854 C.2       21 UNK         0.5000 
    118 O          1.5293  -21.8388  -54.7647 O.2       21 UNK        -0.5000 
    119 N         -0.6802  -22.2774  -54.4896 N.am      22 UNK        -0.5000 
    120 CA        -1.2263  -21.0537  -55.1021 C.3       22 UNK         0.1400 
    121 C         -1.7295  -21.2760  -56.5592 C.2       22 UNK         0.5000 
    122 N         -1.6123  -22.4680  -57.1330 N.am      22 UNK        -0.7600 
    123 O         -2.2240  -20.3461  -57.1901 O.2       22 UNK        -0.5000 
    124 C124       -2.3329  -20.4143  -54.2224 C.3       23 UNK        -0.0398 
    125 S125       -1.7335  -19.9054  -52.5786 S.3       23 UNK        -0.2404 
    126 C126       -1.5289  -18.1110  -52.8051 C.3       23 UNK        -0.0205 
    127 H127       -3.1347  -14.0503  -43.0576 H         1 UNK         0.0600 
    128 H128       -3.9913  -14.9220  -44.3320 H         1 UNK         0.0600 
    129 H129       -2.2266  -15.0177  -44.2167 H         1 UNK         0.0600 
    130 H130       -1.8923  -14.1970  -46.3601 H         1 UNK         0.3000 
    131 H131       -2.9270  -11.6249  -47.2252 H         1 UNK         0.0600 
    132 H132       -0.8663  -13.5250  -48.4705 H         1 UNK         0.0800 
    133 H133       -1.3627  -12.0290  -49.1996 H         1 UNK         0.0800 
    134 H134       -3.9973  -15.8095  -49.0350 H         1 UNK         0.0800 
    135 H135       -2.8868  -15.4215  -47.7601 H         1 UNK         0.0800 
    136 H136       -3.1911  -16.5890  -51.2603 H         1 UNK         0.1150 
    137 H137        0.8045  -18.1279  -51.4160 H         1 UNK         0.1150 
    138 H138       -0.4756  -15.8097  -48.0493 H         1 UNK         0.1150 
    139 H139        2.4309  -17.4418  -49.7550 H         1 UNK         0.0800 
    140 H140        2.0153  -16.2083  -48.5983 H         1 UNK         0.0800 
    141 H141        2.2242  -20.5724  -48.5553 H         1 UNK         0.0800 
    142 H142        1.2240  -19.7113  -49.6665 H         1 UNK         0.0800 
    143 H143       -0.0614  -21.5086  -48.9270 H         1 UNK         0.0600 
    144 H144        1.0657  -21.1531  -46.2924 H         1 UNK         0.3000 
    145 H145       -0.8175  -23.9143  -44.9434 H         1 UNK         0.0600 
    146 H146        1.4789  -24.6569  -44.4254 H         1 UNK         0.0600 
    147 H147        1.1803  -24.8333  -46.1475 H         1 UNK         0.0600 
    148 H148        2.1549  -23.4900  -45.5604 H         1 UNK         0.0600 
    149 H149        1.0355  -22.3637  -43.5743 H         1 UNK         0.3000 
    150 H150       -1.0365  -19.7133  -42.4756 H         1 UNK         0.0600 
    151 H151       -1.8511  -21.6225  -41.1329 H         1 UNK         0.0600 
    152 H152       -0.6226  -20.7261  -40.2518 H         1 UNK         0.0600 
    153 H153       -0.2231  -22.2715  -41.0022 H         1 UNK         0.0600 
    154 H154        1.0331  -19.1077  -42.5203 H         1 UNK         0.3000 
    155 H155        4.1654  -20.5069  -41.6418 H         1 UNK         0.0600 
    156 H156        3.1644  -18.9592  -44.0936 H         1 UNK         0.0600 
    157 H157        4.0594  -20.4733  -44.1384 H         1 UNK         0.0600 
    158 H158        4.8283  -19.0211  -43.5163 H         1 UNK         0.0600 
    159 H159        3.2616  -17.8113  -41.8881 H         1 UNK         0.3000 
    160 H160        2.2237  -17.4108  -38.4636 H         1 UNK         0.0600 
    161 H161        3.8231  -15.5356  -38.6927 H         1 UNK         0.0600 
    162 H162        4.5286  -16.2704  -40.1299 H         1 UNK         0.0600 
    163 H163        4.6905  -17.0585  -38.5658 H         1 UNK         0.0600 
    164 H164        2.1946  -15.6198  -40.6895 H         1 UNK         0.3000 
    165 H165       -1.1351  -16.3578  -41.7891 H         1 UNK         0.0600 
    166 H166       -1.2789  -13.8842  -41.4601 H         1 UNK         0.0600 
    167 H167       -1.3918  -14.7355  -39.9261 H         1 UNK         0.0600 
    168 H168        0.1080  -13.9350  -40.3778 H         1 UNK         0.0600 
    169 H169        0.7915  -14.4987  -42.7392 H         1 UNK         0.3000 
    170 H170        2.5047  -16.6959  -44.9916 H         1 UNK         0.0600 
    171 H171        1.8027  -14.9058  -46.5572 H         1 UNK         0.0600 
    172 H172        0.4501  -15.9534  -46.1343 H         1 UNK         0.0600 
    173 H173        0.5730  -14.3572  -45.4179 H         1 UNK         0.0600 
    174 H174        2.7567  -13.9077  -44.2952 H         1 UNK         0.3000 
    175 H175        5.2414  -14.3504  -41.7766 H         1 UNK         0.0600 
    176 H176        6.5304  -12.8987  -43.3194 H         1 UNK         0.0600 
    177 H177        6.4896  -14.5438  -43.9330 H         1 UNK         0.0600 
    178 H178        5.4583  -13.3153  -44.6566 H         1 UNK         0.0600 
    179 H179        4.1029  -12.0358  -43.0253 H         1 UNK         0.3000 
    180 H180        1.3067  -11.6681  -40.8518 H         1 UNK         0.0600 
    181 H181        3.9117  -10.0672  -41.0887 H         1 UNK         0.0600 
    182 H182        3.2443  -10.7120  -39.5936 H         1 UNK         0.0600 
    183 H183        2.3724   -9.4659  -40.4716 H         1 UNK         0.0600 
    184 H184        2.2469  -10.0204  -42.9549 H         1 UNK         0.3000 
    185 H185        0.6151   -9.9015  -44.8175 H         1 UNK         0.0600 
    186 H186        2.5144  -12.0420  -45.9812 H         1 UNK         0.0600 
    187 H187        2.0522  -10.5483  -46.7916 H         1 UNK         0.0600 
    188 H188        3.0229  -10.4860  -45.3329 H         1 UNK         0.0600 
    189 H189       -0.3951  -12.5329  -45.1556 H         1 UNK         0.3000 
    190 H190       -0.9164  -19.5597  -46.1024 H         1 UNK         0.3000 
    191 H191       -2.9009  -17.9408  -47.3953 H         1 UNK         0.0600 
    192 H192       -1.8430  -17.3024  -45.2373 H         1 UNK         0.0600 
    193 H193       -2.5747  -18.6932  -44.4415 H         1 UNK         0.0600 
    194 H194       -3.5906  -17.4030  -45.0696 H         1 UNK         0.0600 
    195 H195       -3.0098  -21.1035  -45.7266 H         1 UNK         0.3000 
    196 H196       -5.8288  -21.5275  -45.9923 H         1 UNK         0.0600 
    197 H197       -5.2237  -23.8857  -45.4350 H         1 UNK         0.0600 
    198 H198       -4.4151  -22.7532  -44.3613 H         1 UNK         0.0600 
    199 H199       -3.5191  -23.5177  -45.6719 H         1 UNK         0.0600 
    200 H200       -3.1245  -22.0137  -48.2168 H         1 UNK         0.3000 
    201 H201       -4.5628  -23.6716  -50.1085 H         1 UNK         0.0600 
    202 H202       -2.1025  -23.8183  -49.8622 H         1 UNK         0.0600 
    203 H203       -1.9277  -22.1351  -50.3597 H         1 UNK         0.0600 
    204 H204       -2.5302  -23.3236  -51.4948 H         1 UNK         0.0600 
    205 H205       -4.6756  -20.2991  -49.4708 H         1 UNK         0.3000 
    206 H206       -4.9503  -19.1737  -52.0276 H         1 UNK         0.0600 
    207 H207       -4.6931  -17.9236  -49.8492 H         1 UNK         0.0600 
    208 H208       -6.0080  -17.2986  -50.8393 H         1 UNK         0.0600 
    209 H209       -6.3606  -18.3140  -49.4451 H         1 UNK         0.0600 
    210 H210       -6.5201  -19.1890  -53.5092 H         1 UNK         0.3000 
    211 H211       -8.2883  -19.5901  -54.7191 H         1 UNK         0.0600 
    212 H212       -9.9761  -19.8430  -52.1772 H         1 UNK         0.0600 
    213 H213      -10.5706  -19.6119  -53.8120 H         1 UNK         0.0600 
    214 H214       -9.6390  -18.3403  -53.0368 H         1 UNK         0.0600 
    215 H215       -7.7617  -21.9366  -52.1451 H         1 UNK         0.3000 
    216 H216       -9.0309  -24.1887  -53.4341 H         1 UNK         0.0600 
    217 H217       -7.8327  -25.4739  -51.6544 H         1 UNK         0.0600 
    218 H218       -8.6455  -24.0716  -50.9761 H         1 UNK         0.0600 
    219 H219       -6.9014  -24.0432  -51.2283 H         1 UNK         0.0600 
    220 H220       -5.9423  -22.6672  -53.7481 H         1 UNK         0.3000 
    221 H221       -4.2670  -22.7844  -55.1605 H         1 UNK         0.0600 
    222 H222       -5.4648  -25.2554  -56.5105 H         1 UNK         0.0600 
    223 H223       -5.6955  -23.5845  -57.0194 H         1 UNK         0.0600 
    224 H224       -4.0970  -24.3090  -57.0705 H         1 UNK         0.0600 
    225 H225       -5.1194  -26.1350  -54.3017 H         1 UNK         0.3000 
    226 H226       -4.0502  -27.8466  -53.3445 H         1 UNK         0.0600 
    227 H227       -4.5454  -26.2839  -51.4196 H         1 UNK         0.0600 
    228 H228       -3.1952  -27.3592  -51.0960 H         1 UNK         0.0600 
    229 H229       -2.8916  -25.6814  -51.5191 H         1 UNK         0.0600 
    230 H230       -2.5043  -26.6347  -55.5400 H         1 UNK         0.3000 
    231 H231       -0.6174  -26.7520  -56.6641 H         1 UNK         0.0600 
    232 H232       -0.6501  -29.1887  -56.0584 H         1 UNK         0.0600 
    233 H233        0.3826  -28.8488  -54.6700 H         1 UNK         0.0600 
    234 H234        0.9767  -28.5776  -56.3007 H         1 UNK         0.0600 
    235 H235       -0.8650  -24.9210  -54.2243 H         1 UNK         0.3000 
    236 H236        2.0225  -24.1322  -53.9829 H         1 UNK         0.0600 
    237 H237        1.3519  -23.1424  -51.7921 H         1 UNK         0.0600 
    238 H238       -0.2721  -23.7901  -51.9871 H         1 UNK         0.0600 
    239 H239        1.0970  -24.8823  -51.8170 H         1 UNK         0.0600 
    240 H240       -1.3731  -22.9489  -54.1677 H         1 UNK         0.3000 
    241 H241       -0.4286  -20.3144  -55.1918 H         1 UNK         0.0600 
    242 H242       -1.9268  -22.5932  -58.0822 H         1 UNK         0.3800 
    243 H243       -1.1736  -23.2284  -56.6415 H         1 UNK         0.3800 
    244 H244       -2.7757  -19.5484  -54.7170 H         1 UNK         0.0800 
    245 H245       -3.1485  -21.1197  -54.0666 H         1 UNK         0.0800 
    246 H246       -2.4357  -17.6917  -53.2433 H         1 UNK         0.0800 
    247 H247       -0.7215  -17.9231  -53.5142 H         1 UNK         0.0800 
@<TRIPOS>BOND
     1    1    2 1    
     2    1  127 1    
     3    1  128 1    
     4    1  129 1    
     5    2    3 2    
     6    2    4 am   BACKBONE|DICT|INTERRES
     7    4    5 1    
     8    4  130 1    
     9    5    6 1    
    10    5   65 1    
    11    5  131 1    
    12    6    7 1    
    13    6  132 1    
    14    6  133 1    
    15    7    8 1    
    16    8    9 1    
    17    8  134 1    
    18    8  135 1    
    19    9   10 ar   
    20    9   14 ar   
    21   10   11 ar   
    22   10  136 1    
    23   11   12 ar   
    24   11  126 1    
    25   12   13 ar   
    26   12  137 1    
    27   13   14 ar   
    28   13   15 1    
    29   14  138 1    
    30   15   16 1    
    31   15  139 1    
    32   15  140 1    
    33   16   17 1    
    34   17   18 1    
    35   17  141 1    
    36   17  142 1    
    37   18   19 1    
    38   18   67 1    
    39   18  143 1    
    40   19   20 am   BACKBONE|DICT|INTERRES
    41   19  144 1    
    42   20   21 2    
    43   20   22 1    
    44   22   23 1    
    45   22   24 1    
    46   22  145 1    
    47   23  146 1    
    48   23  147 1    
    49   23  148 1    
    50   24   25 am   BACKBONE|DICT|INTERRES
    51   24  149 1    
    52   25   26 2    
    53   25   27 1    
    54   27   28 1    
    55   27   29 1    
    56   27  150 1    
    57   28  151 1    
    58   28  152 1    
    59   28  153 1    
    60   29   30 am   BACKBONE|DICT|INTERRES
    61   29  154 1    
    62   30   31 2    
    63   30   32 1    
    64   32   33 1    
    65   32   34 1    
    66   32  155 1    
    67   33  156 1    
    68   33  157 1    
    69   33  158 1    
    70   34   35 am   BACKBONE|DICT|INTERRES
    71   34  159 1    
    72   35   36 2    
    73   35   37 1    
    74   37   38 1    
    75   37   39 1    
    76   37  160 1    
    77   38  161 1    
    78   38  162 1    
    79   38  163 1    
    80   39   40 am   BACKBONE|DICT|INTERRES
    81   39  164 1    
    82   40   41 2    
    83   40   42 1    
    84   42   43 1    
    85   42   44 1    
    86   42  165 1    
    87   43  166 1    
    88   43  167 1    
    89   43  168 1    
    90   44   45 am   BACKBONE|DICT|INTERRES
    91   44  169 1    
    92   45   46 2    
    93   45   47 1    
    94   47   48 1    
    95   47   49 1    
    96   47  170 1    
    97   48  171 1    
    98   48  172 1    
    99   48  173 1    
   100   49   50 am   BACKBONE|DICT|INTERRES
   101   49  174 1    
   102   50   51 2    
   103   50   52 1    
   104   52   53 1    
   105   52   54 1    
   106   52  175 1    
   107   53  176 1    
   108   53  177 1    
   109   53  178 1    
   110   54   55 am   BACKBONE|DICT|INTERRES
   111   54  179 1    
   112   55   56 2    
   113   55   57 1    
   114   57   58 1    
   115   57   59 1    
   116   57  180 1    
   117   58  181 1    
   118   58  182 1    
   119   58  183 1    
   120   59   60 am   BACKBONE|DICT|INTERRES
   121   59  184 1    
   122   60   61 2    
   123   60   62 1    
   124   62   63 1    
   125   62   64 1    
   126   62  185 1    
   127   63  186 1    
   128   63  187 1    
   129   63  188 1    
   130   64   65 am   BACKBONE|DICT|INTERRES
   131   64  189 1    
   132   65   66 2    
   133   67   68 2    
   134   67   69 am   BACKBONE|DICT|INTERRES
   135   69   70 1    
   136   69  190 1    
   137   70   71 1    
   138   70   72 1    
   139   70  191 1    
   140   71  192 1    
   141   71  193 1    
   142   71  194 1    
   143   72   73 2    
   144   72   74 am   BACKBONE|DICT|INTERRES
   145   74   75 1    
   146   74  195 1    
   147   75   76 1    
   148   75   77 1    
   149   75  196 1    
   150   76  197 1    
   151   76  198 1    
   152   76  199 1    
   153   77   78 2    
   154   77   79 am   BACKBONE|DICT|INTERRES
   155   79   80 1    
   156   79  200 1    
   157   80   81 1    
   158   80   82 1    
   159   80  201 1    
   160   81  202 1    
   161   81  203 1    
   162   81  204 1    
   163   82   83 2    
   164   82   84 am   BACKBONE|DICT|INTERRES
   165   84   85 1    
   166   84  205 1    
   167   85   86 1    
   168   85   87 1    
   169   85  206 1    
   170   86  207 1    
   171   86  208 1    
   172   86  209 1    
   173   87   88 2    
   174   87   89 am   BACKBONE|DICT|INTERRES
   175   89   90 1    
   176   89  210 1    
   177   90   91 1    
   178   90   92 1    
   179   90  211 1    
   180   91  212 1    
   181   91  213 1    
   182   91  214 1    
   183   92   93 2    
   184   92   94 am   BACKBONE|DICT|INTERRES
   185   94   95 1    
   186   94  215 1    
   187   95   96 1    
   188   95   97 1    
   189   95  216 1    
   190   96  217 1    
   191   96  218 1    
   192   96  219 1    
   193   97   98 2    
   194   97   99 am   BACKBONE|DICT|INTERRES
   195   99  100 1    
   196   99  220 1    
   197  100  101 1    
   198  100  102 1    
   199  100  221 1    
   200  101  222 1    
   201  101  223 1    
   202  101  224 1    
   203  102  103 2    
   204  102  104 am   BACKBONE|DICT|INTERRES
   205  104  105 1    
   206  104  225 1    
   207  105  106 1    
   208  105  107 1    
   209  105  226 1    
   210  106  227 1    
   211  106  228 1    
   212  106  229 1    
   213  107  108 2    
   214  107  109 am   BACKBONE|DICT|INTERRES
   215  109  110 1    
   216  109  230 1    
   217  110  111 1    
   218  110  112 1    
   219  110  231 1    
   220  111  232 1    
   221  111  233 1    
   222  111  234 1    
   223  112  113 2    
   224  112  114 am   BACKBONE|DICT|INTERRES
   225  114  115 1    
   226  114  235 1    
   227  115  116 1    
   228  115  117 1    
   229  115  236 1    
   230  116  237 1    
   231  116  238 1    
   232  116  239 1    
   233  117  118 2    
   234  117  119 am   BACKBONE|DICT|INTERRES
   235  119  120 1    
   236  119  240 1    
   237  120  121 1    
   238  120  124 1    
   239  120  241 1    
   240  121  122 am   BACKBONE|DICT|INTERRES
   241  121  123 2    
   242  122  242 1    
   243  122  243 1    
   244  124  125 1    
   245  124  244 1    
   246  124  245 1    
   247  125  126 1    
   248  126  246 1    
   249  126  247 1    
@<TRIPOS>SUBSTRUCTURE
     1 UNK         1 GROUP             0       ****    0 ROOT    
