@<TRIPOS>MOLECULE
3R540
247   249    1
SMALL
USER_CHARGES


@<TRIPOS>ATOM
      1 CA          4.6151  -17.2850  -49.7049 C.3       0 UNK        -0.1800 
      2 C           5.1902  -16.0377  -50.3698 C.2       0 UNK         0.5000 
      3 O           6.1986  -16.1353  -51.0653 O.2       0 UNK        -0.5000 
      4 N           4.6020  -14.8480  -50.1852 N.am      1 UNK        -0.5000 
      5 CA          3.4031  -14.5591  -49.3821 C.3       1 UNK         0.1400 
      6 C6          2.4980  -13.4931  -50.0486 C.3       23 UNK        -0.0398 
      7 S7          1.9716  -13.9751  -51.7304 S.3       23 UNK        -0.2404 
      8 C8          0.1553  -14.0889  -51.5592 C.3       23 UNK        -0.0205 
      9 C9         -0.3916  -15.3397  -50.8655 C.ar      23 UNK        -0.0193 
     10 C10        -1.7318  -15.3352  -50.4653 C.ar      23 UNK        -0.1150 
     11 C11        -2.3227  -16.4572  -49.8762 C.ar      23 UNK        -0.0193 
     12 C12        -1.5391  -17.5990  -49.6706 C.ar      23 UNK        -0.1150 
     13 C13        -0.2003  -17.6291  -50.0684 C.ar      23 UNK        -0.0193 
     14 C14         0.3666  -16.5012  -50.6687 C.ar      23 UNK        -0.1150 
     15 C15         0.6240  -18.8934  -49.8829 C.3       23 UNK        -0.0205 
     16 S16         1.6274  -18.8507  -48.3667 S.3       23 UNK        -0.2404 
     17 C17         0.3993  -19.2053  -47.0654 C.3       23 UNK        -0.0398 
     18 CA          0.3935  -20.6914  -46.6379 C.3       11 UNK         0.1400 
     19 N          -0.0138  -20.8499  -45.2421 N.am      11 UNK        -0.5000 
     20 C           0.1934  -21.9550  -44.5141 C.2       10 UNK         0.5000 
     21 O           0.8283  -22.9312  -44.9128 O.2       10 UNK        -0.5000 
     22 CA         -0.4515  -21.9871  -43.1180 C.3       10 UNK         0.1400 
     23 CB          0.4799  -21.3571  -42.0713 C.3       10 UNK        -0.1800 
     24 N          -1.7521  -21.3138  -43.0961 N.am      10 UNK        -0.5000 
     25 C          -2.8546  -21.8005  -43.6847 C.2       9 UNK         0.5000 
     26 O          -2.8851  -22.8701  -44.2916 O.2       9 UNK        -0.5000 
     27 CA         -4.1314  -20.9426  -43.6133 C.3       9 UNK         0.1400 
     28 CB         -4.9206  -21.2585  -42.3346 C.3       9 UNK        -0.1800 
     29 N          -3.8797  -19.5036  -43.6788 N.am      9 UNK        -0.5000 
     30 C          -3.3181  -18.8645  -44.7148 C.2       8 UNK         0.5000 
     31 O          -2.9184  -19.4237  -45.7355 O.2       8 UNK        -0.5000 
     32 CA         -3.0905  -17.3534  -44.5333 C.3       8 UNK         0.1400 
     33 CB         -4.3813  -16.5675  -44.8038 C.3       8 UNK        -0.1800 
     34 N          -2.5820  -17.0012  -43.2022 N.am      8 UNK        -0.5000 
     35 C          -1.4631  -17.4879  -42.6488 C.2       7 UNK         0.5000 
     36 O          -0.7368  -18.3181  -43.1980 O.2       7 UNK        -0.5000 
     37 CA         -1.1181  -16.9942  -41.2383 C.3       7 UNK         0.1400 
     38 CB         -1.0483  -18.1694  -40.2448 C.3       7 UNK        -0.1800 
     39 N           0.1519  -16.2764  -41.2747 N.am      7 UNK        -0.5000 
     40 C           0.5663  -15.4028  -40.3476 C.2       6 UNK         0.5000 
     41 O          -0.0751  -15.1286  -39.3321 O.2       6 UNK        -0.5000 
     42 CA          1.9048  -14.6879  -40.6073 C.3       6 UNK         0.1400 
     43 CB          3.0995  -15.6426  -40.4479 C.3       6 UNK        -0.1800 
     44 N           1.9236  -14.0757  -41.9346 N.am      6 UNK        -0.5000 
     45 C           1.3523  -12.8983  -42.2302 C.2       5 UNK         0.5000 
     46 O           0.8519  -12.1520  -41.3877 O.2       5 UNK        -0.5000 
     47 CA          1.3075  -12.4872  -43.7167 C.3       5 UNK         0.1400 
     48 CB          2.5128  -11.6080  -44.0822 C.3       5 UNK        -0.1800 
     49 N           1.2538  -13.6346  -44.6212 N.am      5 UNK        -0.5000 
     50 C           0.2236  -14.4868  -44.7065 C.2       4 UNK         0.5000 
     51 O          -0.8405  -14.3402  -44.1060 O.2       4 UNK        -0.5000 
     52 CA          0.4365  -15.7344  -45.5780 C.3       4 UNK         0.1400 
     53 CB         -0.0512  -15.4816  -47.0110 C.3       4 UNK        -0.1800 
     54 N           1.8285  -16.1939  -45.5880 N.am      4 UNK        -0.5000 
     55 C           2.4551  -16.7269  -44.5279 C.2       3 UNK         0.5000 
     56 O           1.9266  -16.8661  -43.4279 O.2       3 UNK        -0.5000 
     57 CA          3.9323  -17.1214  -44.7045 C.3       3 UNK         0.1400 
     58 CB          4.0560  -18.5234  -45.3186 C.3       3 UNK        -0.1800 
     59 N           4.6685  -16.1583  -45.5221 N.am      3 UNK        -0.5000 
     60 C           4.9499  -14.9049  -45.1379 C.2       2 UNK         0.5000 
     61 O           4.7040  -14.4642  -44.0153 O.2       2 UNK        -0.5000 
     62 CA          5.5565  -13.9751  -46.2080 C.3       2 UNK         0.1400 
     63 CB          7.0889  -14.0756  -46.2060 C.3       2 UNK        -0.1800 
     64 N           5.0547  -14.2454  -47.5606 N.am      2 UNK        -0.5000 
     65 C           3.7691  -14.1530  -47.9358 C.2       1 UNK         0.5000 
     66 O           2.8787  -13.7920  -47.1673 O.2       1 UNK        -0.5000 
     67 C          -0.4903  -21.5527  -47.5615 C.2       11 UNK         0.5000 
     68 O           0.0310  -22.3088  -48.3834 O.2       11 UNK        -0.5000 
     69 N          -1.8156  -21.4552  -47.3800 N.am      12 UNK        -0.5000 
     70 CA         -2.8266  -22.1876  -48.1423 C.3       12 UNK         0.1400 
     71 CB         -4.2239  -21.7196  -47.7240 C.3       12 UNK        -0.1800 
     72 C          -2.7187  -23.7161  -48.0202 C.2       12 UNK         0.5000 
     73 O          -3.0169  -24.4100  -48.9891 O.2       12 UNK        -0.5000 
     74 N          -2.2563  -24.2170  -46.8669 N.am      13 UNK        -0.5000 
     75 CA         -1.9798  -25.6362  -46.6311 C.3       13 UNK         0.1400 
     76 CB         -1.5958  -25.8410  -45.1578 C.3       13 UNK        -0.1800 
     77 C          -0.8924  -26.2209  -47.5569 C.2       13 UNK         0.5000 
     78 O          -0.9346  -27.4167  -47.8493 O.2       13 UNK        -0.5000 
     79 N           0.0467  -25.3771  -48.0055 N.am      14 UNK        -0.5000 
     80 CA          1.0950  -25.7385  -48.9558 C.3       14 UNK         0.1400 
     81 CB          2.3973  -25.0201  -48.5664 C.3       14 UNK        -0.1800 
     82 C           0.6895  -25.3855  -50.3968 C.2       14 UNK         0.5000 
     83 O           0.8576  -26.2110  -51.2950 O.2       14 UNK        -0.5000 
     84 N           0.1890  -24.1591  -50.5959 N.am      15 UNK        -0.5000 
     85 CA         -0.0927  -23.5835  -51.9119 C.3       15 UNK         0.1400 
     86 CB         -0.1261  -22.0580  -51.7706 C.3       15 UNK        -0.1800 
     87 C          -1.3888  -24.0929  -52.5689 C.2       15 UNK         0.5000 
     88 O          -1.4571  -24.1360  -53.7986 O.2       15 UNK        -0.5000 
     89 N          -2.3911  -24.4558  -51.7554 N.am      16 UNK        -0.5000 
     90 CA         -3.7108  -24.9594  -52.1452 C.3       16 UNK         0.1400 
     91 CB         -3.5900  -26.4182  -52.6396 C.3       16 UNK        -0.1800 
     92 C          -4.4318  -24.0125  -53.1287 C.2       16 UNK         0.5000 
     93 O          -4.7518  -22.8793  -52.7592 O.2       16 UNK        -0.5000 
     94 N          -4.6523  -24.4787  -54.3648 N.am      17 UNK        -0.5000 
     95 CA         -5.3093  -23.7502  -55.4491 C.3       17 UNK         0.1400 
     96 CB         -5.5113  -24.6991  -56.6395 C.3       17 UNK        -0.1800 
     97 C          -4.5641  -22.4784  -55.8951 C.2       17 UNK         0.5000 
     98 O          -5.2173  -21.5365  -56.3430 O.2       17 UNK        -0.5000 
     99 N          -3.2325  -22.4382  -55.7287 N.am      18 UNK        -0.5000 
    100 CA        -2.4064  -21.2647  -56.0384 C.3       18 UNK         0.1400 
    101 CB        -0.9248  -21.6688  -56.0661 C.3       18 UNK        -0.1800 
    102 C         -2.6362  -20.0944  -55.0606 C.2       18 UNK         0.5000 
    103 O         -2.4336  -18.9397  -55.4358 O.2       18 UNK        -0.5000 
    104 N         -3.0841  -20.4155  -53.8406 N.am      19 UNK        -0.5000 
    105 CA        -3.5064  -19.4623  -52.8150 C.3       19 UNK         0.1400 
    106 CB        -3.0997  -20.0310  -51.4489 C.3       19 UNK        -0.1800 
    107 C         -5.0233  -19.1979  -52.8458 C.2       19 UNK         0.5000 
    108 O         -5.5037  -18.3725  -52.0699 O.2       19 UNK        -0.5000 
    109 N         -5.7570  -19.9377  -53.6921 N.am      20 UNK        -0.5000 
    110 CA        -7.2200  -20.0145  -53.7646 C.3       20 UNK         0.1400 
    111 CB        -7.8157  -18.6817  -54.2636 C.3       20 UNK        -0.1800 
    112 C         -7.8615  -20.5086  -52.4474 C.2       20 UNK         0.5000 
    113 O         -8.9994  -20.1433  -52.1471 O.2       20 UNK        -0.5000 
    114 N         -7.1135  -21.3322  -51.6930 N.am      21 UNK        -0.5000 
    115 CA        -7.4555  -21.9037  -50.3875 C.3       21 UNK         0.1400 
    116 CB        -8.5341  -22.9942  -50.5512 C.3       21 UNK        -0.1800 
    117 C         -7.8236  -20.8366  -49.3292 C.2       21 UNK         0.5000 
    118 O         -8.8559  -20.9557  -48.6670 O.2       21 UNK        -0.5000 
    119 N         -6.9781  -19.8037  -49.1984 N.am      22 UNK        -0.5000 
    120 CA        -7.1761  -18.6483  -48.2997 C.3       22 UNK         0.1400 
    121 C         -7.1477  -18.9286  -46.7640 C.2       22 UNK         0.5000 
    122 N         -6.8573  -20.1375  -46.3024 N.am      22 UNK        -0.7600 
    123 O         -7.4230  -18.0312  -45.9725 O.2       22 UNK        -0.5000 
    124 C124       -6.2714  -17.4491  -48.6906 C.3       23 UNK        -0.0398 
    125 S125       -4.4800  -17.7766  -48.5505 S.3       23 UNK        -0.2404 
    126 C126       -3.8148  -16.3926  -49.5393 C.3       23 UNK        -0.0205 
    127 H127        4.4073  -17.1200  -48.6485 H         1 UNK         0.0600 
    128 H128        5.3173  -18.1157  -49.7761 H         1 UNK         0.0600 
    129 H129        3.6933  -17.5837  -50.2036 H         1 UNK         0.0600 
    130 H130        5.0000  -14.0449  -50.6516 H         1 UNK         0.3000 
    131 H131        2.7983  -15.4619  -49.2901 H         1 UNK         0.0600 
    132 H132        1.6101  -13.3105  -49.4405 H         1 UNK         0.0800 
    133 H133        3.0193  -12.5369  -50.1176 H         1 UNK         0.0800 
    134 H134       -0.2045  -13.1959  -51.0456 H         1 UNK         0.0800 
    135 H135       -0.2735  -14.0539  -52.5614 H         1 UNK         0.0800 
    136 H136       -2.3323  -14.4528  -50.6381 H         1 UNK         0.1150 
    137 H137       -1.9668  -18.4821  -49.2213 H         1 UNK         0.1150 
    138 H138        1.3955  -16.5462  -50.9929 H         1 UNK         0.1150 
    139 H139       -0.0201  -19.7717  -49.8699 H         1 UNK         0.0800 
    140 H140        1.2891  -19.0210  -50.7381 H         1 UNK         0.0800 
    141 H141        0.6872  -18.5953  -46.2108 H         1 UNK         0.0800 
    142 H142       -0.5925  -18.8508  -47.3470 H         1 UNK         0.0800 
    143 H143        1.4149  -21.0719  -46.7141 H         1 UNK         0.0600 
    144 H144       -0.5467  -20.0953  -44.8282 H         1 UNK         0.3000 
    145 H145       -0.6059  -23.0337  -42.8462 H         1 UNK         0.0600 
    146 H146        0.0330  -21.3819  -41.0775 H         1 UNK         0.0600 
    147 H147        1.4239  -21.9006  -42.0168 H         1 UNK         0.0600 
    148 H148        0.7171  -20.3200  -42.3094 H         1 UNK         0.0600 
    149 H149       -1.7820  -20.3945  -42.6783 H         1 UNK         0.3000 
    150 H150       -4.7538  -21.2079  -44.4687 H         1 UNK         0.0600 
    151 H151       -5.1456  -22.3239  -42.2681 H         1 UNK         0.0600 
    152 H152       -5.8713  -20.7255  -42.3152 H         1 UNK         0.0600 
    153 H153       -4.3625  -20.9842  -41.4385 H         1 UNK         0.0600 
    154 H154       -4.1530  -18.9589  -42.8745 H         1 UNK         0.3000 
    155 H155       -2.3525  -17.0455  -45.2741 H         1 UNK         0.0600 
    156 H156       -4.2006  -15.4928  -44.7783 H         1 UNK         0.0600 
    157 H157       -5.1572  -16.7975  -44.0727 H         1 UNK         0.0600 
    158 H158       -4.7841  -16.8030  -45.7885 H         1 UNK         0.0600 
    159 H159       -3.1137  -16.3099  -42.6935 H         1 UNK         0.3000 
    160 H160       -1.9012  -16.3072  -40.9107 H         1 UNK         0.0600 
    161 H161       -0.2173  -18.8370  -40.4732 H         1 UNK         0.0600 
    162 H162       -1.9644  -18.7608  -40.2704 H         1 UNK         0.0600 
    163 H163       -0.9196  -17.8175  -39.2213 H         1 UNK         0.0600 
    164 H164        0.7405  -16.4723  -42.0847 H         1 UNK         0.3000 
    165 H165        2.0159  -13.9021  -39.8568 H         1 UNK         0.0600 
    166 H166        3.0554  -16.4812  -41.1417 H         1 UNK         0.0600 
    167 H167        4.0428  -15.1223  -40.6146 H         1 UNK         0.0600 
    168 H168        3.1301  -16.0574  -39.4398 H         1 UNK         0.0600 
    169 H169        2.2986  -14.6360  -42.6877 H         1 UNK         0.3000 
    170 H170        0.4003  -11.8989  -43.8694 H         1 UNK         0.0600 
    171 H171        2.4717  -11.2948  -45.1257 H         1 UNK         0.0600 
    172 H172        2.5346  -10.7050  -43.4710 H         1 UNK         0.0600 
    173 H173        3.4563  -12.1303  -43.9263 H         1 UNK         0.0600 
    174 H174        2.0599  -13.7955  -45.2143 H         1 UNK         0.3000 
    175 H175       -0.1623  -16.5397  -45.1557 H         1 UNK         0.0600 
    176 H176        0.1311  -16.3449  -47.6449 H         1 UNK         0.0600 
    177 H177       -1.1246  -15.2894  -47.0281 H         1 UNK         0.0600 
    178 H178        0.4388  -14.6233  -47.4692 H         1 UNK         0.0600 
    179 H179        2.3454  -16.0486  -46.4410 H         1 UNK         0.3000 
    180 H180        4.3863  -17.1467  -43.7114 H         1 UNK         0.0600 
    181 H181        3.7083  -18.5446  -46.3504 H         1 UNK         0.0600 
    182 H182        3.4676  -19.2515  -44.7580 H         1 UNK         0.0600 
    183 H183        5.0909  -18.8656  -45.3092 H         1 UNK         0.0600 
    184 H184        4.9276  -16.4478  -46.4525 H         1 UNK         0.3000 
    185 H185        5.2791  -12.9514  -45.9481 H         1 UNK         0.0600 
    186 H186        7.5321  -13.3597  -46.8985 H         1 UNK         0.0600 
    187 H187        7.4929  -13.8604  -45.2158 H         1 UNK         0.0600 
    188 H188        7.4284  -15.0726  -46.4898 H         1 UNK         0.0600 
    189 H189        5.7358  -14.5248  -48.2520 H         1 UNK         0.3000 
    190 H190       -2.1713  -20.7886  -46.6966 H         1 UNK         0.3000 
    191 H191       -2.6840  -21.9365  -49.1941 H         1 UNK         0.0600 
    192 H192       -4.9953  -22.2364  -48.2934 H         1 UNK         0.0600 
    193 H193       -4.3475  -20.6511  -47.8938 H         1 UNK         0.0600 
    194 H194       -4.4076  -21.9166  -46.6685 H         1 UNK         0.0600 
    195 H195       -2.1142  -23.5893  -46.0833 H         1 UNK         0.3000 
    196 H196       -2.9016  -26.1889  -46.8228 H         1 UNK         0.0600 
    197 H197       -1.3757  -26.8892  -44.9514 H         1 UNK         0.0600 
    198 H198       -2.4080  -25.5456  -44.4938 H         1 UNK         0.0600 
    199 H199       -0.7132  -25.2600  -44.8885 H         1 UNK         0.0600 
    200 H200       -0.0089  -24.4010  -47.7420 H         1 UNK         0.3000 
    201 H201        1.2855  -26.8131  -48.9142 H         1 UNK         0.0600 
    202 H202        2.7226  -25.3127  -47.5679 H         1 UNK         0.0600 
    203 H203        2.2828  -23.9354  -48.5740 H         1 UNK         0.0600 
    204 H204        3.2030  -25.2705  -49.2576 H         1 UNK         0.0600 
    205 H205        0.1049  -23.5306  -49.8008 H         1 UNK         0.3000 
    206 H206        0.7289  -23.8387  -52.5847 H         1 UNK         0.0600 
    207 H207        0.8536  -21.6684  -51.4940 H         1 UNK         0.0600 
    208 H208       -0.4231  -21.5696  -52.6991 H         1 UNK         0.0600 
    209 H209       -0.8307  -21.7645  -50.9950 H         1 UNK         0.0600 
    210 H210       -2.2614  -24.3730  -50.7517 H         1 UNK         0.3000 
    211 H211       -4.3224  -24.9693  -51.2425 H         1 UNK         0.0600 
    212 H212       -2.9550  -26.5053  -53.5220 H         1 UNK         0.0600 
    213 H213       -4.5673  -26.8367  -52.8836 H         1 UNK         0.0600 
    214 H214       -3.1580  -27.0515  -51.8644 H         1 UNK         0.0600 
    215 H215       -4.3258  -25.4084  -54.5843 H         1 UNK         0.3000 
    216 H216       -6.2925  -23.4406  -55.0883 H         1 UNK         0.0600 
    217 H217       -4.5602  -25.0674  -57.0260 H         1 UNK         0.0600 
    218 H218       -6.1174  -25.5609  -56.3595 H         1 UNK         0.0600 
    219 H219       -6.0257  -24.1949  -57.4589 H         1 UNK         0.0600 
    220 H220       -2.7598  -23.2319  -55.3101 H         1 UNK         0.3000 
    221 H221       -2.6771  -20.9151  -57.0370 H         1 UNK         0.0600 
    222 H222       -0.7494  -22.4811  -56.7716 H         1 UNK         0.0600 
    223 H223       -0.2992  -20.8301  -56.3738 H         1 UNK         0.0600 
    224 H224       -0.5742  -21.9933  -55.0870 H         1 UNK         0.0600 
    225 H225       -3.2495  -21.3915  -53.6303 H         1 UNK         0.3000 
    226 H226       -3.0062  -18.5012  -52.9519 H         1 UNK         0.0600 
    227 H227       -3.3658  -21.0827  -51.3460 H         1 UNK         0.0600 
    228 H228       -2.0265  -19.9303  -51.3081 H         1 UNK         0.0600 
    229 H229       -3.5784  -19.4973  -50.6308 H         1 UNK         0.0600 
    230 H230       -5.2641  -20.5641  -54.3139 H         1 UNK         0.3000 
    231 H231       -7.4452  -20.7758  -54.5126 H         1 UNK         0.0600 
    232 H232       -8.8824  -18.7819  -54.4672 H         1 UNK         0.0600 
    233 H233       -7.3391  -18.3600  -55.1896 H         1 UNK         0.0600 
    234 H234       -7.6975  -17.8840  -53.5299 H         1 UNK         0.0600 
    235 H235       -6.2073  -21.6069  -52.0589 H         1 UNK         0.3000 
    236 H236       -6.5514  -22.3958  -50.0289 H         1 UNK         0.0600 
    237 H237       -8.2213  -23.7512  -51.2705 H         1 UNK         0.0600 
    238 H238       -8.7219  -23.5042  -49.6057 H         1 UNK         0.0600 
    239 H239       -9.4821  -22.5781  -50.8935 H         1 UNK         0.0600 
    240 H240       -6.1668  -19.7529  -49.7976 H         1 UNK         0.3000 
    241 H241       -8.1998  -18.3169  -48.4837 H         1 UNK         0.0600 
    242 H242       -6.8777  -20.2982  -45.3094 H         1 UNK         0.3800 
    243 H243       -6.6768  -20.8947  -46.9381 H         1 UNK         0.3800 
    244 H244       -6.4907  -17.1649  -49.7207 H         1 UNK         0.0800 
    245 H245       -6.5113  -16.5719  -48.0875 H         1 UNK         0.0800 
    246 H246       -4.0222  -15.4635  -49.0065 H         1 UNK         0.0800 
    247 H247       -4.3634  -16.3436  -50.4809 H         1 UNK         0.0800 
@<TRIPOS>BOND
     1    1    2 1    
     2    1  127 1    
     3    1  128 1    
     4    1  129 1    
     5    2    3 2    
     6    2    4 am   BACKBONE|DICT|INTERRES
     7    4    5 1    
     8    4  130 1    
     9    5    6 1    
    10    5   65 1    
    11    5  131 1    
    12    6    7 1    
    13    6  132 1    
    14    6  133 1    
    15    7    8 1    
    16    8    9 1    
    17    8  134 1    
    18    8  135 1    
    19    9   10 ar   
    20    9   14 ar   
    21   10   11 ar   
    22   10  136 1    
    23   11   12 ar   
    24   11  126 1    
    25   12   13 ar   
    26   12  137 1    
    27   13   14 ar   
    28   13   15 1    
    29   14  138 1    
    30   15   16 1    
    31   15  139 1    
    32   15  140 1    
    33   16   17 1    
    34   17   18 1    
    35   17  141 1    
    36   17  142 1    
    37   18   19 1    
    38   18   67 1    
    39   18  143 1    
    40   19   20 am   BACKBONE|DICT|INTERRES
    41   19  144 1    
    42   20   21 2    
    43   20   22 1    
    44   22   23 1    
    45   22   24 1    
    46   22  145 1    
    47   23  146 1    
    48   23  147 1    
    49   23  148 1    
    50   24   25 am   BACKBONE|DICT|INTERRES
    51   24  149 1    
    52   25   26 2    
    53   25   27 1    
    54   27   28 1    
    55   27   29 1    
    56   27  150 1    
    57   28  151 1    
    58   28  152 1    
    59   28  153 1    
    60   29   30 am   BACKBONE|DICT|INTERRES
    61   29  154 1    
    62   30   31 2    
    63   30   32 1    
    64   32   33 1    
    65   32   34 1    
    66   32  155 1    
    67   33  156 1    
    68   33  157 1    
    69   33  158 1    
    70   34   35 am   BACKBONE|DICT|INTERRES
    71   34  159 1    
    72   35   36 2    
    73   35   37 1    
    74   37   38 1    
    75   37   39 1    
    76   37  160 1    
    77   38  161 1    
    78   38  162 1    
    79   38  163 1    
    80   39   40 am   BACKBONE|DICT|INTERRES
    81   39  164 1    
    82   40   41 2    
    83   40   42 1    
    84   42   43 1    
    85   42   44 1    
    86   42  165 1    
    87   43  166 1    
    88   43  167 1    
    89   43  168 1    
    90   44   45 am   BACKBONE|DICT|INTERRES
    91   44  169 1    
    92   45   46 2    
    93   45   47 1    
    94   47   48 1    
    95   47   49 1    
    96   47  170 1    
    97   48  171 1    
    98   48  172 1    
    99   48  173 1    
   100   49   50 am   BACKBONE|DICT|INTERRES
   101   49  174 1    
   102   50   51 2    
   103   50   52 1    
   104   52   53 1    
   105   52   54 1    
   106   52  175 1    
   107   53  176 1    
   108   53  177 1    
   109   53  178 1    
   110   54   55 am   BACKBONE|DICT|INTERRES
   111   54  179 1    
   112   55   56 2    
   113   55   57 1    
   114   57   58 1    
   115   57   59 1    
   116   57  180 1    
   117   58  181 1    
   118   58  182 1    
   119   58  183 1    
   120   59   60 am   BACKBONE|DICT|INTERRES
   121   59  184 1    
   122   60   61 2    
   123   60   62 1    
   124   62   63 1    
   125   62   64 1    
   126   62  185 1    
   127   63  186 1    
   128   63  187 1    
   129   63  188 1    
   130   64   65 am   BACKBONE|DICT|INTERRES
   131   64  189 1    
   132   65   66 2    
   133   67   68 2    
   134   67   69 am   BACKBONE|DICT|INTERRES
   135   69   70 1    
   136   69  190 1    
   137   70   71 1    
   138   70   72 1    
   139   70  191 1    
   140   71  192 1    
   141   71  193 1    
   142   71  194 1    
   143   72   73 2    
   144   72   74 am   BACKBONE|DICT|INTERRES
   145   74   75 1    
   146   74  195 1    
   147   75   76 1    
   148   75   77 1    
   149   75  196 1    
   150   76  197 1    
   151   76  198 1    
   152   76  199 1    
   153   77   78 2    
   154   77   79 am   BACKBONE|DICT|INTERRES
   155   79   80 1    
   156   79  200 1    
   157   80   81 1    
   158   80   82 1    
   159   80  201 1    
   160   81  202 1    
   161   81  203 1    
   162   81  204 1    
   163   82   83 2    
   164   82   84 am   BACKBONE|DICT|INTERRES
   165   84   85 1    
   166   84  205 1    
   167   85   86 1    
   168   85   87 1    
   169   85  206 1    
   170   86  207 1    
   171   86  208 1    
   172   86  209 1    
   173   87   88 2    
   174   87   89 am   BACKBONE|DICT|INTERRES
   175   89   90 1    
   176   89  210 1    
   177   90   91 1    
   178   90   92 1    
   179   90  211 1    
   180   91  212 1    
   181   91  213 1    
   182   91  214 1    
   183   92   93 2    
   184   92   94 am   BACKBONE|DICT|INTERRES
   185   94   95 1    
   186   94  215 1    
   187   95   96 1    
   188   95   97 1    
   189   95  216 1    
   190   96  217 1    
   191   96  218 1    
   192   96  219 1    
   193   97   98 2    
   194   97   99 am   BACKBONE|DICT|INTERRES
   195   99  100 1    
   196   99  220 1    
   197  100  101 1    
   198  100  102 1    
   199  100  221 1    
   200  101  222 1    
   201  101  223 1    
   202  101  224 1    
   203  102  103 2    
   204  102  104 am   BACKBONE|DICT|INTERRES
   205  104  105 1    
   206  104  225 1    
   207  105  106 1    
   208  105  107 1    
   209  105  226 1    
   210  106  227 1    
   211  106  228 1    
   212  106  229 1    
   213  107  108 2    
   214  107  109 am   BACKBONE|DICT|INTERRES
   215  109  110 1    
   216  109  230 1    
   217  110  111 1    
   218  110  112 1    
   219  110  231 1    
   220  111  232 1    
   221  111  233 1    
   222  111  234 1    
   223  112  113 2    
   224  112  114 am   BACKBONE|DICT|INTERRES
   225  114  115 1    
   226  114  235 1    
   227  115  116 1    
   228  115  117 1    
   229  115  236 1    
   230  116  237 1    
   231  116  238 1    
   232  116  239 1    
   233  117  118 2    
   234  117  119 am   BACKBONE|DICT|INTERRES
   235  119  120 1    
   236  119  240 1    
   237  120  121 1    
   238  120  124 1    
   239  120  241 1    
   240  121  122 am   BACKBONE|DICT|INTERRES
   241  121  123 2    
   242  122  242 1    
   243  122  243 1    
   244  124  125 1    
   245  124  244 1    
   246  124  245 1    
   247  125  126 1    
   248  126  246 1    
   249  126  247 1    
@<TRIPOS>SUBSTRUCTURE
     1 UNK         1 GROUP             0       ****    0 ROOT    
