@<TRIPOS>MOLECULE
3R540
247   249    1
SMALL
USER_CHARGES


@<TRIPOS>ATOM
      1 CA         -1.9675  -10.6056  -47.3639 C.3       0 UNK        -0.1800 
      2 C          -0.4729  -10.4612  -47.6142 C.2       0 UNK         0.5000 
      3 O           0.0715   -9.3653  -47.4782 O.2       0 UNK        -0.5000 
      4 N           0.1867  -11.5640  -47.9849 N.am      1 UNK        -0.5000 
      5 CA          1.6358  -11.6763  -48.1624 C.3       1 UNK         0.1400 
      6 C6          2.0384  -12.9625  -48.9345 C.3       23 UNK        -0.0398 
      7 S7          1.1779  -14.4889  -48.4054 S.3       23 UNK        -0.2404 
      8 C8         -0.1415  -14.5735  -49.6565 C.3       23 UNK        -0.0205 
      9 C9         -1.1379  -15.6879  -49.3757 C.ar      23 UNK        -0.0193 
     10 C10        -1.1908  -16.8078  -50.2090 C.ar      23 UNK        -0.1150 
     11 C11        -2.1559  -17.7966  -50.0067 C.ar      23 UNK        -0.0193 
     12 C12        -3.0760  -17.6553  -48.9654 C.ar      23 UNK        -0.1150 
     13 C13        -2.9956  -16.5758  -48.0797 C.ar      23 UNK        -0.0193 
     14 C14        -2.0351  -15.5849  -48.3072 C.ar      23 UNK        -0.1150 
     15 C15        -3.9483  -16.4484  -46.8908 C.3       23 UNK        -0.0205 
     16 S16        -4.3317  -18.0268  -46.0445 S.3       23 UNK        -0.2404 
     17 C17        -2.6956  -18.5673  -45.4328 C.3       23 UNK        -0.0398 
     18 CA         -2.0770  -19.6770  -46.3253 C.3       11 UNK         0.1400 
     19 N          -0.6454  -19.4722  -46.5709 N.am      11 UNK        -0.5000 
     20 C           0.0220  -19.9504  -47.6326 C.2       10 UNK         0.5000 
     21 O          -0.4812  -20.6948  -48.4750 O.2       10 UNK        -0.5000 
     22 CA          1.5063  -19.5688  -47.7308 C.3       10 UNK         0.1400 
     23 CB          1.6618  -18.1758  -48.3543 C.3       10 UNK        -0.1800 
     24 N           2.1315  -19.5871  -46.4084 N.am      10 UNK        -0.5000 
     25 C           2.6180  -20.6933  -45.8279 C.2       9 UNK         0.5000 
     26 O           2.6879  -21.7895  -46.3833 O.2       9 UNK        -0.5000 
     27 CA          3.0464  -20.5543  -44.3583 C.3       9 UNK         0.1400 
     28 CB          4.4050  -19.8464  -44.2428 C.3       9 UNK        -0.1800 
     29 N           2.0432  -19.8139  -43.5968 N.am      9 UNK        -0.5000 
     30 C           0.8595  -20.3097  -43.2142 C.2       8 UNK         0.5000 
     31 O           0.5235  -21.4795  -43.3908 O.2       8 UNK        -0.5000 
     32 CA         -0.1092  -19.3151  -42.5445 C.3       8 UNK         0.1400 
     33 CB         -1.2630  -20.0008  -41.7858 C.3       8 UNK        -0.1800 
     34 N           0.5803  -18.3415  -41.6963 N.am      8 UNK        -0.5000 
     35 C           1.3327  -18.5817  -40.6114 C.2       7 UNK         0.5000 
     36 O           1.5067  -19.6992  -40.1244 O.2       7 UNK        -0.5000 
     37 CA          2.0375  -17.3665  -39.9771 C.3       7 UNK         0.1400 
     38 CB          3.5469  -17.4223  -40.2629 C.3       7 UNK        -0.1800 
     39 N           1.5150  -16.0894  -40.4667 N.am      7 UNK        -0.5000 
     40 C           0.3569  -15.5382  -40.0820 C.2       6 UNK         0.5000 
     41 O          -0.3743  -16.0136  -39.2128 O.2       6 UNK        -0.5000 
     42 CA         -0.0676  -14.2581  -40.8208 C.3       6 UNK         0.1400 
     43 CB          0.6702  -13.0338  -40.2570 C.3       6 UNK        -0.1800 
     44 N           0.1557  -14.3323  -42.2663 N.am      6 UNK        -0.5000 
     45 C          -0.5285  -15.1097  -43.1180 C.2       5 UNK         0.5000 
     46 O          -1.3859  -15.9223  -42.7748 O.2       5 UNK        -0.5000 
     47 CA         -0.1816  -14.9536  -44.6075 C.3       5 UNK         0.1400 
     48 CB         -0.8360  -13.6832  -45.1694 C.3       5 UNK        -0.1800 
     49 N           1.2648  -14.9070  -44.8187 N.am      5 UNK        -0.5000 
     50 C           2.0558  -15.9882  -44.7711 C.2       4 UNK         0.5000 
     51 O           1.6319  -17.1417  -44.6608 O.2       4 UNK        -0.5000 
     52 CA          3.5776  -15.7637  -44.8308 C.3       4 UNK         0.1400 
     53 CB          4.0970  -15.9060  -46.2668 C.3       4 UNK        -0.1800 
     54 N           4.0277  -14.4855  -44.2827 N.am      4 UNK        -0.5000 
     55 C           3.9154  -14.0972  -43.0078 C.2       3 UNK         0.5000 
     56 O           3.3255  -14.7538  -42.1516 O.2       3 UNK        -0.5000 
     57 CA          4.5469  -12.7475  -42.6125 C.3       3 UNK         0.1400 
     58 CB          6.0466  -12.9084  -42.3014 C.3       3 UNK        -0.1800 
     59 N           4.3045  -11.6580  -43.5672 N.am      3 UNK        -0.5000 
     60 C           4.7339  -11.5288  -44.8298 C.2       2 UNK         0.5000 
     61 O           5.4797  -12.3274  -45.4013 O.2       2 UNK        -0.5000 
     62 CA          4.1843  -10.3181  -45.6026 C.3       2 UNK         0.1400 
     63 CB          5.3230   -9.3779  -46.0280 C.3       2 UNK        -0.1800 
     64 N           3.4122  -10.7055  -46.7852 N.am      2 UNK        -0.5000 
     65 C           2.3630  -11.5414  -46.8074 C.2       1 UNK         0.5000 
     66 O           1.9518  -12.1665  -45.8254 O.2       1 UNK        -0.5000 
     67 C          -2.4534  -21.1142  -45.8976 C.2       11 UNK         0.5000 
     68 O          -3.6404  -21.4134  -45.7769 O.2       11 UNK        -0.5000 
     69 N          -1.4638  -22.0124  -45.7829 N.am      12 UNK        -0.5000 
     70 CA         -1.6451  -23.4656  -45.7095 C.3       12 UNK         0.1400 
     71 CB         -0.2783  -24.1352  -45.5006 C.3       12 UNK        -0.1800 
     72 C          -2.3366  -24.0508  -46.9603 C.2       12 UNK         0.5000 
     73 O          -3.0137  -25.0729  -46.8545 O.2       12 UNK        -0.5000 
     74 N          -2.1895  -23.3727  -48.1100 N.am      13 UNK        -0.5000 
     75 CA         -2.8986  -23.6720  -49.3554 C.3       13 UNK         0.1400 
     76 CB         -2.1033  -23.0822  -50.5287 C.3       13 UNK        -0.1800 
     77 C          -4.3615  -23.1762  -49.3669 C.2       13 UNK         0.5000 
     78 O          -5.0859  -23.4860  -50.3144 O.2       13 UNK        -0.5000 
     79 N          -4.7764  -22.4367  -48.3246 N.am      14 UNK        -0.5000 
     80 CA         -6.1377  -21.9726  -48.0333 C.3       14 UNK         0.1400 
     81 CB         -7.0258  -23.1625  -47.6202 C.3       14 UNK        -0.1800 
     82 C          -6.7548  -21.1340  -49.1678 C.2       14 UNK         0.5000 
     83 O          -7.9004  -21.3624  -49.5547 O.2       14 UNK        -0.5000 
     84 N          -5.9598  -20.2007  -49.7099 N.am      15 UNK        -0.5000 
     85 CA         -6.3031  -19.3123  -50.8288 C.3       15 UNK         0.1400 
     86 CB         -7.3747  -18.2875  -50.4028 C.3       15 UNK        -0.1800 
     87 C          -6.6759  -20.0906  -52.1118 C.2       15 UNK         0.5000 
     88 O          -7.6257  -19.7283  -52.8071 O.2       15 UNK        -0.5000 
     89 N          -5.9091  -21.1598  -52.3710 N.am      16 UNK        -0.5000 
     90 CA         -5.9995  -22.1193  -53.4776 C.3       16 UNK         0.1400 
     91 CB         -6.1817  -21.4353  -54.8510 C.3       16 UNK        -0.1800 
     92 C          -7.0276  -23.2477  -53.2604 C.2       16 UNK         0.5000 
     93 O          -7.1652  -24.0991  -54.1405 O.2       16 UNK        -0.5000 
     94 N          -7.7349  -23.2596  -52.1210 N.am      17 UNK        -0.5000 
     95 CA         -8.7637  -24.2581  -51.8249 C.3       17 UNK         0.1400 
     96 CB         -9.7341  -23.7089  -50.7688 C.3       17 UNK        -0.1800 
     97 C          -8.1931  -25.6141  -51.3706 C.2       17 UNK         0.5000 
     98 O          -8.8181  -26.6394  -51.6466 O.2       17 UNK        -0.5000 
     99 N          -7.0476  -25.6085  -50.6734 N.am      18 UNK        -0.5000 
    100 CA        -6.4475  -26.8123  -50.0890 C.3       18 UNK         0.1400 
    101 CB        -6.0155  -26.5285  -48.6419 C.3       18 UNK        -0.1800 
    102 C         -5.2633  -27.3481  -50.9085 C.2       18 UNK         0.5000 
    103 O         -4.9869  -28.5465  -50.8348 O.2       18 UNK        -0.5000 
    104 N         -4.5871  -26.4838  -51.6748 N.am      19 UNK        -0.5000 
    105 CA        -3.4676  -26.8524  -52.5367 C.3       19 UNK         0.1400 
    106 CB        -2.1672  -26.9350  -51.7154 C.3       19 UNK        -0.1800 
    107 C         -3.3268  -25.8232  -53.6612 C.2       19 UNK         0.5000 
    108 O         -3.6686  -24.6563  -53.4692 O.2       19 UNK        -0.5000 
    109 N         -2.7708  -26.2599  -54.7974 N.am      20 UNK        -0.5000 
    110 CA        -2.5054  -25.4270  -55.9757 C.3       20 UNK         0.1400 
    111 CB        -2.2659  -26.3462  -57.1838 C.3       20 UNK        -0.1800 
    112 C         -1.3241  -24.4490  -55.7985 C.2       20 UNK         0.5000 
    113 O         -1.1369  -23.5711  -56.6420 O.2       20 UNK        -0.5000 
    114 N         -0.5567  -24.6031  -54.7087 N.am      21 UNK        -0.5000 
    115 CA         0.6315  -23.8201  -54.3515 C.3       21 UNK         0.1400 
    116 CB         1.2194  -24.3904  -53.0513 C.3       21 UNK        -0.1800 
    117 C          0.4001  -22.3000  -54.2170 C.2       21 UNK         0.5000 
    118 O          1.3588  -21.5353  -54.3308 O.2       21 UNK        -0.5000 
    119 N         -0.8563  -21.8882  -54.0018 N.am      22 UNK        -0.5000 
    120 CA        -1.2927  -20.4841  -54.0514 C.3       22 UNK         0.1400 
    121 C         -1.3151  -19.8676  -55.4858 C.2       22 UNK         0.5000 
    122 N         -1.2537  -20.6532  -56.5557 N.am      22 UNK        -0.7600 
    123 O         -1.3740  -18.6508  -55.6349 O.2       22 UNK        -0.5000 
    124 C124       -2.6535  -20.3069  -53.3286 C.3       23 UNK        -0.0398 
    125 S125       -2.8490  -18.6757  -52.5388 S.3       23 UNK        -0.2404 
    126 C126       -2.1785  -19.0326  -50.8891 C.3       23 UNK        -0.0205 
    127 H127       -2.3128  -11.6239  -47.5456 H         1 UNK         0.0600 
    128 H128       -2.2003  -10.3482  -46.3306 H         1 UNK         0.0600 
    129 H129       -2.5250   -9.9355  -48.0182 H         1 UNK         0.0600 
    130 H130       -0.3071  -12.4417  -48.0369 H         1 UNK         0.3000 
    131 H131        1.9419  -10.8293  -48.7806 H         1 UNK         0.0600 
    132 H132        3.1142  -13.1337  -48.8657 H         1 UNK         0.0800 
    133 H133        1.8460  -12.8114  -49.9975 H         1 UNK         0.0800 
    134 H134        0.3137  -14.7084  -50.6390 H         1 UNK         0.0800 
    135 H135       -0.6785  -13.6256  -49.6987 H         1 UNK         0.0800 
    136 H136       -0.4903  -16.9071  -51.0263 H         1 UNK         0.1150 
    137 H137       -3.8352  -18.4077  -48.8188 H         1 UNK         0.1150 
    138 H138       -1.9908  -14.7239  -47.6577 H         1 UNK         0.1150 
    139 H139       -3.5442  -15.7534  -46.1530 H         1 UNK         0.0800 
    140 H140       -4.8819  -16.0108  -47.2462 H         1 UNK         0.0800 
    141 H141       -2.7988  -18.8964  -44.3976 H         1 UNK         0.0800 
    142 H142       -2.0476  -17.6914  -45.3974 H         1 UNK         0.0800 
    143 H143       -2.5379  -19.5971  -47.3078 H         1 UNK         0.0600 
    144 H144       -0.1524  -18.8710  -45.9281 H         1 UNK         0.3000 
    145 H145        2.0006  -20.2907  -48.3847 H         1 UNK         0.0600 
    146 H146        2.7114  -17.9201  -48.4941 H         1 UNK         0.0600 
    147 H147        1.1901  -18.1346  -49.3363 H         1 UNK         0.0600 
    148 H148        1.2033  -17.4036  -47.7357 H         1 UNK         0.0600 
    149 H149        2.0882  -18.7318  -45.8659 H         1 UNK         0.3000 
    150 H150        3.1436  -21.5550  -43.9316 H         1 UNK         0.0600 
    151 H151        4.3841  -18.8516  -44.6872 H         1 UNK         0.0600 
    152 H152        5.1826  -20.4155  -44.7537 H         1 UNK         0.0600 
    153 H153        4.7088  -19.7430  -43.2009 H         1 UNK         0.0600 
    154 H154        2.1985  -18.8214  -43.4767 H         1 UNK         0.3000 
    155 H155       -0.5496  -18.7366  -43.3565 H         1 UNK         0.0600 
    156 H156       -0.8966  -20.6403  -40.9825 H         1 UNK         0.0600 
    157 H157       -1.8554  -20.6252  -42.4559 H         1 UNK         0.0600 
    158 H158       -1.9374  -19.2643  -41.3487 H         1 UNK         0.0600 
    159 H159        0.4976  -17.3789  -41.9918 H         1 UNK         0.3000 
    160 H160        1.8878  -17.4193  -38.8967 H         1 UNK         0.0600 
    161 H161        3.7542  -17.4014  -41.3337 H         1 UNK         0.0600 
    162 H162        3.9890  -18.3348  -39.8609 H         1 UNK         0.0600 
    163 H163        4.0667  -16.5802  -39.8055 H         1 UNK         0.0600 
    164 H164        2.0864  -15.6034  -41.1569 H         1 UNK         0.3000 
    165 H165       -1.1375  -14.1172  -40.6526 H         1 UNK         0.0600 
    166 H166        0.3197  -12.1128  -40.7231 H         1 UNK         0.0600 
    167 H167        0.5027  -12.9379  -39.1834 H         1 UNK         0.0600 
    168 H168        1.7470  -13.1020  -40.4160 H         1 UNK         0.0600 
    169 H169        0.8762  -13.7341  -42.6416 H         1 UNK         0.3000 
    170 H170       -0.5875  -15.8094  -45.1503 H         1 UNK         0.0600 
    171 H171       -0.4928  -12.7853  -44.6542 H         1 UNK         0.0600 
    172 H172       -1.9215  -13.7251  -45.0721 H         1 UNK         0.0600 
    173 H173       -0.6079  -13.5626  -46.2252 H         1 UNK         0.0600 
    174 H174        1.6766  -13.9943  -44.9893 H         1 UNK         0.3000 
    175 H175        4.0367  -16.5471  -44.2258 H         1 UNK         0.0600 
    176 H176        3.7021  -15.1240  -46.9155 H         1 UNK         0.0600 
    177 H177        5.1850  -15.8482  -46.2992 H         1 UNK         0.0600 
    178 H178        3.8126  -16.8683  -46.6916 H         1 UNK         0.0600 
    179 H179        4.5276  -13.8627  -44.9116 H         1 UNK         0.3000 
    180 H180        4.0569  -12.4388  -41.6877 H         1 UNK         0.0600 
    181 H181        6.4813  -11.9689  -41.9603 H         1 UNK         0.0600 
    182 H182        6.6125  -13.2443  -43.1706 H         1 UNK         0.0600 
    183 H183        6.2009  -13.6439  -41.5109 H         1 UNK         0.0600 
    184 H184        3.6621  -10.9539  -43.2311 H         1 UNK         0.3000 
    185 H185        3.5121   -9.7582  -44.9492 H         1 UNK         0.0600 
    186 H186        4.9356   -8.4769  -46.5040 H         1 UNK         0.0600 
    187 H187        5.9105   -9.0612  -45.1653 H         1 UNK         0.0600 
    188 H188        6.0044   -9.8622  -46.7288 H         1 UNK         0.0600 
    189 H189        3.6829  -10.2528  -47.6458 H         1 UNK         0.3000 
    190 H190       -0.5115  -21.6890  -45.8691 H         1 UNK         0.3000 
    191 H191       -2.2766  -23.6851  -44.8464 H         1 UNK         0.0600 
    192 H192       -0.3743  -25.2214  -45.4696 H         1 UNK         0.0600 
    193 H193        0.1740  -23.8271  -44.5586 H         1 UNK         0.0600 
    194 H194        0.4180  -23.8887  -46.3033 H         1 UNK         0.0600 
    195 H195       -1.5942  -22.5519  -48.1200 H         1 UNK         0.3000 
    196 H196       -2.9357  -24.7554  -49.4835 H         1 UNK         0.0600 
    197 H197       -1.9823  -22.0049  -50.4312 H         1 UNK         0.0600 
    198 H198       -1.1075  -23.5208  -50.5841 H         1 UNK         0.0600 
    199 H199       -2.5965  -23.2785  -51.4803 H         1 UNK         0.0600 
    200 H200       -4.1115  -22.2474  -47.5837 H         1 UNK         0.3000 
    201 H201       -6.0591  -21.3071  -47.1724 H         1 UNK         0.0600 
    202 H202       -7.2031  -23.8386  -48.4550 H         1 UNK         0.0600 
    203 H203       -7.9986  -22.8207  -47.2650 H         1 UNK         0.0600 
    204 H204       -6.5682  -23.7360  -46.8140 H         1 UNK         0.0600 
    205 H205       -5.0291  -20.1075  -49.3340 H         1 UNK         0.3000 
    206 H206       -5.3998  -18.7504  -51.0652 H         1 UNK         0.0600 
    207 H207       -7.0672  -17.7468  -49.5076 H         1 UNK         0.0600 
    208 H208       -7.5402  -17.5476  -51.1866 H         1 UNK         0.0600 
    209 H209       -8.3334  -18.7636  -50.1952 H         1 UNK         0.0600 
    210 H210       -5.2221  -21.4047  -51.6720 H         1 UNK         0.3000 
    211 H211       -5.0240  -22.5986  -53.4960 H         1 UNK         0.0600 
    212 H212       -5.9485  -22.1285  -55.6599 H         1 UNK         0.0600 
    213 H213       -5.5322  -20.5694  -54.9688 H         1 UNK         0.0600 
    214 H214       -7.2087  -21.1019  -55.0020 H         1 UNK         0.0600 
    215 H215       -7.5792  -22.5386  -51.4273 H         1 UNK         0.3000 
    216 H216       -9.3415  -24.4332  -52.7352 H         1 UNK         0.0600 
    217 H217       -9.2542  -23.5988  -49.7967 H         1 UNK         0.0600 
    218 H218      -10.5826  -24.3810  -50.6357 H         1 UNK         0.0600 
    219 H219      -10.1312  -22.7365  -51.0608 H         1 UNK         0.0600 
    220 H220       -6.5546  -24.7318  -50.5281 H         1 UNK         0.3000 
    221 H221       -7.1869  -27.6147  -50.0445 H         1 UNK         0.0600 
    222 H222       -6.8639  -26.2223  -48.0303 H         1 UNK         0.0600 
    223 H223       -5.2584  -25.7488  -48.5854 H         1 UNK         0.0600 
    224 H224       -5.5928  -27.4214  -48.1797 H         1 UNK         0.0600 
    225 H225       -4.8704  -25.5124  -51.7266 H         1 UNK         0.3000 
    226 H226       -3.6720  -27.8245  -52.9909 H         1 UNK         0.0600 
    227 H227       -1.3312  -27.2579  -52.3369 H         1 UNK         0.0600 
    228 H228       -1.8999  -25.9700  -51.2856 H         1 UNK         0.0600 
    229 H229       -2.2550  -27.6516  -50.8988 H         1 UNK         0.0600 
    230 H230       -2.5031  -27.2313  -54.8706 H         1 UNK         0.3000 
    231 H231       -3.3938  -24.8243  -56.1766 H         1 UNK         0.0600 
    232 H232       -1.3901  -26.9801  -57.0398 H         1 UNK         0.0600 
    233 H233       -2.1047  -25.7655  -58.0932 H         1 UNK         0.0600 
    234 H234       -3.1244  -26.9936  -57.3635 H         1 UNK         0.0600 
    235 H235       -0.7977  -25.3527  -54.0789 H         1 UNK         0.3000 
    236 H236        1.3639  -23.9608  -55.1488 H         1 UNK         0.0600 
    237 H237        1.4969  -25.4381  -53.1690 H         1 UNK         0.0600 
    238 H238        2.1198  -23.8495  -52.7566 H         1 UNK         0.0600 
    239 H239        0.5103  -24.3216  -52.2260 H         1 UNK         0.0600 
    240 H240       -1.5807  -22.5883  -53.9376 H         1 UNK         0.3000 
    241 H241       -0.5450  -19.9156  -53.4948 H         1 UNK         0.0600 
    242 H242       -1.2616  -20.2338  -57.4717 H         1 UNK         0.3800 
    243 H243       -1.1920  -21.6642  -56.4743 H         1 UNK         0.3800 
    244 H244       -2.7825  -21.0658  -52.5579 H         1 UNK         0.0800 
    245 H245       -3.4791  -20.4614  -54.0216 H         1 UNK         0.0800 
    246 H246       -2.7732  -19.8164  -50.4199 H         1 UNK         0.0800 
    247 H247       -1.1653  -19.4270  -50.9822 H         1 UNK         0.0800 
@<TRIPOS>BOND
     1    1    2 1    
     2    1  127 1    
     3    1  128 1    
     4    1  129 1    
     5    2    3 2    
     6    2    4 am   BACKBONE|DICT|INTERRES
     7    4    5 1    
     8    4  130 1    
     9    5    6 1    
    10    5   65 1    
    11    5  131 1    
    12    6    7 1    
    13    6  132 1    
    14    6  133 1    
    15    7    8 1    
    16    8    9 1    
    17    8  134 1    
    18    8  135 1    
    19    9   10 ar   
    20    9   14 ar   
    21   10   11 ar   
    22   10  136 1    
    23   11   12 ar   
    24   11  126 1    
    25   12   13 ar   
    26   12  137 1    
    27   13   14 ar   
    28   13   15 1    
    29   14  138 1    
    30   15   16 1    
    31   15  139 1    
    32   15  140 1    
    33   16   17 1    
    34   17   18 1    
    35   17  141 1    
    36   17  142 1    
    37   18   19 1    
    38   18   67 1    
    39   18  143 1    
    40   19   20 am   BACKBONE|DICT|INTERRES
    41   19  144 1    
    42   20   21 2    
    43   20   22 1    
    44   22   23 1    
    45   22   24 1    
    46   22  145 1    
    47   23  146 1    
    48   23  147 1    
    49   23  148 1    
    50   24   25 am   BACKBONE|DICT|INTERRES
    51   24  149 1    
    52   25   26 2    
    53   25   27 1    
    54   27   28 1    
    55   27   29 1    
    56   27  150 1    
    57   28  151 1    
    58   28  152 1    
    59   28  153 1    
    60   29   30 am   BACKBONE|DICT|INTERRES
    61   29  154 1    
    62   30   31 2    
    63   30   32 1    
    64   32   33 1    
    65   32   34 1    
    66   32  155 1    
    67   33  156 1    
    68   33  157 1    
    69   33  158 1    
    70   34   35 am   BACKBONE|DICT|INTERRES
    71   34  159 1    
    72   35   36 2    
    73   35   37 1    
    74   37   38 1    
    75   37   39 1    
    76   37  160 1    
    77   38  161 1    
    78   38  162 1    
    79   38  163 1    
    80   39   40 am   BACKBONE|DICT|INTERRES
    81   39  164 1    
    82   40   41 2    
    83   40   42 1    
    84   42   43 1    
    85   42   44 1    
    86   42  165 1    
    87   43  166 1    
    88   43  167 1    
    89   43  168 1    
    90   44   45 am   BACKBONE|DICT|INTERRES
    91   44  169 1    
    92   45   46 2    
    93   45   47 1    
    94   47   48 1    
    95   47   49 1    
    96   47  170 1    
    97   48  171 1    
    98   48  172 1    
    99   48  173 1    
   100   49   50 am   BACKBONE|DICT|INTERRES
   101   49  174 1    
   102   50   51 2    
   103   50   52 1    
   104   52   53 1    
   105   52   54 1    
   106   52  175 1    
   107   53  176 1    
   108   53  177 1    
   109   53  178 1    
   110   54   55 am   BACKBONE|DICT|INTERRES
   111   54  179 1    
   112   55   56 2    
   113   55   57 1    
   114   57   58 1    
   115   57   59 1    
   116   57  180 1    
   117   58  181 1    
   118   58  182 1    
   119   58  183 1    
   120   59   60 am   BACKBONE|DICT|INTERRES
   121   59  184 1    
   122   60   61 2    
   123   60   62 1    
   124   62   63 1    
   125   62   64 1    
   126   62  185 1    
   127   63  186 1    
   128   63  187 1    
   129   63  188 1    
   130   64   65 am   BACKBONE|DICT|INTERRES
   131   64  189 1    
   132   65   66 2    
   133   67   68 2    
   134   67   69 am   BACKBONE|DICT|INTERRES
   135   69   70 1    
   136   69  190 1    
   137   70   71 1    
   138   70   72 1    
   139   70  191 1    
   140   71  192 1    
   141   71  193 1    
   142   71  194 1    
   143   72   73 2    
   144   72   74 am   BACKBONE|DICT|INTERRES
   145   74   75 1    
   146   74  195 1    
   147   75   76 1    
   148   75   77 1    
   149   75  196 1    
   150   76  197 1    
   151   76  198 1    
   152   76  199 1    
   153   77   78 2    
   154   77   79 am   BACKBONE|DICT|INTERRES
   155   79   80 1    
   156   79  200 1    
   157   80   81 1    
   158   80   82 1    
   159   80  201 1    
   160   81  202 1    
   161   81  203 1    
   162   81  204 1    
   163   82   83 2    
   164   82   84 am   BACKBONE|DICT|INTERRES
   165   84   85 1    
   166   84  205 1    
   167   85   86 1    
   168   85   87 1    
   169   85  206 1    
   170   86  207 1    
   171   86  208 1    
   172   86  209 1    
   173   87   88 2    
   174   87   89 am   BACKBONE|DICT|INTERRES
   175   89   90 1    
   176   89  210 1    
   177   90   91 1    
   178   90   92 1    
   179   90  211 1    
   180   91  212 1    
   181   91  213 1    
   182   91  214 1    
   183   92   93 2    
   184   92   94 am   BACKBONE|DICT|INTERRES
   185   94   95 1    
   186   94  215 1    
   187   95   96 1    
   188   95   97 1    
   189   95  216 1    
   190   96  217 1    
   191   96  218 1    
   192   96  219 1    
   193   97   98 2    
   194   97   99 am   BACKBONE|DICT|INTERRES
   195   99  100 1    
   196   99  220 1    
   197  100  101 1    
   198  100  102 1    
   199  100  221 1    
   200  101  222 1    
   201  101  223 1    
   202  101  224 1    
   203  102  103 2    
   204  102  104 am   BACKBONE|DICT|INTERRES
   205  104  105 1    
   206  104  225 1    
   207  105  106 1    
   208  105  107 1    
   209  105  226 1    
   210  106  227 1    
   211  106  228 1    
   212  106  229 1    
   213  107  108 2    
   214  107  109 am   BACKBONE|DICT|INTERRES
   215  109  110 1    
   216  109  230 1    
   217  110  111 1    
   218  110  112 1    
   219  110  231 1    
   220  111  232 1    
   221  111  233 1    
   222  111  234 1    
   223  112  113 2    
   224  112  114 am   BACKBONE|DICT|INTERRES
   225  114  115 1    
   226  114  235 1    
   227  115  116 1    
   228  115  117 1    
   229  115  236 1    
   230  116  237 1    
   231  116  238 1    
   232  116  239 1    
   233  117  118 2    
   234  117  119 am   BACKBONE|DICT|INTERRES
   235  119  120 1    
   236  119  240 1    
   237  120  121 1    
   238  120  124 1    
   239  120  241 1    
   240  121  122 am   BACKBONE|DICT|INTERRES
   241  121  123 2    
   242  122  242 1    
   243  122  243 1    
   244  124  125 1    
   245  124  244 1    
   246  124  245 1    
   247  125  126 1    
   248  126  246 1    
   249  126  247 1    
@<TRIPOS>SUBSTRUCTURE
     1 UNK         1 GROUP             0       ****    0 ROOT    
