@<TRIPOS>MOLECULE
3R540
247   249    1
SMALL
USER_CHARGES


@<TRIPOS>ATOM
      1 CA         -2.9095  -10.3352  -45.4578 C.3       0 UNK        -0.1800 
      2 C          -2.8765  -11.8416  -45.2078 C.2       0 UNK         0.5000 
      3 O          -3.2501  -12.2812  -44.1228 O.2       0 UNK        -0.5000 
      4 N          -2.4492  -12.6731  -46.1687 N.am      1 UNK        -0.5000 
      5 CA         -1.9382  -12.3224  -47.5024 C.3       1 UNK         0.1400 
      6 C6         -1.9674  -13.5421  -48.4616 C.3       23 UNK        -0.0398 
      7 S7         -1.0712  -15.0054  -47.8283 S.3       23 UNK        -0.2404 
      8 C8          0.5359  -14.8573  -48.6694 C.3       23 UNK        -0.0205 
      9 C9          0.6516  -15.8546  -49.8082 C.ar      23 UNK        -0.0193 
     10 C10         0.0173  -15.6117  -51.0305 C.ar      23 UNK        -0.1150 
     11 C11         0.1017  -16.5427  -52.0700 C.ar      23 UNK        -0.0193 
     12 C12         0.8436  -17.7123  -51.8849 C.ar      23 UNK        -0.1150 
     13 C13         1.4904  -17.9599  -50.6713 C.ar      23 UNK        -0.0193 
     14 C14         1.3906  -17.0279  -49.6356 C.ar      23 UNK        -0.1150 
     15 C15         2.2948  -19.2357  -50.4838 C.3       23 UNK        -0.0205 
     16 S16         1.2324  -20.6277  -49.9957 S.3       23 UNK        -0.2404 
     17 C17         0.8886  -20.2218  -48.2500 C.3       23 UNK        -0.0398 
     18 CA          0.2053  -21.3971  -47.5105 C.3       11 UNK         0.1400 
     19 N           0.4906  -21.3869  -46.0747 N.am      11 UNK        -0.5000 
     20 C           0.3575  -22.4566  -45.2787 C.2       10 UNK         0.5000 
     21 O           0.0308  -23.5723  -45.6826 O.2       10 UNK        -0.5000 
     22 CA          0.6106  -22.2473  -43.7751 C.3       10 UNK         0.1400 
     23 CB          2.1087  -22.3633  -43.4570 C.3       10 UNK        -0.1800 
     24 N           0.0947  -20.9707  -43.2786 N.am      10 UNK        -0.5000 
     25 C          -1.2039  -20.6362  -43.2637 C.2       9 UNK         0.5000 
     26 O          -2.1063  -21.3809  -43.6460 O.2       9 UNK        -0.5000 
     27 CA         -1.5552  -19.2213  -42.7715 C.3       9 UNK         0.1400 
     28 CB         -1.5755  -19.1730  -41.2366 C.3       9 UNK        -0.1800 
     29 N          -0.6523  -18.1908  -43.2863 N.am      9 UNK        -0.5000 
     30 C          -0.4944  -17.8927  -44.5846 C.2       8 UNK         0.5000 
     31 O          -1.0956  -18.4587  -45.4966 O.2       8 UNK        -0.5000 
     32 CA          0.5648  -16.8302  -44.9256 C.3       8 UNK         0.1400 
     33 CB          0.0987  -15.4255  -44.5106 C.3       8 UNK        -0.1800 
     34 N           1.8541  -17.1207  -44.3028 N.am      8 UNK        -0.5000 
     35 C           2.5683  -18.2391  -44.4928 C.2       7 UNK         0.5000 
     36 O           2.2538  -19.1340  -45.2778 O.2       7 UNK        -0.5000 
     37 CA          3.8182  -18.4058  -43.6139 C.3       7 UNK         0.1400 
     38 CB          5.0090  -17.6342  -44.2022 C.3       7 UNK        -0.1800 
     39 N           3.5768  -17.9703  -42.2375 N.am      7 UNK        -0.5000 
     40 C           2.7828  -18.6136  -41.3694 C.2       6 UNK         0.5000 
     41 O           2.1856  -19.6572  -41.6313 O.2       6 UNK        -0.5000 
     42 CA          2.5954  -17.9587  -39.9891 C.3       6 UNK         0.1400 
     43 CB          3.7991  -18.2485  -39.0800 C.3       6 UNK        -0.1800 
     44 N           2.3882  -16.5129  -40.0780 N.am      6 UNK        -0.5000 
     45 C           1.3093  -15.9395  -40.6284 C.2       5 UNK         0.5000 
     46 O           0.3615  -16.5718  -41.0926 O.2       5 UNK        -0.5000 
     47 CA          1.3032  -14.4022  -40.7099 C.3       5 UNK         0.1400 
     48 CB          0.7455  -13.7965  -39.4136 C.3       5 UNK        -0.1800 
     49 N           2.6098  -13.8050  -40.9971 N.am      5 UNK        -0.5000 
     50 C           3.3809  -14.0797  -42.0571 C.2       4 UNK         0.5000 
     51 O           3.1212  -14.9521  -42.8873 O.2       4 UNK        -0.5000 
     52 CA          4.6212  -13.1853  -42.2378 C.3       4 UNK         0.1400 
     53 CB          5.6752  -13.8241  -43.1592 C.3       4 UNK        -0.1800 
     54 N           4.2141  -11.9026  -42.8044 N.am      4 UNK        -0.5000 
     55 C           3.6187  -10.9093  -42.1300 C.2       3 UNK         0.5000 
     56 O           3.4808  -10.9030  -40.9056 O.2       3 UNK        -0.5000 
     57 CA          3.0537   -9.7449  -42.9678 C.3       3 UNK         0.1400 
     58 CB          4.0606   -8.5862  -43.0277 C.3       3 UNK        -0.1800 
     59 N           2.6917  -10.1390  -44.3341 N.am      3 UNK        -0.5000 
     60 C           1.6846  -10.9648  -44.6491 C.2       2 UNK         0.5000 
     61 O           0.9191  -11.4677  -43.8221 O.2       2 UNK        -0.5000 
     62 CA          1.5319  -11.3045  -46.1375 C.3       2 UNK         0.1400 
     63 CB          2.5842  -12.3388  -46.5768 C.3       2 UNK        -0.1800 
     64 N           0.1980  -11.8456  -46.3681 N.am      2 UNK        -0.5000 
     65 C          -0.5358  -11.6717  -47.4728 C.2       1 UNK         0.5000 
     66 O          -0.1511  -11.0298  -48.4507 O.2       1 UNK        -0.5000 
     67 C          -1.3115  -21.4490  -47.7932 C.2       11 UNK         0.5000 
     68 O          -1.7296  -22.1713  -48.6964 O.2       11 UNK        -0.5000 
     69 N          -2.1057  -20.6994  -47.0129 N.am      12 UNK        -0.5000 
     70 CA         -3.5638  -20.6113  -47.1328 C.3       12 UNK         0.1400 
     71 CB         -4.0702  -19.4314  -46.2901 C.3       12 UNK        -0.1800 
     72 C          -4.3118  -21.9017  -46.7435 C.2       12 UNK         0.5000 
     73 O          -5.4384  -22.1022  -47.2036 O.2       12 UNK        -0.5000 
     74 N          -3.6889  -22.7461  -45.9103 N.am      13 UNK        -0.5000 
     75 CA         -4.2089  -24.0370  -45.4563 C.3       13 UNK         0.1400 
     76 CB         -3.1876  -24.6791  -44.5055 C.3       13 UNK        -0.1800 
     77 C          -4.5419  -25.0011  -46.6127 C.2       13 UNK         0.5000 
     78 O          -3.9036  -24.9490  -47.6667 O.2       13 UNK        -0.5000 
     79 N          -5.5406  -25.8662  -46.3834 N.am      14 UNK        -0.5000 
     80 CA         -6.0760  -26.8556  -47.3283 C.3       14 UNK         0.1400 
     81 CB         -5.0453  -27.9748  -47.5884 C.3       14 UNK        -0.1800 
     82 C          -6.6083  -26.2100  -48.6260 C.2       14 UNK         0.5000 
     83 O          -6.3388  -26.7077  -49.7204 O.2       14 UNK        -0.5000 
     84 N          -7.3334  -25.0909  -48.4684 N.am      15 UNK        -0.5000 
     85 CA         -7.9053  -24.2514  -49.5278 C.3       15 UNK         0.1400 
     86 CB         -9.0459  -24.9950  -50.2547 C.3       15 UNK        -0.1800 
     87 C          -6.8214  -23.7258  -50.4896 C.2       15 UNK         0.5000 
     88 O          -6.8889  -23.9700  -51.6953 O.2       15 UNK        -0.5000 
     89 N          -5.8129  -23.0547  -49.9159 N.am      16 UNK        -0.5000 
     90 CA         -4.6052  -22.5514  -50.5764 C.3       16 UNK         0.1400 
     91 CB         -4.9435  -21.3858  -51.5292 C.3       16 UNK        -0.1800 
     92 C          -3.7966  -23.6772  -51.2516 C.2       16 UNK         0.5000 
     93 O          -3.4310  -23.5542  -52.4200 O.2       16 UNK        -0.5000 
     94 N          -3.5846  -24.7779  -50.5136 N.am      17 UNK        -0.5000 
     95 CA         -2.9339  -26.0191  -50.9448 C.3       17 UNK         0.1400 
     96 CB         -1.4116  -25.8058  -51.0651 C.3       17 UNK        -0.1800 
     97 C          -3.5730  -26.6119  -52.2204 C.2       17 UNK         0.5000 
     98 O          -2.8699  -26.9099  -53.1875 O.2       17 UNK        -0.5000 
     99 N          -4.9077  -26.7403  -52.1922 N.am      18 UNK        -0.5000 
    100 CA        -5.7886  -27.1461  -53.2902 C.3       18 UNK         0.1400 
    101 CB        -5.5447  -28.6197  -53.6786 C.3       18 UNK        -0.1800 
    102 C         -5.7223  -26.1738  -54.4881 C.2       18 UNK         0.5000 
    103 O         -5.5210  -26.6009  -55.6269 O.2       18 UNK        -0.5000 
    104 N         -5.9085  -24.8792  -54.1926 N.am      19 UNK        -0.5000 
    105 CA        -5.9405  -23.7417  -55.1171 C.3       19 UNK         0.1400 
    106 CB        -7.1996  -23.8060  -56.0064 C.3       19 UNK        -0.1800 
    107 C         -4.6365  -23.5569  -55.9228 C.2       19 UNK         0.5000 
    108 O         -4.6811  -23.2882  -57.1255 O.2       19 UNK        -0.5000 
    109 N         -3.4944  -23.6941  -55.2420 N.am      20 UNK        -0.5000 
    110 CA        -2.1661  -23.4234  -55.7815 C.3       20 UNK         0.1400 
    111 CB        -1.1529  -24.3342  -55.0727 C.3       20 UNK        -0.1800 
    112 C         -1.7981  -21.9462  -55.5629 C.2       20 UNK         0.5000 
    113 O         -2.3086  -21.3189  -54.6294 O.2       20 UNK        -0.5000 
    114 N         -0.8985  -21.4332  -56.4158 N.am      21 UNK        -0.5000 
    115 CA        -0.2851  -20.0952  -56.4247 C.3       21 UNK         0.1400 
    116 CB         0.5857  -19.8822  -55.1713 C.3       21 UNK        -0.1800 
    117 C         -1.2767  -18.9306  -56.6252 C.2       21 UNK         0.5000 
    118 O         -1.1653  -18.1922  -57.6045 O.2       21 UNK        -0.5000 
    119 N         -2.2250  -18.7995  -55.6991 N.am      22 UNK        -0.5000 
    120 CA        -3.3208  -17.8256  -55.6862 C.3       22 UNK         0.1400 
    121 C         -4.6574  -18.4102  -55.1403 C.2       22 UNK         0.5000 
    122 N         -4.7245  -19.6677  -54.7133 N.am      22 UNK        -0.7600 
    123 O         -5.6698  -17.7151  -55.1284 O.2       22 UNK        -0.5000 
    124 C124       -2.9153  -16.4927  -55.0004 C.3       23 UNK        -0.0398 
    125 S125       -2.3816  -16.6909  -53.2617 S.3       23 UNK        -0.2404 
    126 C126       -0.6124  -16.2889  -53.3881 C.3       23 UNK        -0.0205 
    127 H127       -1.9000   -9.9280  -45.5073 H         1 UNK         0.0600 
    128 H128       -3.4308   -9.8277  -44.6458 H         1 UNK         0.0600 
    129 H129       -3.4345  -10.0963  -46.3821 H         1 UNK         0.0600 
    130 H130       -2.4468  -13.6644  -45.9750 H         1 UNK         0.3000 
    131 H131       -2.6109  -11.5774  -47.9301 H         1 UNK         0.0600 
    132 H132       -3.0036  -13.8434  -48.6204 H         1 UNK         0.0800 
    133 H133       -1.5955  -13.2721  -49.4514 H         1 UNK         0.0800 
    134 H134        0.6906  -13.8467  -49.0483 H         1 UNK         0.0800 
    135 H135        1.3257  -15.0261  -47.9359 H         1 UNK         0.0800 
    136 H136       -0.5598  -14.7083  -51.1675 H         1 UNK         0.1150 
    137 H137        0.9137  -18.4376  -52.6815 H         1 UNK         0.1150 
    138 H138        1.8818  -17.2208  -48.6920 H         1 UNK         0.1150 
    139 H139        2.7983  -19.4893  -51.4179 H         1 UNK         0.0800 
    140 H140        3.0835  -19.0915  -49.7437 H         1 UNK         0.0800 
    141 H141        0.2976  -19.3062  -48.1838 H         1 UNK         0.0800 
    142 H142        1.8474  -19.9970  -47.7812 H         1 UNK         0.0800 
    143 H143        0.6326  -22.3242  -47.9005 H         1 UNK         0.0600 
    144 H144        0.8154  -20.5114  -45.6760 H         1 UNK         0.3000 
    145 H145        0.0897  -23.0446  -43.2407 H         1 UNK         0.0600 
    146 H146        2.2878  -22.3193  -42.3827 H         1 UNK         0.0600 
    147 H147        2.5125  -23.3114  -43.8144 H         1 UNK         0.0600 
    148 H148        2.6825  -21.5638  -43.9260 H         1 UNK         0.0600 
    149 H149        0.7771  -20.3208  -42.9010 H         1 UNK         0.3000 
    150 H150       -2.5594  -18.9873  -43.1300 H         1 UNK         0.0600 
    151 H151       -2.2441  -19.9323  -40.8292 H         1 UNK         0.0600 
    152 H152       -1.9265  -18.2051  -40.8783 H         1 UNK         0.0600 
    153 H153       -0.5842  -19.3457  -40.8157 H         1 UNK         0.0600 
    154 H154       -0.1305  -17.6629  -42.5916 H         1 UNK         0.3000 
    155 H155        0.7080  -16.8394  -46.0079 H         1 UNK         0.0600 
    156 H156       -0.8863  -15.2000  -44.9184 H         1 UNK         0.0600 
    157 H157        0.7865  -14.6593  -44.8679 H         1 UNK         0.0600 
    158 H158        0.0243  -15.3282  -43.4297 H         1 UNK         0.0600 
    159 H159        2.2228  -16.4166  -43.6682 H         1 UNK         0.3000 
    160 H160        4.0772  -19.4664  -43.5953 H         1 UNK         0.0600 
    161 H161        4.8059  -16.5654  -44.2697 H         1 UNK         0.0600 
    162 H162        5.2396  -17.9862  -45.2084 H         1 UNK         0.0600 
    163 H163        5.9055  -17.7688  -43.5970 H         1 UNK         0.0600 
    164 H164        3.9688  -17.0798  -41.9691 H         1 UNK         0.3000 
    165 H165        1.7083  -18.4005  -39.5300 H         1 UNK         0.0600 
    166 H166        3.6368  -17.8578  -38.0752 H         1 UNK         0.0600 
    167 H167        3.9670  -19.3223  -38.9867 H         1 UNK         0.0600 
    168 H168        4.7166  -17.8052  -39.4687 H         1 UNK         0.0600 
    169 H169        3.1229  -15.9181  -39.7243 H         1 UNK         0.3000 
    170 H170        0.6363  -14.1185  -41.5257 H         1 UNK         0.0600 
    171 H171       -0.2405  -14.2033  -39.1845 H         1 UNK         0.0600 
    172 H172        1.3933  -14.0037  -38.5609 H         1 UNK         0.0600 
    173 H173        0.6375  -12.7150  -39.4987 H         1 UNK         0.0600 
    174 H174        2.8798  -13.0211  -40.4161 H         1 UNK         0.3000 
    175 H175        5.0783  -13.0251  -41.2591 H         1 UNK         0.0600 
    176 H176        5.2908  -13.9840  -44.1675 H         1 UNK         0.0600 
    177 H177        6.5623  -13.1953  -43.2363 H         1 UNK         0.0600 
    178 H178        5.9963  -14.7917  -42.7716 H         1 UNK         0.0600 
    179 H179        4.2600  -11.8262  -43.8092 H         1 UNK         0.3000 
    180 H180        2.1510   -9.3887  -42.4670 H         1 UNK         0.0600 
    181 H181        4.9808   -8.8774  -43.5358 H         1 UNK         0.0600 
    182 H182        4.3310   -8.2519  -42.0252 H         1 UNK         0.0600 
    183 H183        3.6431   -7.7271  -43.5531 H         1 UNK         0.0600 
    184 H184        3.2687   -9.7651  -45.0742 H         1 UNK         0.3000 
    185 H185        1.6628  -10.3830  -46.7088 H         1 UNK         0.0600 
    186 H186        3.5963  -11.9620  -46.4265 H         1 UNK         0.0600 
    187 H187        2.4933  -13.2697  -46.0154 H         1 UNK         0.0600 
    188 H188        2.4844  -12.5760  -47.6359 H         1 UNK         0.0600 
    189 H189       -0.2046  -12.3271  -45.5740 H         1 UNK         0.3000 
    190 H190       -1.6783  -20.0873  -46.3225 H         1 UNK         0.3000 
    191 H191       -3.7996  -20.3998  -48.1772 H         1 UNK         0.0600 
    192 H192       -3.6283  -18.4915  -46.6216 H         1 UNK         0.0600 
    193 H193       -5.1529  -19.3263  -46.3713 H         1 UNK         0.0600 
    194 H194       -3.8302  -19.5621  -45.2345 H         1 UNK         0.0600 
    195 H195       -2.7825  -22.4748  -45.5523 H         1 UNK         0.3000 
    196 H196       -5.1258  -23.8362  -44.8989 H         1 UNK         0.0600 
    197 H197       -3.5633  -25.6201  -44.1021 H         1 UNK         0.0600 
    198 H198       -2.9687  -24.0281  -43.6590 H         1 UNK         0.0600 
    199 H199       -2.2481  -24.8939  -45.0156 H         1 UNK         0.0600 
    200 H200       -6.0021  -25.8356  -45.4847 H         1 UNK         0.3000 
    201 H201       -6.9394  -27.3129  -46.8432 H         1 UNK         0.0600 
    202 H202       -4.7194  -28.4335  -46.6550 H         1 UNK         0.0600 
    203 H203       -4.1603  -27.6023  -48.1039 H         1 UNK         0.0600 
    204 H204       -5.4736  -28.7658  -48.2052 H         1 UNK         0.0600 
    205 H205       -7.4642  -24.7493  -47.5267 H         1 UNK         0.3000 
    206 H206       -8.3382  -23.3773  -49.0391 H         1 UNK         0.0600 
    207 H207       -9.8110  -25.3253  -49.5523 H         1 UNK         0.0600 
    208 H208       -9.5322  -24.3443  -50.9824 H         1 UNK         0.0600 
    209 H209       -8.6843  -25.8718  -50.7928 H         1 UNK         0.0600 
    210 H210       -5.8362  -22.9126  -48.9094 H         1 UNK         0.3000 
    211 H211       -3.9745  -22.1504  -49.7884 H         1 UNK         0.0600 
    212 H212       -5.5660  -21.7093  -52.3629 H         1 UNK         0.0600 
    213 H213       -4.0354  -20.9515  -51.9499 H         1 UNK         0.0600 
    214 H214       -5.4710  -20.5890  -51.0052 H         1 UNK         0.0600 
    215 H215       -3.8913  -24.7715  -49.5431 H         1 UNK         0.3000 
    216 H216       -3.1030  -26.7466  -50.1503 H         1 UNK         0.0600 
    217 H217       -0.9025  -26.7389  -51.3082 H         1 UNK         0.0600 
    218 H218       -0.9925  -25.4408  -50.1272 H         1 UNK         0.0600 
    219 H219       -1.1648  -25.0835  -51.8427 H         1 UNK         0.0600 
    220 H220       -5.3885  -26.5024  -51.3267 H         1 UNK         0.3000 
    221 H221       -6.8048  -27.0771  -52.8989 H         1 UNK         0.0600 
    222 H222       -4.5581  -28.7686  -54.1179 H         1 UNK         0.0600 
    223 H223       -5.6282  -29.2740  -52.8109 H         1 UNK         0.0600 
    224 H224       -6.2807  -28.9552  -54.4100 H         1 UNK         0.0600 
    225 H225       -6.0862  -24.6351  -53.2196 H         1 UNK         0.3000 
    226 H226       -6.0309  -22.8533  -54.4913 H         1 UNK         0.0600 
    227 H227       -8.1030  -23.8959  -55.4031 H         1 UNK         0.0600 
    228 H228       -7.3011  -22.9013  -56.6069 H         1 UNK         0.0600 
    229 H229       -7.1680  -24.6529  -56.6925 H         1 UNK         0.0600 
    230 H230       -3.5384  -23.8114  -54.2303 H         1 UNK         0.3000 
    231 H231       -2.1474  -23.6452  -56.8505 H         1 UNK         0.0600 
    232 H232       -1.1042  -24.1196  -54.0048 H         1 UNK         0.0600 
    233 H233       -0.1505  -24.2013  -55.4809 H         1 UNK         0.0600 
    234 H234       -1.4173  -25.3854  -55.1898 H         1 UNK         0.0600 
    235 H235       -0.5748  -22.0373  -57.1585 H         1 UNK         0.3000 
    236 H236        0.3843  -20.0826  -57.2864 H         1 UNK         0.0600 
    237 H237        1.3641  -20.6418  -55.1005 H         1 UNK         0.0600 
    238 H238        1.0816  -18.9113  -55.2011 H         1 UNK         0.0600 
    239 H239       -0.0024  -19.9236  -54.2543 H         1 UNK         0.0600 
    240 H240       -2.2466  -19.4989  -54.9630 H         1 UNK         0.3000 
    241 H241       -3.5514  -17.5889  -56.7265 H         1 UNK         0.0600 
    242 H242       -5.6071  -20.0076  -54.3697 H         1 UNK         0.3800 
    243 H243       -3.9121  -20.2752  -54.6970 H         1 UNK         0.3800 
    244 H244       -2.1159  -16.0215  -55.5733 H         1 UNK         0.0800 
    245 H245       -3.7435  -15.7829  -55.0261 H         1 UNK         0.0800 
    246 H246       -0.4958  -15.2433  -53.6769 H         1 UNK         0.0800 
    247 H247       -0.1618  -16.8840  -54.1837 H         1 UNK         0.0800 
@<TRIPOS>BOND
     1    1    2 1    
     2    1  127 1    
     3    1  128 1    
     4    1  129 1    
     5    2    3 2    
     6    2    4 am   BACKBONE|DICT|INTERRES
     7    4    5 1    
     8    4  130 1    
     9    5    6 1    
    10    5   65 1    
    11    5  131 1    
    12    6    7 1    
    13    6  132 1    
    14    6  133 1    
    15    7    8 1    
    16    8    9 1    
    17    8  134 1    
    18    8  135 1    
    19    9   10 ar   
    20    9   14 ar   
    21   10   11 ar   
    22   10  136 1    
    23   11   12 ar   
    24   11  126 1    
    25   12   13 ar   
    26   12  137 1    
    27   13   14 ar   
    28   13   15 1    
    29   14  138 1    
    30   15   16 1    
    31   15  139 1    
    32   15  140 1    
    33   16   17 1    
    34   17   18 1    
    35   17  141 1    
    36   17  142 1    
    37   18   19 1    
    38   18   67 1    
    39   18  143 1    
    40   19   20 am   BACKBONE|DICT|INTERRES
    41   19  144 1    
    42   20   21 2    
    43   20   22 1    
    44   22   23 1    
    45   22   24 1    
    46   22  145 1    
    47   23  146 1    
    48   23  147 1    
    49   23  148 1    
    50   24   25 am   BACKBONE|DICT|INTERRES
    51   24  149 1    
    52   25   26 2    
    53   25   27 1    
    54   27   28 1    
    55   27   29 1    
    56   27  150 1    
    57   28  151 1    
    58   28  152 1    
    59   28  153 1    
    60   29   30 am   BACKBONE|DICT|INTERRES
    61   29  154 1    
    62   30   31 2    
    63   30   32 1    
    64   32   33 1    
    65   32   34 1    
    66   32  155 1    
    67   33  156 1    
    68   33  157 1    
    69   33  158 1    
    70   34   35 am   BACKBONE|DICT|INTERRES
    71   34  159 1    
    72   35   36 2    
    73   35   37 1    
    74   37   38 1    
    75   37   39 1    
    76   37  160 1    
    77   38  161 1    
    78   38  162 1    
    79   38  163 1    
    80   39   40 am   BACKBONE|DICT|INTERRES
    81   39  164 1    
    82   40   41 2    
    83   40   42 1    
    84   42   43 1    
    85   42   44 1    
    86   42  165 1    
    87   43  166 1    
    88   43  167 1    
    89   43  168 1    
    90   44   45 am   BACKBONE|DICT|INTERRES
    91   44  169 1    
    92   45   46 2    
    93   45   47 1    
    94   47   48 1    
    95   47   49 1    
    96   47  170 1    
    97   48  171 1    
    98   48  172 1    
    99   48  173 1    
   100   49   50 am   BACKBONE|DICT|INTERRES
   101   49  174 1    
   102   50   51 2    
   103   50   52 1    
   104   52   53 1    
   105   52   54 1    
   106   52  175 1    
   107   53  176 1    
   108   53  177 1    
   109   53  178 1    
   110   54   55 am   BACKBONE|DICT|INTERRES
   111   54  179 1    
   112   55   56 2    
   113   55   57 1    
   114   57   58 1    
   115   57   59 1    
   116   57  180 1    
   117   58  181 1    
   118   58  182 1    
   119   58  183 1    
   120   59   60 am   BACKBONE|DICT|INTERRES
   121   59  184 1    
   122   60   61 2    
   123   60   62 1    
   124   62   63 1    
   125   62   64 1    
   126   62  185 1    
   127   63  186 1    
   128   63  187 1    
   129   63  188 1    
   130   64   65 am   BACKBONE|DICT|INTERRES
   131   64  189 1    
   132   65   66 2    
   133   67   68 2    
   134   67   69 am   BACKBONE|DICT|INTERRES
   135   69   70 1    
   136   69  190 1    
   137   70   71 1    
   138   70   72 1    
   139   70  191 1    
   140   71  192 1    
   141   71  193 1    
   142   71  194 1    
   143   72   73 2    
   144   72   74 am   BACKBONE|DICT|INTERRES
   145   74   75 1    
   146   74  195 1    
   147   75   76 1    
   148   75   77 1    
   149   75  196 1    
   150   76  197 1    
   151   76  198 1    
   152   76  199 1    
   153   77   78 2    
   154   77   79 am   BACKBONE|DICT|INTERRES
   155   79   80 1    
   156   79  200 1    
   157   80   81 1    
   158   80   82 1    
   159   80  201 1    
   160   81  202 1    
   161   81  203 1    
   162   81  204 1    
   163   82   83 2    
   164   82   84 am   BACKBONE|DICT|INTERRES
   165   84   85 1    
   166   84  205 1    
   167   85   86 1    
   168   85   87 1    
   169   85  206 1    
   170   86  207 1    
   171   86  208 1    
   172   86  209 1    
   173   87   88 2    
   174   87   89 am   BACKBONE|DICT|INTERRES
   175   89   90 1    
   176   89  210 1    
   177   90   91 1    
   178   90   92 1    
   179   90  211 1    
   180   91  212 1    
   181   91  213 1    
   182   91  214 1    
   183   92   93 2    
   184   92   94 am   BACKBONE|DICT|INTERRES
   185   94   95 1    
   186   94  215 1    
   187   95   96 1    
   188   95   97 1    
   189   95  216 1    
   190   96  217 1    
   191   96  218 1    
   192   96  219 1    
   193   97   98 2    
   194   97   99 am   BACKBONE|DICT|INTERRES
   195   99  100 1    
   196   99  220 1    
   197  100  101 1    
   198  100  102 1    
   199  100  221 1    
   200  101  222 1    
   201  101  223 1    
   202  101  224 1    
   203  102  103 2    
   204  102  104 am   BACKBONE|DICT|INTERRES
   205  104  105 1    
   206  104  225 1    
   207  105  106 1    
   208  105  107 1    
   209  105  226 1    
   210  106  227 1    
   211  106  228 1    
   212  106  229 1    
   213  107  108 2    
   214  107  109 am   BACKBONE|DICT|INTERRES
   215  109  110 1    
   216  109  230 1    
   217  110  111 1    
   218  110  112 1    
   219  110  231 1    
   220  111  232 1    
   221  111  233 1    
   222  111  234 1    
   223  112  113 2    
   224  112  114 am   BACKBONE|DICT|INTERRES
   225  114  115 1    
   226  114  235 1    
   227  115  116 1    
   228  115  117 1    
   229  115  236 1    
   230  116  237 1    
   231  116  238 1    
   232  116  239 1    
   233  117  118 2    
   234  117  119 am   BACKBONE|DICT|INTERRES
   235  119  120 1    
   236  119  240 1    
   237  120  121 1    
   238  120  124 1    
   239  120  241 1    
   240  121  122 am   BACKBONE|DICT|INTERRES
   241  121  123 2    
   242  122  242 1    
   243  122  243 1    
   244  124  125 1    
   245  124  244 1    
   246  124  245 1    
   247  125  126 1    
   248  126  246 1    
   249  126  247 1    
@<TRIPOS>SUBSTRUCTURE
     1 UNK         1 GROUP             0       ****    0 ROOT    
