@<TRIPOS>MOLECULE
3R540
247   249    1
SMALL
USER_CHARGES


@<TRIPOS>ATOM
      1 CA          3.1304  -13.2360  -46.7174 C.3       0 UNK        -0.1800 
      2 C           1.6216  -13.2296  -46.5285 C.2       0 UNK         0.5000 
      3 O           1.1402  -13.0343  -45.4124 O.2       0 UNK        -0.5000 
      4 N           0.8692  -13.4264  -47.6178 N.am      1 UNK        -0.5000 
      5 CA         -0.5988  -13.5037  -47.6404 C.3       1 UNK         0.1400 
      6 C6         -1.1320  -13.9401  -49.0263 C.3       23 UNK        -0.0398 
      7 S7         -0.7279  -15.6810  -49.3809 S.3       23 UNK        -0.2404 
      8 C8          0.7475  -15.5308  -50.4346 C.3       23 UNK        -0.0205 
      9 C9          1.4203  -16.8823  -50.6128 C.ar      23 UNK        -0.0193 
     10 C10         1.3026  -17.5856  -51.8156 C.ar      23 UNK        -0.1150 
     11 C11         1.9052  -18.8394  -51.9645 C.ar      23 UNK        -0.0193 
     12 C12         2.6395  -19.3814  -50.9053 C.ar      23 UNK        -0.1150 
     13 C13         2.7509  -18.6936  -49.6945 C.ar      23 UNK        -0.0193 
     14 C14         2.1492  -17.4399  -49.5582 C.ar      23 UNK        -0.1150 
     15 C15         3.4920  -19.3133  -48.5223 C.3       23 UNK        -0.0205 
     16 S16         2.4171  -20.4674  -47.6160 S.3       23 UNK        -0.2404 
     17 C17         3.0163  -22.0820  -48.2212 C.3       23 UNK        -0.0398 
     18 CA          2.3491  -23.3047  -47.5369 C.3       11 UNK         0.1400 
     19 N           2.3787  -23.1858  -46.0785 N.am      11 UNK        -0.5000 
     20 C           2.3082  -24.2004  -45.2097 C.2       10 UNK         0.5000 
     21 O           2.3467  -25.3869  -45.5419 O.2       10 UNK        -0.5000 
     22 CA          2.1566  -23.8082  -43.7248 C.3       10 UNK         0.1400 
     23 CB          2.5679  -24.9301  -42.7490 C.3       10 UNK        -0.1800 
     24 N           2.8269  -22.5459  -43.3969 N.am      10 UNK        -0.5000 
     25 C           4.1415  -22.2797  -43.4245 C.2       9 UNK         0.5000 
     26 O           5.0101  -23.1026  -43.7157 O.2       9 UNK        -0.5000 
     27 CA          4.5575  -20.8397  -43.0637 C.3       9 UNK         0.1400 
     28 CB          4.6720  -19.9827  -44.3338 C.3       9 UNK        -0.1800 
     29 N           3.6330  -20.1892  -42.1329 N.am      9 UNK        -0.5000 
     30 C           3.4567  -20.5400  -40.8507 C.2       8 UNK         0.5000 
     31 O           4.1077  -21.4180  -40.2835 O.2       8 UNK        -0.5000 
     32 CA          2.3469  -19.8013  -40.0822 C.3       8 UNK         0.1400 
     33 CB          2.8590  -18.4651  -39.5214 C.3       8 UNK        -0.1800 
     34 N           1.1755  -19.5635  -40.9270 N.am      8 UNK        -0.5000 
     35 C           0.2470  -20.4888  -41.2076 C.2       7 UNK         0.5000 
     36 O           0.2483  -21.6241  -40.7318 O.2       7 UNK        -0.5000 
     37 CA         -0.8629  -20.0896  -42.1993 C.3       7 UNK         0.1400 
     38 CB         -2.0650  -19.4886  -41.4565 C.3       7 UNK        -0.1800 
     39 N          -0.4121  -19.1441  -43.2204 N.am      7 UNK        -0.5000 
     40 C           0.4570  -19.4365  -44.1985 C.2       6 UNK         0.5000 
     41 O           0.9577  -20.5492  -44.3580 O.2       6 UNK        -0.5000 
     42 CA          0.8806  -18.2700  -45.1123 C.3       6 UNK         0.1400 
     43 CB         -0.1090  -18.1147  -46.2761 C.3       6 UNK        -0.1800 
     44 N           1.0024  -16.9926  -44.4064 N.am      6 UNK        -0.5000 
     45 C           1.7946  -16.7656  -43.3483 C.2       5 UNK         0.5000 
     46 O           2.5523  -17.6129  -42.8769 O.2       5 UNK        -0.5000 
     47 CA          1.7018  -15.3860  -42.6728 C.3       5 UNK         0.1400 
     48 CB          2.9760  -14.5674  -42.9251 C.3       5 UNK        -0.1800 
     49 N           0.5368  -14.6079  -43.0972 N.am      5 UNK        -0.5000 
     50 C          -0.7263  -14.8329  -42.7068 C.2       4 UNK         0.5000 
     51 O          -1.0501  -15.7831  -41.9919 O.2       4 UNK        -0.5000 
     52 CA         -1.7996  -13.8473  -43.2244 C.3       4 UNK         0.1400 
     53 CB         -3.0301  -13.7595  -42.2987 C.3       4 UNK        -0.1800 
     54 N          -1.2623  -12.5132  -43.5205 N.am      4 UNK        -0.5000 
     55 C          -0.6834  -11.6520  -42.6675 C.2       3 UNK         0.5000 
     56 O          -0.6345  -11.8237  -41.4489 O.2       3 UNK        -0.5000 
     57 CA         -0.0059  -10.4065  -43.2754 C.3       3 UNK         0.1400 
     58 CB          1.4978  -10.4023  -42.9500 C.3       3 UNK        -0.1800 
     59 N          -0.1548  -10.3514  -44.7308 N.am      3 UNK        -0.5000 
     60 C          -1.0282   -9.5812  -45.3929 C.2       2 UNK         0.5000 
     61 O          -1.7915   -8.7849  -44.8455 O.2       2 UNK        -0.5000 
     62 CA         -1.0674   -9.7333  -46.9284 C.3       2 UNK         0.1400 
     63 CB         -0.2029   -8.6529  -47.5958 C.3       2 UNK        -0.1800 
     64 N          -0.6271  -11.0506  -47.3975 N.am      2 UNK        -0.5000 
     65 C          -1.2807  -12.2000  -47.1744 C.2       1 UNK         0.5000 
     66 O          -2.3529  -12.2651  -46.5734 O.2       1 UNK        -0.5000 
     67 C           0.9054  -23.5455  -48.0316 C.2       11 UNK         0.5000 
     68 O          -0.0487  -23.3823  -47.2675 O.2       11 UNK        -0.5000 
     69 N           0.7580  -23.9144  -49.3127 N.am      12 UNK        -0.5000 
     70 CA         -0.5243  -24.2335  -49.9572 C.3       12 UNK         0.1400 
     71 CB         -0.2567  -24.6751  -51.4032 C.3       12 UNK        -0.1800 
     72 C          -1.5668  -23.0950  -49.9116 C.2       12 UNK         0.5000 
     73 O          -2.7677  -23.3665  -49.8970 O.2       12 UNK        -0.5000 
     74 N          -1.0901  -21.8470  -49.8138 N.am      13 UNK        -0.5000 
     75 CA         -1.8971  -20.6447  -49.6182 C.3       13 UNK         0.1400 
     76 CB         -1.0122  -19.4122  -49.8187 C.3       13 UNK        -0.1800 
     77 C          -2.6448  -20.5754  -48.2687 C.2       13 UNK         0.5000 
     78 O          -3.5363  -19.7387  -48.1302 O.2       13 UNK        -0.5000 
     79 N          -2.3023  -21.4479  -47.3075 N.am      14 UNK        -0.5000 
     80 CA         -3.0052  -21.5964  -46.0303 C.3       14 UNK         0.1400 
     81 CB         -2.1548  -22.4575  -45.0841 C.3       14 UNK        -0.1800 
     82 C          -4.4183  -22.2039  -46.1668 C.2       14 UNK         0.5000 
     83 O          -5.2194  -22.0634  -45.2412 O.2       14 UNK        -0.5000 
     84 N          -4.7019  -22.8769  -47.2931 N.am      15 UNK        -0.5000 
     85 CA         -6.0145  -23.4332  -47.6287 C.3       15 UNK         0.1400 
     86 CB         -5.8711  -24.3005  -48.8891 C.3       15 UNK        -0.1800 
     87 C          -7.0736  -22.3361  -47.8558 C.2       15 UNK         0.5000 
     88 O          -6.7261  -21.2150  -48.2301 O.2       15 UNK        -0.5000 
     89 N          -8.3551  -22.6889  -47.6845 N.am      16 UNK        -0.5000 
     90 CA         -9.5018  -21.7792  -47.8201 C.3       16 UNK         0.1400 
     91 CB        -10.7852  -22.5239  -47.4218 C.3       16 UNK        -0.1800 
     92 C          -9.6554  -21.1533  -49.2225 C.2       16 UNK         0.5000 
     93 O         -10.0872  -20.0054  -49.3320 O.2       16 UNK        -0.5000 
     94 N          -9.2703  -21.9093  -50.2585 N.am      17 UNK        -0.5000 
     95 CA         -9.2196  -21.4685  -51.6559 C.3       17 UNK         0.1400 
     96 CB         -9.7699  -22.6015  -52.5396 C.3       17 UNK        -0.1800 
     97 C          -7.7906  -21.0813  -52.0935 C.2       17 UNK         0.5000 
     98 O          -7.5606  -20.8669  -53.2853 O.2       17 UNK        -0.5000 
     99 N          -6.8373  -21.0658  -51.1467 N.am      18 UNK        -0.5000 
    100 CA        -5.3986  -20.8192  -51.3138 C.3       18 UNK         0.1400 
    101 CB        -5.1468  -19.3373  -51.6613 C.3       18 UNK        -0.1800 
    102 C         -4.7044  -21.7797  -52.3049 C.2       18 UNK         0.5000 
    103 O         -3.6732  -21.4253  -52.8776 O.2       18 UNK        -0.5000 
    104 N         -5.3163  -22.9530  -52.5335 N.am      19 UNK        -0.5000 
    105 CA        -4.9714  -23.9476  -53.5546 C.3       19 UNK         0.1400 
    106 CB        -3.6483  -24.6483  -53.1910 C.3       19 UNK        -0.1800 
    107 C         -4.9709  -23.3609  -54.9853 C.2       19 UNK         0.5000 
    108 O         -4.1542  -23.7683  -55.8111 O.2       19 UNK        -0.5000 
    109 N         -5.8694  -22.3919  -55.2339 N.am      20 UNK        -0.5000 
    110 CA        -5.9572  -21.5519  -56.4331 C.3       20 UNK         0.1400 
    111 CB        -6.3339  -22.3856  -57.6759 C.3       20 UNK        -0.1800 
    112 C         -4.6796  -20.7071  -56.6207 C.2       20 UNK         0.5000 
    113 O         -4.0506  -20.7514  -57.6797 O.2       20 UNK        -0.5000 
    114 N         -4.3011  -19.9898  -55.5509 N.am      21 UNK        -0.5000 
    115 CA        -3.0897  -19.1704  -55.4066 C.3       21 UNK         0.1400 
    116 CB        -3.1829  -17.9077  -56.2875 C.3       21 UNK        -0.1800 
    117 C         -1.7988  -19.9838  -55.6435 C.2       21 UNK         0.5000 
    118 O         -0.9070  -19.5456  -56.3726 O.2       21 UNK        -0.5000 
    119 N         -1.7588  -21.1791  -55.0434 N.am      22 UNK        -0.5000 
    120 CA        -0.7231  -22.2154  -55.1981 C.3       22 UNK         0.1400 
    121 C         -0.6611  -22.8840  -56.6081 C.2       22 UNK         0.5000 
    122 N         -1.5822  -22.6212  -57.5276 N.am      22 UNK        -0.7600 
    123 O          0.2327  -23.6844  -56.8711 O.2       22 UNK        -0.5000 
    124 C124        0.6868  -21.7688  -54.7156 C.3       23 UNK        -0.0398 
    125 S125        0.6978  -21.0892  -53.0216 S.3       23 UNK        -0.2404 
    126 C126        1.7483  -19.6216  -53.2584 C.3       23 UNK        -0.0205 
    127 H127        3.5459  -14.1850  -46.3796 H         1 UNK         0.0600 
    128 H128        3.4051  -13.0952  -47.7629 H         1 UNK         0.0600 
    129 H129        3.5859  -12.4345  -46.1360 H         1 UNK         0.0600 
    130 H130        1.3260  -13.5698  -48.5055 H         1 UNK         0.3000 
    131 H131       -0.8864  -14.2675  -46.9140 H         1 UNK         0.0600 
    132 H132       -2.2202  -13.8588  -49.0636 H         1 UNK         0.0800 
    133 H133       -0.7522  -13.2938  -49.8194 H         1 UNK         0.0800 
    134 H134        1.4598  -14.8362  -49.9902 H         1 UNK         0.0800 
    135 H135        0.4611  -15.1093  -51.3994 H         1 UNK         0.0800 
    136 H136        0.7269  -17.1657  -52.6283 H         1 UNK         0.1150 
    137 H137        3.0974  -20.3540  -51.0157 H         1 UNK         0.1150 
    138 H138        2.2244  -16.9063  -48.6211 H         1 UNK         0.1150 
    139 H139        4.3954  -19.8167  -48.8692 H         1 UNK         0.0800 
    140 H140        3.8242  -18.5345  -47.8343 H         1 UNK         0.0800 
    141 H141        4.0903  -22.1237  -48.0349 H         1 UNK         0.0800 
    142 H142        2.9053  -22.1225  -49.3056 H         1 UNK         0.0800 
    143 H143        2.9255  -24.1896  -47.8148 H         1 UNK         0.0600 
    144 H144        2.2711  -22.2462  -45.7193 H         1 UNK         0.3000 
    145 H145        1.0917  -23.6222  -43.5763 H         1 UNK         0.0600 
    146 H146        2.4442  -24.6144  -41.7129 H         1 UNK         0.0600 
    147 H147        1.9509  -25.8177  -42.8928 H         1 UNK         0.0600 
    148 H148        3.6068  -25.2298  -42.8878 H         1 UNK         0.0600 
    149 H149        2.2026  -21.7619  -43.2432 H         1 UNK         0.3000 
    150 H150        5.5401  -20.8854  -42.5897 H         1 UNK         0.0600 
    151 H151        5.3818  -20.4180  -45.0384 H         1 UNK         0.0600 
    152 H152        5.0172  -18.9751  -44.1018 H         1 UNK         0.0600 
    153 H153        3.7138  -19.8978  -44.8458 H         1 UNK         0.0600 
    154 H154        3.1056  -19.3990  -42.4937 H         1 UNK         0.3000 
    155 H155        2.0507  -20.4265  -39.2370 H         1 UNK         0.0600 
    156 H156        3.1949  -17.7920  -40.3103 H         1 UNK         0.0600 
    157 H157        3.7027  -18.6253  -38.8491 H         1 UNK         0.0600 
    158 H158        2.0829  -17.9534  -38.9522 H         1 UNK         0.0600 
    159 H159        1.1335  -18.6727  -41.4012 H         1 UNK         0.3000 
    160 H160       -1.1940  -21.0000  -42.7011 H         1 UNK         0.0600 
    161 H161       -2.8894  -19.2861  -42.1405 H         1 UNK         0.0600 
    162 H162       -1.8040  -18.5532  -40.9593 H         1 UNK         0.0600 
    163 H163       -2.4369  -20.1745  -40.6942 H         1 UNK         0.0600 
    164 H164       -0.7513  -18.1956  -43.1409 H         1 UNK         0.3000 
    165 H165        1.8625  -18.5089  -45.5217 H         1 UNK         0.0600 
    166 H166        0.2535  -17.3934  -47.0081 H         1 UNK         0.0600 
    167 H167       -0.2462  -19.0629  -46.7965 H         1 UNK         0.0600 
    168 H168       -1.0911  -17.7860  -45.9346 H         1 UNK         0.0600 
    169 H169        0.4205  -16.2349  -44.7296 H         1 UNK         0.3000 
    170 H170        1.6217  -15.5596  -41.5976 H         1 UNK         0.0600 
    171 H171        3.8573  -15.0924  -42.5542 H         1 UNK         0.0600 
    172 H172        2.9335  -13.6041  -42.4166 H         1 UNK         0.0600 
    173 H173        3.1303  -14.3798  -43.9867 H         1 UNK         0.0600 
    174 H174        0.7168  -13.8513  -43.7525 H         1 UNK         0.3000 
    175 H175       -2.1380  -14.2505  -44.1798 H         1 UNK         0.0600 
    176 H176       -3.7676  -13.0583  -42.6893 H         1 UNK         0.0600 
    177 H177       -3.5218  -14.7289  -42.2093 H         1 UNK         0.0600 
    178 H178       -2.7603  -13.4382  -41.2925 H         1 UNK         0.0600 
    179 H179       -1.2622  -12.2599  -44.4990 H         1 UNK         0.3000 
    180 H180       -0.4591   -9.5285  -42.8110 H         1 UNK         0.0600 
    181 H181        2.0013  -11.2775  -43.3630 H         1 UNK         0.0600 
    182 H182        1.6683  -10.4033  -41.8727 H         1 UNK         0.0600 
    183 H183        1.9851   -9.5145  -43.3531 H         1 UNK         0.0600 
    184 H184        0.4162  -11.0045  -45.2537 H         1 UNK         0.3000 
    185 H185       -2.1021   -9.5889  -47.2464 H         1 UNK         0.0600 
    186 H186        0.8496   -8.7580  -47.3293 H         1 UNK         0.0600 
    187 H187       -0.2815   -8.6994  -48.6821 H         1 UNK         0.0600 
    188 H188       -0.5205   -7.6547  -47.2911 H         1 UNK         0.0600 
    189 H189        0.2566  -11.0870  -47.8846 H         1 UNK         0.3000 
    190 H190        1.5799  -24.0313  -49.8874 H         1 UNK         0.3000 
    191 H191       -0.9532  -25.0808  -49.4183 H         1 UNK         0.0600 
    192 H192        0.4570  -25.4981  -51.4413 H         1 UNK         0.0600 
    193 H193        0.1376  -23.8593  -52.0091 H         1 UNK         0.0600 
    194 H194       -1.1720  -25.0266  -51.8768 H         1 UNK         0.0600 
    195 H195       -0.0897  -21.7168  -49.8291 H         1 UNK         0.3000 
    196 H196       -2.6519  -20.6320  -50.4022 H         1 UNK         0.0600 
    197 H197       -1.5676  -18.4939  -49.6294 H         1 UNK         0.0600 
    198 H198       -0.6550  -19.3623  -50.8456 H         1 UNK         0.0600 
    199 H199       -0.1458  -19.4193  -49.1581 H         1 UNK         0.0600 
    200 H200       -1.5380  -22.0967  -47.4734 H         1 UNK         0.3000 
    201 H201       -3.1109  -20.6045  -45.5860 H         1 UNK         0.0600 
    202 H202       -1.1486  -22.0546  -44.9765 H         1 UNK         0.0600 
    203 H203       -2.0643  -23.4818  -45.4476 H         1 UNK         0.0600 
    204 H204       -2.5997  -22.5022  -44.0895 H         1 UNK         0.0600 
    205 H205       -3.9918  -22.9338  -48.0121 H         1 UNK         0.3000 
    206 H206       -6.3394  -24.0647  -46.7993 H         1 UNK         0.0600 
    207 H207       -6.8187  -24.7676  -49.1597 H         1 UNK         0.0600 
    208 H208       -5.5367  -23.7123  -49.7438 H         1 UNK         0.0600 
    209 H209       -5.1475  -25.1015  -48.7360 H         1 UNK         0.0600 
    210 H210       -8.5676  -23.6328  -47.3941 H         1 UNK         0.3000 
    211 H211       -9.3531  -20.9587  -47.1149 H         1 UNK         0.0600 
    212 H212      -11.6545  -21.8683  -47.4883 H         1 UNK         0.0600 
    213 H213      -10.7305  -22.8838  -46.3941 H         1 UNK         0.0600 
    214 H214      -10.9708  -23.3816  -48.0696 H         1 UNK         0.0600 
    215 H215       -8.9430  -22.8452  -50.0678 H         1 UNK         0.3000 
    216 H216       -9.8500  -20.5889  -51.8001 H         1 UNK         0.0600 
    217 H217       -9.8093  -22.3016  -53.5877 H         1 UNK         0.0600 
    218 H218      -10.7843  -22.8715  -52.2454 H         1 UNK         0.0600 
    219 H219       -9.1529  -23.4988  -52.4773 H         1 UNK         0.0600 
    220 H220       -7.1219  -21.2072  -50.1828 H         1 UNK         0.3000 
    221 H221       -4.9496  -21.0173  -50.3407 H         1 UNK         0.0600 
    222 H222       -5.6020  -18.6806  -50.9198 H         1 UNK         0.0600 
    223 H223       -4.0809  -19.1075  -51.6795 H         1 UNK         0.0600 
    224 H224       -5.5551  -19.0746  -52.6374 H         1 UNK         0.0600 
    225 H225       -6.1614  -23.1395  -52.0153 H         1 UNK         0.3000 
    226 H226       -5.7612  -24.6997  -53.5355 H         1 UNK         0.0600 
    227 H227       -3.6898  -25.0649  -52.1844 H         1 UNK         0.0600 
    228 H228       -3.4335  -25.4698  -53.8751 H         1 UNK         0.0600 
    229 H229       -2.8075  -23.9569  -53.2315 H         1 UNK         0.0600 
    230 H230       -6.4786  -22.1035  -54.4747 H         1 UNK         0.3000 
    231 H231       -6.7698  -20.8461  -56.2547 H         1 UNK         0.0600 
    232 H232       -7.2470  -22.9557  -57.5053 H         1 UNK         0.0600 
    233 H233       -5.5473  -23.0874  -57.9539 H         1 UNK         0.0600 
    234 H234       -6.5104  -21.7393  -58.5364 H         1 UNK         0.0600 
    235 H235       -4.8568  -20.0813  -54.7125 H         1 UNK         0.3000 
    236 H236       -3.0579  -18.8464  -54.3651 H         1 UNK         0.0600 
    237 H237       -2.3382  -17.2422  -56.1061 H         1 UNK         0.0600 
    238 H238       -3.1835  -18.1538  -57.3498 H         1 UNK         0.0600 
    239 H239       -4.0909  -17.3442  -56.0732 H         1 UNK         0.0600 
    240 H240       -2.5225  -21.4163  -54.4158 H         1 UNK         0.3000 
    241 H241       -1.0408  -23.0195  -54.5348 H         1 UNK         0.0600 
    242 H242       -1.5281  -23.0780  -58.4234 H         1 UNK         0.3800 
    243 H243       -2.3460  -21.9841  -57.3385 H         1 UNK         0.3800 
    244 H244        1.3755  -22.6151  -54.7240 H         1 UNK         0.0800 
    245 H245        1.1049  -21.0377  -55.4087 H         1 UNK         0.0800 
    246 H246        2.7315  -19.9312  -53.6156 H         1 UNK         0.0800 
    247 H247        1.3148  -18.9922  -54.0375 H         1 UNK         0.0800 
@<TRIPOS>BOND
     1    1    2 1    
     2    1  127 1    
     3    1  128 1    
     4    1  129 1    
     5    2    3 2    
     6    2    4 am   BACKBONE|DICT|INTERRES
     7    4    5 1    
     8    4  130 1    
     9    5    6 1    
    10    5   65 1    
    11    5  131 1    
    12    6    7 1    
    13    6  132 1    
    14    6  133 1    
    15    7    8 1    
    16    8    9 1    
    17    8  134 1    
    18    8  135 1    
    19    9   10 ar   
    20    9   14 ar   
    21   10   11 ar   
    22   10  136 1    
    23   11   12 ar   
    24   11  126 1    
    25   12   13 ar   
    26   12  137 1    
    27   13   14 ar   
    28   13   15 1    
    29   14  138 1    
    30   15   16 1    
    31   15  139 1    
    32   15  140 1    
    33   16   17 1    
    34   17   18 1    
    35   17  141 1    
    36   17  142 1    
    37   18   19 1    
    38   18   67 1    
    39   18  143 1    
    40   19   20 am   BACKBONE|DICT|INTERRES
    41   19  144 1    
    42   20   21 2    
    43   20   22 1    
    44   22   23 1    
    45   22   24 1    
    46   22  145 1    
    47   23  146 1    
    48   23  147 1    
    49   23  148 1    
    50   24   25 am   BACKBONE|DICT|INTERRES
    51   24  149 1    
    52   25   26 2    
    53   25   27 1    
    54   27   28 1    
    55   27   29 1    
    56   27  150 1    
    57   28  151 1    
    58   28  152 1    
    59   28  153 1    
    60   29   30 am   BACKBONE|DICT|INTERRES
    61   29  154 1    
    62   30   31 2    
    63   30   32 1    
    64   32   33 1    
    65   32   34 1    
    66   32  155 1    
    67   33  156 1    
    68   33  157 1    
    69   33  158 1    
    70   34   35 am   BACKBONE|DICT|INTERRES
    71   34  159 1    
    72   35   36 2    
    73   35   37 1    
    74   37   38 1    
    75   37   39 1    
    76   37  160 1    
    77   38  161 1    
    78   38  162 1    
    79   38  163 1    
    80   39   40 am   BACKBONE|DICT|INTERRES
    81   39  164 1    
    82   40   41 2    
    83   40   42 1    
    84   42   43 1    
    85   42   44 1    
    86   42  165 1    
    87   43  166 1    
    88   43  167 1    
    89   43  168 1    
    90   44   45 am   BACKBONE|DICT|INTERRES
    91   44  169 1    
    92   45   46 2    
    93   45   47 1    
    94   47   48 1    
    95   47   49 1    
    96   47  170 1    
    97   48  171 1    
    98   48  172 1    
    99   48  173 1    
   100   49   50 am   BACKBONE|DICT|INTERRES
   101   49  174 1    
   102   50   51 2    
   103   50   52 1    
   104   52   53 1    
   105   52   54 1    
   106   52  175 1    
   107   53  176 1    
   108   53  177 1    
   109   53  178 1    
   110   54   55 am   BACKBONE|DICT|INTERRES
   111   54  179 1    
   112   55   56 2    
   113   55   57 1    
   114   57   58 1    
   115   57   59 1    
   116   57  180 1    
   117   58  181 1    
   118   58  182 1    
   119   58  183 1    
   120   59   60 am   BACKBONE|DICT|INTERRES
   121   59  184 1    
   122   60   61 2    
   123   60   62 1    
   124   62   63 1    
   125   62   64 1    
   126   62  185 1    
   127   63  186 1    
   128   63  187 1    
   129   63  188 1    
   130   64   65 am   BACKBONE|DICT|INTERRES
   131   64  189 1    
   132   65   66 2    
   133   67   68 2    
   134   67   69 am   BACKBONE|DICT|INTERRES
   135   69   70 1    
   136   69  190 1    
   137   70   71 1    
   138   70   72 1    
   139   70  191 1    
   140   71  192 1    
   141   71  193 1    
   142   71  194 1    
   143   72   73 2    
   144   72   74 am   BACKBONE|DICT|INTERRES
   145   74   75 1    
   146   74  195 1    
   147   75   76 1    
   148   75   77 1    
   149   75  196 1    
   150   76  197 1    
   151   76  198 1    
   152   76  199 1    
   153   77   78 2    
   154   77   79 am   BACKBONE|DICT|INTERRES
   155   79   80 1    
   156   79  200 1    
   157   80   81 1    
   158   80   82 1    
   159   80  201 1    
   160   81  202 1    
   161   81  203 1    
   162   81  204 1    
   163   82   83 2    
   164   82   84 am   BACKBONE|DICT|INTERRES
   165   84   85 1    
   166   84  205 1    
   167   85   86 1    
   168   85   87 1    
   169   85  206 1    
   170   86  207 1    
   171   86  208 1    
   172   86  209 1    
   173   87   88 2    
   174   87   89 am   BACKBONE|DICT|INTERRES
   175   89   90 1    
   176   89  210 1    
   177   90   91 1    
   178   90   92 1    
   179   90  211 1    
   180   91  212 1    
   181   91  213 1    
   182   91  214 1    
   183   92   93 2    
   184   92   94 am   BACKBONE|DICT|INTERRES
   185   94   95 1    
   186   94  215 1    
   187   95   96 1    
   188   95   97 1    
   189   95  216 1    
   190   96  217 1    
   191   96  218 1    
   192   96  219 1    
   193   97   98 2    
   194   97   99 am   BACKBONE|DICT|INTERRES
   195   99  100 1    
   196   99  220 1    
   197  100  101 1    
   198  100  102 1    
   199  100  221 1    
   200  101  222 1    
   201  101  223 1    
   202  101  224 1    
   203  102  103 2    
   204  102  104 am   BACKBONE|DICT|INTERRES
   205  104  105 1    
   206  104  225 1    
   207  105  106 1    
   208  105  107 1    
   209  105  226 1    
   210  106  227 1    
   211  106  228 1    
   212  106  229 1    
   213  107  108 2    
   214  107  109 am   BACKBONE|DICT|INTERRES
   215  109  110 1    
   216  109  230 1    
   217  110  111 1    
   218  110  112 1    
   219  110  231 1    
   220  111  232 1    
   221  111  233 1    
   222  111  234 1    
   223  112  113 2    
   224  112  114 am   BACKBONE|DICT|INTERRES
   225  114  115 1    
   226  114  235 1    
   227  115  116 1    
   228  115  117 1    
   229  115  236 1    
   230  116  237 1    
   231  116  238 1    
   232  116  239 1    
   233  117  118 2    
   234  117  119 am   BACKBONE|DICT|INTERRES
   235  119  120 1    
   236  119  240 1    
   237  120  121 1    
   238  120  124 1    
   239  120  241 1    
   240  121  122 am   BACKBONE|DICT|INTERRES
   241  121  123 2    
   242  122  242 1    
   243  122  243 1    
   244  124  125 1    
   245  124  244 1    
   246  124  245 1    
   247  125  126 1    
   248  126  246 1    
   249  126  247 1    
@<TRIPOS>SUBSTRUCTURE
     1 UNK         1 GROUP             0       ****    0 ROOT    
