@<TRIPOS>MOLECULE
3R540
247   249    1
SMALL
USER_CHARGES


@<TRIPOS>ATOM
      1 CA         -0.9482   -9.9089  -49.0732 C.3       0 UNK        -0.1800 
      2 C          -1.5676  -11.1455  -48.4393 C.2       0 UNK         0.5000 
      3 O          -0.8488  -12.0765  -48.0837 O.2       0 UNK        -0.5000 
      4 N          -2.8958  -11.1492  -48.2718 N.am      1 UNK        -0.5000 
      5 CA         -3.7051  -12.2682  -47.7605 C.3       1 UNK         0.1400 
      6 C6         -5.2193  -11.9539  -47.8545 C.3       23 UNK        -0.0398 
      7 S7         -5.7711  -11.6216  -49.5633 S.3       23 UNK        -0.2404 
      8 C8         -6.7568  -13.1072  -49.9342 C.3       23 UNK        -0.0205 
      9 C9         -5.8850  -14.3384  -50.1307 C.ar      23 UNK        -0.0193 
     10 C10        -5.2910  -14.5845  -51.3711 C.ar      23 UNK        -0.1150 
     11 C11        -4.5067  -15.7241  -51.5716 C.ar      23 UNK        -0.0193 
     12 C12        -4.3093  -16.6190  -50.5145 C.ar      23 UNK        -0.1150 
     13 C13        -4.9031  -16.3849  -49.2694 C.ar      23 UNK        -0.0193 
     14 C14        -5.6897  -15.2442  -49.0847 C.ar      23 UNK        -0.1150 
     15 C15        -4.7123  -17.3655  -48.1236 C.3       23 UNK        -0.0205 
     16 S16        -5.9252  -18.7190  -48.2247 S.3       23 UNK        -0.2404 
     17 C17        -5.8270  -19.4566  -46.5575 C.3       23 UNK        -0.0398 
     18 CA         -5.0517  -20.7961  -46.5386 C.3       11 UNK         0.1400 
     19 N          -3.6496  -20.6045  -46.9246 N.am      11 UNK        -0.5000 
     20 C          -2.7185  -21.5574  -47.0473 C.2       10 UNK         0.5000 
     21 O          -2.9104  -22.7364  -46.7615 O.2       10 UNK        -0.5000 
     22 CA         -1.3298  -21.1286  -47.5425 C.3       10 UNK         0.1400 
     23 CB         -1.2652  -19.6712  -48.0281 C.3       10 UNK        -0.1800 
     24 N          -0.4033  -21.2743  -46.4334 N.am      10 UNK        -0.5000 
     25 C           0.6763  -22.0615  -46.4035 C.2       9 UNK         0.5000 
     26 O           1.0006  -22.8077  -47.3291 O.2       9 UNK        -0.5000 
     27 CA          1.5557  -21.9791  -45.1406 C.3       9 UNK         0.1400 
     28 CB          3.0464  -21.8382  -45.4926 C.3       9 UNK        -0.1800 
     29 N           1.1653  -20.8474  -44.2951 N.am      9 UNK        -0.5000 
     30 C           0.5753  -20.9509  -43.0989 C.2       8 UNK         0.5000 
     31 O           0.3248  -22.0231  -42.5489 O.2       8 UNK        -0.5000 
     32 CA          0.1880  -19.6393  -42.3914 C.3       8 UNK         0.1400 
     33 CB          1.3412  -19.1502  -41.5020 C.3       8 UNK        -0.1800 
     34 N          -0.2346  -18.5473  -43.2733 N.am      8 UNK        -0.5000 
     35 C          -1.2974  -18.5619  -44.0924 C.2       7 UNK         0.5000 
     36 O          -1.9401  -19.5753  -44.3713 O.2       7 UNK        -0.5000 
     37 CA         -1.7027  -17.2158  -44.7130 C.3       7 UNK         0.1400 
     38 CB         -2.2105  -16.2506  -43.6320 C.3       7 UNK        -0.1800 
     39 N          -0.5583  -16.6305  -45.4021 N.am      7 UNK        -0.5000 
     40 C          -0.4823  -16.4195  -46.7225 C.2       6 UNK         0.5000 
     41 O          -1.4566  -16.4471  -47.4730 O.2       6 UNK        -0.5000 
     42 CA          0.9165  -16.1741  -47.3299 C.3       6 UNK         0.1400 
     43 CB          1.0091  -14.7609  -47.9159 C.3       6 UNK        -0.1800 
     44 N           2.0268  -16.3788  -46.3950 N.am      6 UNK        -0.5000 
     45 C           2.3767  -17.5571  -45.8567 C.2       5 UNK         0.5000 
     46 O           1.8087  -18.6193  -46.1052 O.2       5 UNK        -0.5000 
     47 CA          3.4882  -17.5400  -44.7917 C.3       5 UNK         0.1400 
     48 CB          4.8536  -17.8058  -45.4408 C.3       5 UNK        -0.1800 
     49 N           3.5514  -16.2962  -44.0188 N.am      5 UNK        -0.5000 
     50 C           2.5483  -15.7516  -43.3141 C.2       4 UNK         0.5000 
     51 O           1.4302  -16.2601  -43.2126 O.2       4 UNK        -0.5000 
     52 CA          2.8142  -14.3875  -42.6489 C.3       4 UNK         0.1400 
     53 CB          4.3133  -14.0642  -42.4630 C.3       4 UNK        -0.1800 
     54 N           2.1446  -13.2942  -43.3600 N.am      4 UNK        -0.5000 
     55 C           2.2668  -12.9534  -44.6508 C.2       3 UNK         0.5000 
     56 O           2.9417  -13.5847  -45.4674 O.2       3 UNK        -0.5000 
     57 CA          1.4935  -11.6913  -45.0897 C.3       3 UNK         0.1400 
     58 CB          1.9408  -11.1663  -46.4657 C.3       3 UNK        -0.1800 
     59 N           0.0414  -11.8955  -45.0942 N.am      3 UNK        -0.5000 
     60 C          -0.7301  -11.9107  -43.9955 C.2       2 UNK         0.5000 
     61 O          -0.2710  -11.7940  -42.8573 O.2       2 UNK        -0.5000 
     62 CA         -2.2544  -12.0594  -44.1755 C.3       2 UNK         0.1400 
     63 CB         -3.0301  -11.0862  -43.2698 C.3       2 UNK        -0.1800 
     64 N          -2.6722  -11.8377  -45.5597 N.am      2 UNK        -0.5000 
     65 C          -3.3549  -12.7055  -46.3182 C.2       1 UNK         0.5000 
     66 O          -3.7296  -13.8090  -45.9227 O.2       1 UNK        -0.5000 
     67 C          -5.2488  -21.5052  -45.1789 C.2       11 UNK         0.5000 
     68 O          -6.2557  -22.1936  -45.0065 O.2       11 UNK        -0.5000 
     69 N          -4.3050  -21.3340  -44.2426 N.am      12 UNK        -0.5000 
     70 CA         -4.3397  -21.9704  -42.9249 C.3       12 UNK         0.1400 
     71 CB         -3.5470  -21.1028  -41.9372 C.3       12 UNK        -0.1800 
     72 C          -3.7903  -23.4119  -42.9222 C.2       12 UNK         0.5000 
     73 O          -4.0081  -24.1247  -41.9409 O.2       12 UNK        -0.5000 
     74 N          -3.0772  -23.8170  -43.9813 N.am      13 UNK        -0.5000 
     75 CA         -2.4555  -25.1336  -44.1057 C.3       13 UNK         0.1400 
     76 CB         -1.0730  -24.9667  -44.7555 C.3       13 UNK        -0.1800 
     77 C          -3.3315  -26.0774  -44.9437 C.2       13 UNK         0.5000 
     78 O          -4.0880  -25.6247  -45.8048 O.2       13 UNK        -0.5000 
     79 N          -3.1836  -27.3860  -44.7013 N.am      14 UNK        -0.5000 
     80 CA         -3.8617  -28.4404  -45.4595 C.3       14 UNK         0.1400 
     81 CB         -3.8257  -29.7492  -44.6553 C.3       14 UNK        -0.1800 
     82 C          -3.2453  -28.6442  -46.8563 C.2       14 UNK         0.5000 
     83 O          -3.9781  -28.8931  -47.8142 O.2       14 UNK        -0.5000 
     84 N          -1.9117  -28.5303  -46.9454 N.am      15 UNK        -0.5000 
     85 CA         -1.1536  -28.6486  -48.1933 C.3       15 UNK         0.1400 
     86 CB          0.3190  -28.9394  -47.8631 C.3       15 UNK        -0.1800 
     87 C          -1.2648  -27.3901  -49.0729 C.2       15 UNK         0.5000 
     88 O          -1.2665  -27.5068  -50.2986 O.2       15 UNK        -0.5000 
     89 N          -1.3494  -26.2201  -48.4203 N.am      16 UNK        -0.5000 
     90 CA         -1.4698  -24.8776  -49.0006 C.3       16 UNK         0.1400 
     91 CB         -2.8739  -24.6782  -49.6045 C.3       16 UNK        -0.1800 
     92 C          -0.3314  -24.5163  -49.9784 C.2       16 UNK         0.5000 
     93 O          -0.5678  -23.8702  -51.0009 O.2       16 UNK        -0.5000 
     94 N           0.8935  -24.9386  -49.6377 N.am      17 UNK        -0.5000 
     95 CA          2.1008  -24.8123  -50.4558 C.3       17 UNK         0.1400 
     96 CB          3.2732  -25.4744  -49.7164 C.3       17 UNK        -0.1800 
     97 C           2.4611  -23.3681  -50.8533 C.2       17 UNK         0.5000 
     98 O           2.9473  -23.1557  -51.9647 O.2       17 UNK        -0.5000 
     99 N           2.2031  -22.4047  -49.9587 N.am      18 UNK        -0.5000 
    100 CA         2.4660  -20.9843  -50.1955 C.3       18 UNK         0.1400 
    101 CB         2.8454  -20.3097  -48.8697 C.3       18 UNK        -0.1800 
    102 C          1.2888  -20.2491  -50.8641 C.2       18 UNK         0.5000 
    103 O          1.4564  -19.0833  -51.2240 O.2       18 UNK        -0.5000 
    104 N          0.1257  -20.9048  -51.0187 N.am      19 UNK        -0.5000 
    105 CA        -1.0366  -20.3180  -51.6915 C.3       19 UNK         0.1400 
    106 CB        -2.3165  -21.1066  -51.3654 C.3       19 UNK        -0.1800 
    107 C         -0.8276  -20.2557  -53.2111 C.2       19 UNK         0.5000 
    108 O         -1.1225  -19.2279  -53.8193 O.2       19 UNK        -0.5000 
    109 N         -0.3350  -21.3651  -53.7883 N.am      20 UNK        -0.5000 
    110 CA        -0.0175  -21.5619  -55.2113 C.3       20 UNK         0.1400 
    111 CB         1.2582  -20.7752  -55.5749 C.3       20 UNK        -0.1800 
    112 C         -1.1988  -21.2472  -56.1593 C.2       20 UNK         0.5000 
    113 O         -0.9943  -20.7088  -57.2498 O.2       20 UNK        -0.5000 
    114 N         -2.4251  -21.5272  -55.6867 N.am      21 UNK        -0.5000 
    115 CA        -3.7188  -21.1845  -56.2975 C.3       21 UNK         0.1400 
    116 CB        -3.9483  -22.0218  -57.5728 C.3       21 UNK        -0.1800 
    117 C         -3.9147  -19.6679  -56.5433 C.2       21 UNK         0.5000 
    118 O         -4.7174  -19.2851  -57.3963 O.2       21 UNK        -0.5000 
    119 N         -3.1632  -18.8376  -55.8065 N.am      22 UNK        -0.5000 
    120 CA        -3.0254  -17.3830  -55.9721 C.3       22 UNK         0.1400 
    121 C         -2.3567  -16.9531  -57.3153 C.2       22 UNK         0.5000 
    122 N         -1.6341  -17.8283  -58.0073 N.am      22 UNK        -0.7600 
    123 O         -2.4642  -15.8012  -57.7277 O.2       22 UNK        -0.5000 
    124 C124       -4.3251  -16.5930  -55.6524 C.3       23 UNK        -0.0398 
    125 S125       -5.0055  -16.9497  -53.9942 S.3       23 UNK        -0.2404 
    126 C126       -3.8847  -15.9818  -52.9350 C.3       23 UNK        -0.0205 
    127 H127       -1.7069   -9.1943  -49.3932 H         1 UNK         0.0600 
    128 H128       -0.2898   -9.4117  -48.3614 H         1 UNK         0.0600 
    129 H129       -0.3583  -10.1913  -49.9450 H         1 UNK         0.0600 
    130 H130       -3.4285  -10.3510  -48.5879 H         1 UNK         0.3000 
    131 H131       -3.4972  -13.1297  -48.3993 H         1 UNK         0.0600 
    132 H132       -5.8129  -12.7711  -47.4420 H         1 UNK         0.0800 
    133 H133       -5.4612  -11.0793  -47.2480 H         1 UNK         0.0800 
    134 H134       -7.3343  -12.9250  -50.8417 H         1 UNK         0.0800 
    135 H135       -7.4885  -13.2736  -49.1420 H         1 UNK         0.0800 
    136 H136       -5.4473  -13.8907  -52.1855 H         1 UNK         0.1150 
    137 H137       -3.7079  -17.5048  -50.6643 H         1 UNK         0.1150 
    138 H138       -6.1556  -15.0674  -48.1256 H         1 UNK         0.1150 
    139 H139       -3.7024  -17.7738  -48.1511 H         1 UNK         0.0800 
    140 H140       -4.8090  -16.8424  -47.1707 H         1 UNK         0.0800 
    141 H141       -6.8552  -19.6084  -46.2231 H         1 UNK         0.0800 
    142 H142       -5.3867  -18.7451  -45.8566 H         1 UNK         0.0800 
    143 H143       -5.4932  -21.4531  -47.2911 H         1 UNK         0.0600 
    144 H144       -3.3900  -19.6595  -47.1592 H         1 UNK         0.3000 
    145 H145       -1.0575  -21.7831  -48.3715 H         1 UNK         0.0600 
    146 H146       -1.5210  -18.9885  -47.2221 H         1 UNK         0.0600 
    147 H147       -0.2632  -19.4110  -48.3676 H         1 UNK         0.0600 
    148 H148       -1.9479  -19.4818  -48.8557 H         1 UNK         0.0600 
    149 H149       -0.6311  -20.7427  -45.6020 H         1 UNK         0.3000 
    150 H150        1.4288  -22.9238  -44.6102 H         1 UNK         0.0600 
    151 H151        3.3821  -22.6508  -46.1382 H         1 UNK         0.0600 
    152 H152        3.6630  -21.8640  -44.5941 H         1 UNK         0.0600 
    153 H153        3.2523  -20.9004  -46.0069 H         1 UNK         0.0600 
    154 H154        1.3019  -19.9302  -44.7098 H         1 UNK         0.3000 
    155 H155       -0.6536  -19.8606  -41.7342 H         1 UNK         0.0600 
    156 H156        1.0488  -18.2741  -40.9229 H         1 UNK         0.0600 
    157 H157        2.2198  -18.8842  -42.0885 H         1 UNK         0.0600 
    158 H158        1.6425  -19.9219  -40.7924 H         1 UNK         0.0600 
    159 H159        0.2634  -17.6697  -43.1435 H         1 UNK         0.3000 
    160 H160       -2.5222  -17.4081  -45.4086 H         1 UNK         0.0600 
    161 H161       -1.4182  -15.9455  -42.9473 H         1 UNK         0.0600 
    162 H162       -3.0049  -16.7065  -43.0396 H         1 UNK         0.0600 
    163 H163       -2.6237  -15.3527  -44.0856 H         1 UNK         0.0600 
    164 H164        0.2934  -16.5547  -44.8580 H         1 UNK         0.3000 
    165 H165        1.0392  -16.8890  -48.1464 H         1 UNK         0.0600 
    166 H166        0.8057  -14.0106  -47.1536 H         1 UNK         0.0600 
    167 H167        1.9951  -14.5617  -48.3355 H         1 UNK         0.0600 
    168 H168        0.2787  -14.6190  -48.7135 H         1 UNK         0.0600 
    169 H169        2.5186  -15.5428  -46.0956 H         1 UNK         0.3000 
    170 H170        3.2821  -18.3529  -44.0943 H         1 UNK         0.0600 
    171 H171        4.8414  -18.7369  -46.0096 H         1 UNK         0.0600 
    172 H172        5.1352  -17.0057  -46.1266 H         1 UNK         0.0600 
    173 H173        5.6376  -17.8966  -44.6888 H         1 UNK         0.0600 
    174 H174        4.4176  -15.7805  -44.0755 H         1 UNK         0.3000 
    175 H175        2.3615  -14.4393  -41.6577 H         1 UNK         0.0600 
    176 H176        4.8240  -14.8610  -41.9204 H         1 UNK         0.0600 
    177 H177        4.8297  -13.9218  -43.4129 H         1 UNK         0.0600 
    178 H178        4.4417  -13.1505  -41.8825 H         1 UNK         0.0600 
    179 H179        1.4795  -12.7562  -42.8126 H         1 UNK         0.3000 
    180 H180        1.7285  -10.9088  -44.3648 H         1 UNK         0.0600 
    181 H181        1.7338  -11.8771  -47.2649 H         1 UNK         0.0600 
    182 H182        3.0133  -10.9683  -46.4765 H         1 UNK         0.0600 
    183 H183        1.4375  -10.2316  -46.7118 H         1 UNK         0.0600 
    184 H184       -0.3863  -12.0470  -46.0013 H         1 UNK         0.3000 
    185 H185       -2.4979  -13.0740  -43.8601 H         1 UNK         0.0600 
    186 H186       -4.1063  -11.2149  -43.3859 H         1 UNK         0.0600 
    187 H187       -2.7988  -11.2545  -42.2172 H         1 UNK         0.0600 
    188 H188       -2.7901  -10.0472  -43.4985 H         1 UNK         0.0600 
    189 H189       -2.4056  -10.9549  -45.9723 H         1 UNK         0.3000 
    190 H190       -3.4975  -20.7499  -44.4427 H         1 UNK         0.3000 
    191 H191       -5.3738  -22.0110  -42.5762 H         1 UNK         0.0600 
    192 H192       -3.8886  -20.0676  -41.9481 H         1 UNK         0.0600 
    193 H193       -3.6543  -21.4732  -40.9170 H         1 UNK         0.0600 
    194 H194       -2.4854  -21.1128  -42.1774 H         1 UNK         0.0600 
    195 H195       -3.0428  -23.2342  -44.8116 H         1 UNK         0.3000 
    196 H196       -2.3127  -25.5771  -43.1180 H         1 UNK         0.0600 
    197 H197       -0.5659  -25.9262  -44.8629 H         1 UNK         0.0600 
    198 H198       -0.4346  -24.3315  -44.1424 H         1 UNK         0.0600 
    199 H199       -1.1419  -24.5158  -45.7451 H         1 UNK         0.0600 
    200 H200       -2.5555  -27.6865  -43.9696 H         1 UNK         0.3000 
    201 H201       -4.9077  -28.1561  -45.5943 H         1 UNK         0.0600 
    202 H202       -4.3210  -29.6328  -43.6912 H         1 UNK         0.0600 
    203 H203       -2.8041  -30.0834  -44.4702 H         1 UNK         0.0600 
    204 H204       -4.3408  -30.5489  -45.1893 H         1 UNK         0.0600 
    205 H205       -1.3845  -28.3516  -46.1040 H         1 UNK         0.3000 
    206 H206       -1.5470  -29.4924  -48.7645 H         1 UNK         0.0600 
    207 H207        0.4204  -29.8675  -47.3002 H         1 UNK         0.0600 
    208 H208        0.9092  -29.0476  -48.7742 H         1 UNK         0.0600 
    209 H209        0.7686  -28.1387  -47.2745 H         1 UNK         0.0600 
    210 H210       -1.3565  -26.2568  -47.4127 H         1 UNK         0.3000 
    211 H211       -1.3631  -24.1872  -48.1670 H         1 UNK         0.0600 
    212 H212       -3.0322  -25.3113  -50.4779 H         1 UNK         0.0600 
    213 H213       -3.0259  -23.6443  -49.9132 H         1 UNK         0.0600 
    214 H214       -3.6490  -24.9106  -48.8735 H         1 UNK         0.0600 
    215 H215        0.9991  -25.4198  -48.7573 H         1 UNK         0.3000 
    216 H216        1.9232  -25.3675  -51.3790 H         1 UNK         0.0600 
    217 H217        3.0737  -26.5286  -49.5227 H         1 UNK         0.0600 
    218 H218        3.4699  -24.9875  -48.7602 H         1 UNK         0.0600 
    219 H219        4.1888  -25.4213  -50.3070 H         1 UNK         0.0600 
    220 H220        1.7909  -22.6548  -49.0624 H         1 UNK         0.3000 
    221 H221        3.3234  -20.8842  -50.8644 H         1 UNK         0.0600 
    222 H222        2.0094  -20.3000  -48.1736 H         1 UNK         0.0600 
    223 H223        3.6821  -20.8192  -48.3926 H         1 UNK         0.0600 
    224 H224        3.1444  -19.2726  -49.0264 H         1 UNK         0.0600 
    225 H225        0.0681  -21.8839  -50.7646 H         1 UNK         0.3000 
    226 H226       -1.1704  -19.2979  -51.3242 H         1 UNK         0.0600 
    227 H227       -2.4608  -21.2264  -50.2941 H         1 UNK         0.0600 
    228 H228       -3.1946  -20.5877  -51.7520 H         1 UNK         0.0600 
    229 H229       -2.3095  -22.1010  -51.8115 H         1 UNK         0.0600 
    230 H230       -0.1448  -22.1560  -53.1875 H         1 UNK         0.3000 
    231 H231        0.1990  -22.6235  -55.3374 H         1 UNK         0.0600 
    232 H232        2.0807  -21.0295  -54.9062 H         1 UNK         0.0600 
    233 H233        1.0980  -19.6981  -55.5140 H         1 UNK         0.0600 
    234 H234        1.5851  -21.0022  -56.5903 H         1 UNK         0.0600 
    235 H235       -2.4792  -21.9550  -54.7733 H         1 UNK         0.3000 
    236 H236       -4.4824  -21.4702  -55.5728 H         1 UNK         0.0600 
    237 H237       -4.9617  -21.8890  -57.9532 H         1 UNK         0.0600 
    238 H238       -3.2605  -21.7401  -58.3705 H         1 UNK         0.0600 
    239 H239       -3.8156  -23.0855  -57.3753 H         1 UNK         0.0600 
    240 H240       -2.5180  -19.2349  -55.1305 H         1 UNK         0.3000 
    241 H241       -2.2926  -17.0897  -55.2203 H         1 UNK         0.0600 
    242 H242       -1.5126  -18.7824  -57.6841 H         1 UNK         0.3800 
    243 H243       -1.1985  -17.5371  -58.8679 H         1 UNK         0.3800 
    244 H244       -4.1515  -15.5182  -55.7233 H         1 UNK         0.0800 
    245 H245       -5.0946  -16.8176  -56.3918 H         1 UNK         0.0800 
    246 H246       -2.9398  -16.5167  -52.8247 H         1 UNK         0.0800 
    247 H247       -3.6478  -15.0306  -53.4139 H         1 UNK         0.0800 
@<TRIPOS>BOND
     1    1    2 1    
     2    1  127 1    
     3    1  128 1    
     4    1  129 1    
     5    2    3 2    
     6    2    4 am   BACKBONE|DICT|INTERRES
     7    4    5 1    
     8    4  130 1    
     9    5    6 1    
    10    5   65 1    
    11    5  131 1    
    12    6    7 1    
    13    6  132 1    
    14    6  133 1    
    15    7    8 1    
    16    8    9 1    
    17    8  134 1    
    18    8  135 1    
    19    9   10 ar   
    20    9   14 ar   
    21   10   11 ar   
    22   10  136 1    
    23   11   12 ar   
    24   11  126 1    
    25   12   13 ar   
    26   12  137 1    
    27   13   14 ar   
    28   13   15 1    
    29   14  138 1    
    30   15   16 1    
    31   15  139 1    
    32   15  140 1    
    33   16   17 1    
    34   17   18 1    
    35   17  141 1    
    36   17  142 1    
    37   18   19 1    
    38   18   67 1    
    39   18  143 1    
    40   19   20 am   BACKBONE|DICT|INTERRES
    41   19  144 1    
    42   20   21 2    
    43   20   22 1    
    44   22   23 1    
    45   22   24 1    
    46   22  145 1    
    47   23  146 1    
    48   23  147 1    
    49   23  148 1    
    50   24   25 am   BACKBONE|DICT|INTERRES
    51   24  149 1    
    52   25   26 2    
    53   25   27 1    
    54   27   28 1    
    55   27   29 1    
    56   27  150 1    
    57   28  151 1    
    58   28  152 1    
    59   28  153 1    
    60   29   30 am   BACKBONE|DICT|INTERRES
    61   29  154 1    
    62   30   31 2    
    63   30   32 1    
    64   32   33 1    
    65   32   34 1    
    66   32  155 1    
    67   33  156 1    
    68   33  157 1    
    69   33  158 1    
    70   34   35 am   BACKBONE|DICT|INTERRES
    71   34  159 1    
    72   35   36 2    
    73   35   37 1    
    74   37   38 1    
    75   37   39 1    
    76   37  160 1    
    77   38  161 1    
    78   38  162 1    
    79   38  163 1    
    80   39   40 am   BACKBONE|DICT|INTERRES
    81   39  164 1    
    82   40   41 2    
    83   40   42 1    
    84   42   43 1    
    85   42   44 1    
    86   42  165 1    
    87   43  166 1    
    88   43  167 1    
    89   43  168 1    
    90   44   45 am   BACKBONE|DICT|INTERRES
    91   44  169 1    
    92   45   46 2    
    93   45   47 1    
    94   47   48 1    
    95   47   49 1    
    96   47  170 1    
    97   48  171 1    
    98   48  172 1    
    99   48  173 1    
   100   49   50 am   BACKBONE|DICT|INTERRES
   101   49  174 1    
   102   50   51 2    
   103   50   52 1    
   104   52   53 1    
   105   52   54 1    
   106   52  175 1    
   107   53  176 1    
   108   53  177 1    
   109   53  178 1    
   110   54   55 am   BACKBONE|DICT|INTERRES
   111   54  179 1    
   112   55   56 2    
   113   55   57 1    
   114   57   58 1    
   115   57   59 1    
   116   57  180 1    
   117   58  181 1    
   118   58  182 1    
   119   58  183 1    
   120   59   60 am   BACKBONE|DICT|INTERRES
   121   59  184 1    
   122   60   61 2    
   123   60   62 1    
   124   62   63 1    
   125   62   64 1    
   126   62  185 1    
   127   63  186 1    
   128   63  187 1    
   129   63  188 1    
   130   64   65 am   BACKBONE|DICT|INTERRES
   131   64  189 1    
   132   65   66 2    
   133   67   68 2    
   134   67   69 am   BACKBONE|DICT|INTERRES
   135   69   70 1    
   136   69  190 1    
   137   70   71 1    
   138   70   72 1    
   139   70  191 1    
   140   71  192 1    
   141   71  193 1    
   142   71  194 1    
   143   72   73 2    
   144   72   74 am   BACKBONE|DICT|INTERRES
   145   74   75 1    
   146   74  195 1    
   147   75   76 1    
   148   75   77 1    
   149   75  196 1    
   150   76  197 1    
   151   76  198 1    
   152   76  199 1    
   153   77   78 2    
   154   77   79 am   BACKBONE|DICT|INTERRES
   155   79   80 1    
   156   79  200 1    
   157   80   81 1    
   158   80   82 1    
   159   80  201 1    
   160   81  202 1    
   161   81  203 1    
   162   81  204 1    
   163   82   83 2    
   164   82   84 am   BACKBONE|DICT|INTERRES
   165   84   85 1    
   166   84  205 1    
   167   85   86 1    
   168   85   87 1    
   169   85  206 1    
   170   86  207 1    
   171   86  208 1    
   172   86  209 1    
   173   87   88 2    
   174   87   89 am   BACKBONE|DICT|INTERRES
   175   89   90 1    
   176   89  210 1    
   177   90   91 1    
   178   90   92 1    
   179   90  211 1    
   180   91  212 1    
   181   91  213 1    
   182   91  214 1    
   183   92   93 2    
   184   92   94 am   BACKBONE|DICT|INTERRES
   185   94   95 1    
   186   94  215 1    
   187   95   96 1    
   188   95   97 1    
   189   95  216 1    
   190   96  217 1    
   191   96  218 1    
   192   96  219 1    
   193   97   98 2    
   194   97   99 am   BACKBONE|DICT|INTERRES
   195   99  100 1    
   196   99  220 1    
   197  100  101 1    
   198  100  102 1    
   199  100  221 1    
   200  101  222 1    
   201  101  223 1    
   202  101  224 1    
   203  102  103 2    
   204  102  104 am   BACKBONE|DICT|INTERRES
   205  104  105 1    
   206  104  225 1    
   207  105  106 1    
   208  105  107 1    
   209  105  226 1    
   210  106  227 1    
   211  106  228 1    
   212  106  229 1    
   213  107  108 2    
   214  107  109 am   BACKBONE|DICT|INTERRES
   215  109  110 1    
   216  109  230 1    
   217  110  111 1    
   218  110  112 1    
   219  110  231 1    
   220  111  232 1    
   221  111  233 1    
   222  111  234 1    
   223  112  113 2    
   224  112  114 am   BACKBONE|DICT|INTERRES
   225  114  115 1    
   226  114  235 1    
   227  115  116 1    
   228  115  117 1    
   229  115  236 1    
   230  116  237 1    
   231  116  238 1    
   232  116  239 1    
   233  117  118 2    
   234  117  119 am   BACKBONE|DICT|INTERRES
   235  119  120 1    
   236  119  240 1    
   237  120  121 1    
   238  120  124 1    
   239  120  241 1    
   240  121  122 am   BACKBONE|DICT|INTERRES
   241  121  123 2    
   242  122  242 1    
   243  122  243 1    
   244  124  125 1    
   245  124  244 1    
   246  124  245 1    
   247  125  126 1    
   248  126  246 1    
   249  126  247 1    
@<TRIPOS>SUBSTRUCTURE
     1 UNK         1 GROUP             0       ****    0 ROOT    
