@<TRIPOS>MOLECULE
3R540
247   249    1
SMALL
USER_CHARGES


@<TRIPOS>ATOM
      1 CA         -4.4231  -13.4701  -52.1810 C.3       0 UNK        -0.1800 
      2 C          -3.3637  -13.1331  -51.1408 C.2       0 UNK         0.5000 
      3 O          -3.2374  -11.9736  -50.7454 O.2       0 UNK        -0.5000 
      4 N          -2.6036  -14.1397  -50.7004 N.am      1 UNK        -0.5000 
      5 CA         -1.6007  -14.0417  -49.6382 C.3       1 UNK         0.1400 
      6 C6         -0.5743  -15.1993  -49.7127 C.3       23 UNK        -0.0398 
      7 S7          0.3539  -15.1772  -51.2893 S.3       23 UNK        -0.2404 
      8 C8          2.0822  -15.3417  -50.7441 C.3       23 UNK        -0.0205 
      9 C9          2.5141  -16.7984  -50.6465 C.ar      23 UNK        -0.0193 
     10 C10         3.2361  -17.3902  -51.6887 C.ar      23 UNK        -0.1150 
     11 C11         3.6824  -18.7117  -51.5841 C.ar      23 UNK        -0.0193 
     12 C12         3.3888  -19.4472  -50.4331 C.ar      23 UNK        -0.1150 
     13 C13         2.6573  -18.8716  -49.3923 C.ar      23 UNK        -0.0193 
     14 C14         2.2257  -17.5464  -49.5019 C.ar      23 UNK        -0.1150 
     15 C15         2.3586  -19.6664  -48.1346 C.3       23 UNK        -0.0205 
     16 S16         0.7387  -20.4833  -48.2246 S.3       23 UNK        -0.2404 
     17 C17         1.1656  -22.0824  -48.9961 C.3       23 UNK        -0.0398 
     18 CA          0.7996  -23.3066  -48.1150 C.3       11 UNK         0.1400 
     19 N           1.5266  -23.2819  -46.8403 N.am      11 UNK        -0.5000 
     20 C           1.8529  -24.3653  -46.1255 C.2       10 UNK         0.5000 
     21 O           1.7200  -25.5169  -46.5455 O.2       10 UNK        -0.5000 
     22 CA          2.3801  -24.1224  -44.6936 C.3       10 UNK         0.1400 
     23 CB          3.1645  -25.3263  -44.1305 C.3       10 UNK        -0.1800 
     24 N           3.1492  -22.8845  -44.5197 N.am      10 UNK        -0.5000 
     25 C           4.3114  -22.5520  -45.1040 C.2       9 UNK         0.5000 
     26 O           4.8529  -23.2260  -45.9808 O.2       9 UNK        -0.5000 
     27 CA          5.0112  -21.2685  -44.6060 C.3       9 UNK         0.1400 
     28 CB          5.1527  -20.2218  -45.7217 C.3       9 UNK        -0.1800 
     29 N           4.3199  -20.6537  -43.4709 N.am      9 UNK        -0.5000 
     30 C           4.5993  -20.8894  -42.1811 C.2       8 UNK         0.5000 
     31 O           5.5188  -21.6167  -41.8043 O.2       8 UNK        -0.5000 
     32 CA          3.6934  -20.2158  -41.1293 C.3       8 UNK         0.1400 
     33 CB          4.3536  -18.9386  -40.5891 C.3       8 UNK        -0.1800 
     34 N           2.3579  -19.8905  -41.6365 N.am      8 UNK        -0.5000 
     35 C           1.4250  -20.8014  -41.9516 C.2       7 UNK         0.5000 
     36 O           1.5865  -22.0138  -41.8118 O.2       7 UNK        -0.5000 
     37 CA          0.1139  -20.2890  -42.5801 C.3       7 UNK         0.1400 
     38 CB         -0.9762  -20.1443  -41.5084 C.3       7 UNK        -0.1800 
     39 N           0.2483  -19.0277  -43.3156 N.am      7 UNK        -0.5000 
     40 C           1.0603  -18.8385  -44.3662 C.2       6 UNK         0.5000 
     41 O           1.7924  -19.7188  -44.8191 O.2       6 UNK        -0.5000 
     42 CA          1.1034  -17.4290  -44.9860 C.3       6 UNK         0.1400 
     43 CB          0.0751  -17.2815  -46.1172 C.3       6 UNK        -0.1800 
     44 N           0.8906  -16.3493  -44.0245 N.am      6 UNK        -0.5000 
     45 C           1.6726  -16.0698  -42.9733 C.2       5 UNK         0.5000 
     46 O           2.6464  -16.7460  -42.6421 O.2       5 UNK        -0.5000 
     47 CA          1.2837  -14.8330  -42.1490 C.3       5 UNK         0.1400 
     48 CB          1.6975  -13.5427  -42.8745 C.3       5 UNK        -0.1800 
     49 N          -0.1565  -14.8079  -41.9029 N.am      5 UNK        -0.5000 
     50 C          -0.7505  -15.3755  -40.8452 C.2       4 UNK         0.5000 
     51 O          -0.1382  -15.9166  -39.9238 O.2       4 UNK        -0.5000 
     52 CA         -2.2914  -15.3439  -40.8094 C.3       4 UNK         0.1400 
     53 CB         -2.7858  -14.1010  -40.0538 C.3       4 UNK        -0.1800 
     54 N          -2.9152  -15.3765  -42.1342 N.am      4 UNK        -0.5000 
     55 C          -2.8294  -16.4029  -42.9910 C.2       3 UNK         0.5000 
     56 O          -2.1907  -17.4300  -42.7693 O.2       3 UNK        -0.5000 
     57 CA         -3.5400  -16.2339  -44.3452 C.3       3 UNK         0.1400 
     58 CB         -5.0198  -16.6280  -44.2305 C.3       3 UNK        -0.1800 
     59 N          -3.4332  -14.8960  -44.9344 N.am      3 UNK        -0.5000 
     60 C          -2.2933  -14.2313  -45.1701 C.2       2 UNK         0.5000 
     61 O          -1.1841  -14.5930  -44.7733 O.2       2 UNK        -0.5000 
     62 CA         -2.4072  -12.9545  -46.0202 C.3       2 UNK         0.1400 
     63 CB         -1.6876  -11.7768  -45.3427 C.3       2 UNK        -0.1800 
     64 N          -1.8519  -13.1494  -47.3619 N.am      2 UNK        -0.5000 
     65 C          -2.3153  -14.0183  -48.2720 C.2       1 UNK         0.5000 
     66 O          -3.2669  -14.7773  -48.0725 O.2       1 UNK        -0.5000 
     67 C          -0.7261  -23.4345  -47.8691 C.2       11 UNK         0.5000 
     68 O          -1.1648  -23.5695  -46.7225 O.2       11 UNK        -0.5000 
     69 N          -1.5293  -23.3246  -48.9384 N.am      12 UNK        -0.5000 
     70 CA         -2.9979  -23.2568  -48.9167 C.3       12 UNK         0.1400 
     71 CB         -3.5212  -23.5625  -50.3330 C.3       12 UNK        -0.1800 
     72 C          -3.5308  -21.9056  -48.3770 C.2       12 UNK         0.5000 
     73 O          -4.3974  -21.2845  -48.9959 O.2       12 UNK        -0.5000 
     74 N          -2.9703  -21.4564  -47.2502 N.am      13 UNK        -0.5000 
     75 CA         -3.1624  -20.1554  -46.6189 C.3       13 UNK         0.1400 
     76 CB         -2.1907  -20.0511  -45.4352 C.3       13 UNK        -0.1800 
     77 C          -4.6152  -19.9152  -46.1850 C.2       13 UNK         0.5000 
     78 O          -5.3016  -19.0854  -46.7774 O.2       13 UNK        -0.5000 
     79 N          -5.0733  -20.6739  -45.1825 N.am      14 UNK        -0.5000 
     80 CA         -6.4464  -20.6076  -44.6763 C.3       14 UNK         0.1400 
     81 CB         -6.5096  -21.3162  -43.3148 C.3       14 UNK        -0.1800 
     82 C          -7.4753  -21.2110  -45.6528 C.2       14 UNK         0.5000 
     83 O          -8.6557  -20.8686  -45.5788 O.2       14 UNK        -0.5000 
     84 N          -7.0101  -22.1038  -46.5366 N.am      15 UNK        -0.5000 
     85 CA         -7.8268  -22.8012  -47.5234 C.3       15 UNK         0.1400 
     86 CB         -7.0668  -24.0389  -48.0256 C.3       15 UNK        -0.1800 
     87 C          -8.2450  -21.9069  -48.7028 C.2       15 UNK         0.5000 
     88 O          -9.4100  -21.9543  -49.1008 O.2       15 UNK        -0.5000 
     89 N          -7.2971  -21.1409  -49.2629 N.am      16 UNK        -0.5000 
     90 CA         -7.4833  -20.4503  -50.5407 C.3       16 UNK         0.1400 
     91 CB         -7.1985  -21.4443  -51.6870 C.3       16 UNK        -0.1800 
     92 C          -6.6374  -19.1732  -50.6888 C.2       16 UNK         0.5000 
     93 O          -6.4823  -18.7036  -51.8153 O.2       16 UNK        -0.5000 
     94 N          -6.0674  -18.6367  -49.5973 N.am      17 UNK        -0.5000 
     95 CA         -5.1548  -17.4788  -49.5914 C.3       17 UNK         0.1400 
     96 CB         -5.9075  -16.1864  -49.9733 C.3       17 UNK        -0.1800 
     97 C          -3.8940  -17.7203  -50.4521 C.2       17 UNK         0.5000 
     98 O          -3.4151  -16.8103  -51.1290 O.2       17 UNK        -0.5000 
     99 N          -3.4204  -18.9749  -50.4449 N.am      18 UNK        -0.5000 
    100 CA        -2.3249  -19.5383  -51.2382 C.3       18 UNK         0.1400 
    101 CB        -0.9987  -18.7985  -50.9812 C.3       18 UNK        -0.1800 
    102 C         -2.6169  -19.6612  -52.7484 C.2       18 UNK         0.5000 
    103 O         -1.7392  -20.1266  -53.4754 O.2       18 UNK        -0.5000 
    104 N         -3.8236  -19.3056  -53.2186 N.am      19 UNK        -0.5000 
    105 CA        -4.1933  -19.3331  -54.6408 C.3       19 UNK         0.1400 
    106 CB        -5.5352  -18.6159  -54.8452 C.3       19 UNK        -0.1800 
    107 C         -4.2458  -20.7522  -55.2398 C.2       19 UNK         0.5000 
    108 O         -4.0123  -20.9153  -56.4372 O.2       19 UNK        -0.5000 
    109 N         -4.5207  -21.7517  -54.3914 N.am      20 UNK        -0.5000 
    110 CA        -4.4933  -23.1740  -54.7391 C.3       20 UNK         0.1400 
    111 CB        -5.4362  -23.9306  -53.7898 C.3       20 UNK        -0.1800 
    112 C         -3.0735  -23.7802  -54.6964 C.2       20 UNK         0.5000 
    113 O         -2.8975  -24.9178  -55.1347 O.2       20 UNK        -0.5000 
    114 N         -2.0991  -23.0320  -54.1621 N.am      21 UNK        -0.5000 
    115 CA        -0.6956  -23.4124  -54.0553 C.3       21 UNK         0.1400 
    116 CB        -0.2423  -23.2342  -52.5913 C.3       21 UNK        -0.1800 
    117 C          0.1115  -22.5750  -55.0623 C.2       21 UNK         0.5000 
    118 O          0.1724  -22.9395  -56.2376 O.2       21 UNK        -0.5000 
    119 N          0.7085  -21.4740  -54.5930 N.am      22 UNK        -0.5000 
    120 CA         1.4790  -20.5175  -55.4026 C.3       22 UNK         0.1400 
    121 C          0.6069  -19.6146  -56.3199 C.2       22 UNK         0.5000 
    122 N         -0.6603  -19.3843  -56.0038 N.am      22 UNK        -0.7600 
    123 O          1.0888  -19.1206  -57.3356 O.2       22 UNK        -0.5000 
    124 C124        2.4048  -19.6445  -54.5208 C.3       23 UNK        -0.0398 
    125 S125        3.6075  -20.6419  -53.5814 S.3       23 UNK        -0.2404 
    126 C126        4.5144  -19.3391  -52.6932 C.3       23 UNK        -0.0205 
    127 H127       -4.2739  -12.8704  -53.0787 H         1 UNK         0.0600 
    128 H128       -5.4168  -13.2576  -51.7868 H         1 UNK         0.0600 
    129 H129       -4.3893  -14.5223  -52.4659 H         1 UNK         0.0600 
    130 H130       -2.8090  -15.0887  -51.0091 H         1 UNK         0.3000 
    131 H131       -1.0600  -13.1007  -49.7616 H         1 UNK         0.0600 
    132 H132        0.1258  -15.1332  -48.8791 H         1 UNK         0.0800 
    133 H133       -1.0733  -16.1643  -49.6149 H         1 UNK         0.0800 
    134 H134        2.2350  -14.8354  -49.7902 H         1 UNK         0.0800 
    135 H135        2.7167  -14.8182  -51.4607 H         1 UNK         0.0800 
    136 H136        3.4664  -16.8149  -52.5744 H         1 UNK         0.1150 
    137 H137        3.7365  -20.4670  -50.3484 H         1 UNK         0.1150 
    138 H138        1.6703  -17.0953  -48.6928 H         1 UNK         0.1150 
    139 H139        3.1409  -20.4023  -47.9474 H         1 UNK         0.0800 
    140 H140        2.3680  -18.9922  -47.2801 H         1 UNK         0.0800 
    141 H141        2.2327  -22.1120  -49.2172 H         1 UNK         0.0800 
    142 H142        0.6785  -22.1318  -49.9695 H         1 UNK         0.0800 
    143 H143        1.0976  -24.2001  -48.6676 H         1 UNK         0.0600 
    144 H144        1.6370  -22.3725  -46.4142 H         1 UNK         0.3000 
    145 H145        1.4899  -24.0019  -44.0746 H         1 UNK         0.0600 
    146 H146        3.4931  -25.1384  -43.1082 H         1 UNK         0.0600 
    147 H147        2.5457  -26.2241  -44.1093 H         1 UNK         0.0600 
    148 H148        4.0465  -25.5509  -44.7310 H         1 UNK         0.0600 
    149 H149        2.7930  -22.2569  -43.8115 H         1 UNK         0.3000 
    150 H150        6.0190  -21.5640  -44.3074 H         1 UNK         0.0600 
    151 H151        5.5627  -20.6582  -46.6333 H         1 UNK         0.0600 
    152 H152        5.8241  -19.4190  -45.4168 H         1 UNK         0.0600 
    153 H153        4.1950  -19.7694  -45.9682 H         1 UNK         0.0600 
    154 H154        3.5204  -20.0746  -43.7030 H         1 UNK         0.3000 
    155 H155        3.5775  -20.9151  -40.2986 H         1 UNK         0.0600 
    156 H156        5.3180  -19.1624  -40.1314 H         1 UNK         0.0600 
    157 H157        3.7346  -18.4635  -39.8278 H         1 UNK         0.0600 
    158 H158        4.5298  -18.2109  -41.3820 H         1 UNK         0.0600 
    159 H159        2.1679  -18.9134  -41.8201 H         1 UNK         0.3000 
    160 H160       -0.2115  -21.0489  -43.2932 H         1 UNK         0.0600 
    161 H161       -0.7640  -19.3175  -40.8292 H         1 UNK         0.0600 
    162 H162       -1.0640  -21.0514  -40.9090 H         1 UNK         0.0600 
    163 H163       -1.9507  -19.9652  -41.9625 H         1 UNK         0.0600 
    164 H164       -0.3657  -18.2718  -43.0287 H         1 UNK         0.3000 
    165 H165        2.0995  -17.2959  -45.4126 H         1 UNK         0.0600 
    166 H166       -0.9431  -17.3243  -45.7371 H         1 UNK         0.0600 
    167 H167        0.1946  -16.3298  -46.6345 H         1 UNK         0.0600 
    168 H168        0.1757  -18.0685  -46.8604 H         1 UNK         0.0600 
    169 H169        0.1148  -15.7227  -44.2291 H         1 UNK         0.3000 
    170 H170        1.8240  -14.8731  -41.2007 H         1 UNK         0.0600 
    171 H171        2.7709  -13.5316  -43.0677 H         1 UNK         0.0600 
    172 H172        1.1900  -13.4342  -43.8339 H         1 UNK         0.0600 
    173 H173        1.4660  -12.6632  -42.2736 H         1 UNK         0.0600 
    174 H174       -0.7359  -14.4412  -42.6474 H         1 UNK         0.3000 
    175 H175       -2.6232  -16.2298  -40.2638 H         1 UNK         0.0600 
    176 H176       -2.3593  -14.0581  -39.0507 H         1 UNK         0.0600 
    177 H177       -2.5077  -13.1803  -40.5684 H         1 UNK         0.0600 
    178 H178       -3.8704  -14.1110  -39.9438 H         1 UNK         0.0600 
    179 H179       -3.4465  -14.5637  -42.4098 H         1 UNK         0.3000 
    180 H180       -3.0733  -16.9223  -45.0489 H         1 UNK         0.0600 
    181 H181       -5.1258  -17.6275  -43.8063 H         1 UNK         0.0600 
    182 H182       -5.5731  -15.9387  -43.5917 H         1 UNK         0.0600 
    183 H183       -5.5011  -16.6417  -45.2088 H         1 UNK         0.0600 
    184 H184       -4.2860  -14.5227  -45.3252 H         1 UNK         0.3000 
    185 H185       -3.4618  -12.6914  -46.1254 H         1 UNK         0.0600 
    186 H186       -2.0754  -11.6085  -44.3372 H         1 UNK         0.0600 
    187 H187       -0.6148  -11.9540  -45.2544 H         1 UNK         0.0600 
    188 H188       -1.8293  -10.8527  -45.9034 H         1 UNK         0.0600 
    189 H189       -1.0558  -12.5745  -47.5958 H         1 UNK         0.3000 
    190 H190       -1.1058  -23.2062  -49.8451 H         1 UNK         0.3000 
    191 H191       -3.3701  -24.0348  -48.2473 H         1 UNK         0.0600 
    192 H192       -3.1876  -22.8203  -51.0587 H         1 UNK         0.0600 
    193 H193       -4.6111  -23.5752  -50.3562 H         1 UNK         0.0600 
    194 H194       -3.1829  -24.5402  -50.6766 H         1 UNK         0.0600 
    195 H195       -2.2791  -22.0658  -46.8209 H         1 UNK         0.3000 
    196 H196       -2.9000  -19.3841  -47.3463 H         1 UNK         0.0600 
    197 H197       -2.3249  -19.1195  -44.8887 H         1 UNK         0.0600 
    198 H198       -1.1593  -20.0841  -45.7836 H         1 UNK         0.0600 
    199 H199       -2.3199  -20.8669  -44.7236 H         1 UNK         0.0600 
    200 H200       -4.4568  -21.3452  -44.7485 H         1 UNK         0.3000 
    201 H201       -6.7113  -19.5586  -44.5274 H         1 UNK         0.0600 
    202 H202       -7.5140  -21.2620  -42.8925 H         1 UNK         0.0600 
    203 H203       -6.2443  -22.3709  -43.3966 H         1 UNK         0.0600 
    204 H204       -5.8318  -20.8529  -42.5976 H         1 UNK         0.0600 
    205 H205       -6.0250  -22.3171  -46.5220 H         1 UNK         0.3000 
    206 H206       -8.7379  -23.1473  -47.0301 H         1 UNK         0.0600 
    207 H207       -6.8482  -24.7261  -47.2081 H         1 UNK         0.0600 
    208 H208       -7.6565  -24.5875  -48.7613 H         1 UNK         0.0600 
    209 H209       -6.1231  -23.7691  -48.4982 H         1 UNK         0.0600 
    210 H210       -6.3449  -21.1738  -48.9108 H         1 UNK         0.3000 
    211 H211       -8.5196  -20.1170  -50.6242 H         1 UNK         0.0600 
    212 H212       -7.3660  -20.9914  -52.6649 H         1 UNK         0.0600 
    213 H213       -7.8473  -22.3182  -51.6286 H         1 UNK         0.0600 
    214 H214       -6.1661  -21.7932  -51.6549 H         1 UNK         0.0600 
    215 H215       -6.2055  -19.0733  -48.6929 H         1 UNK         0.3000 
    216 H216       -4.7982  -17.3514  -48.5696 H         1 UNK         0.0600 
    217 H217       -5.2783  -15.3101  -49.8195 H         1 UNK         0.0600 
    218 H218       -6.7982  -16.0540  -49.3596 H         1 UNK         0.0600 
    219 H219       -6.2152  -16.1850  -51.0192 H         1 UNK         0.0600 
    220 H220       -3.9209  -19.6547  -49.8781 H         1 UNK         0.3000 
    221 H221       -2.1982  -20.5575  -50.8736 H         1 UNK         0.0600 
    222 H222       -0.9740  -17.8336  -51.4863 H         1 UNK         0.0600 
    223 H223       -0.8370  -18.6257  -49.9179 H         1 UNK         0.0600 
    224 H224       -0.1487  -19.3746  -51.3490 H         1 UNK         0.0600 
    225 H225       -4.5216  -18.9421  -52.5792 H         1 UNK         0.3000 
    226 H226       -3.4318  -18.7738  -55.1873 H         1 UNK         0.0600 
    227 H227       -5.7588  -18.5061  -55.9070 H         1 UNK         0.0600 
    228 H228       -6.3601  -19.1695  -54.3958 H         1 UNK         0.0600 
    229 H229       -5.5223  -17.6166  -54.4095 H         1 UNK         0.0600 
    230 H230       -4.7091  -21.5197  -53.4281 H         1 UNK         0.3000 
    231 H231       -4.8693  -23.2991  -55.7567 H         1 UNK         0.0600 
    232 H232       -6.4527  -23.5415  -53.8504 H         1 UNK         0.0600 
    233 H233       -5.1090  -23.8578  -52.7533 H         1 UNK         0.0600 
    234 H234       -5.4811  -24.9903  -54.0445 H         1 UNK         0.0600 
    235 H235       -2.3071  -22.0732  -53.9127 H         1 UNK         0.3000 
    236 H236       -0.5527  -24.4613  -54.3228 H         1 UNK         0.0600 
    237 H237       -0.7574  -23.9438  -51.9442 H         1 UNK         0.0600 
    238 H238        0.8274  -23.4205  -52.4853 H         1 UNK         0.0600 
    239 H239       -0.4481  -22.2324  -52.2136 H         1 UNK         0.0600 
    240 H240        0.5691  -21.2212  -53.6264 H         1 UNK         0.3000 
    241 H241        2.1181  -21.0982  -56.0709 H         1 UNK         0.0600 
    242 H242       -1.0433  -19.7478  -55.1346 H         1 UNK         0.3800 
    243 H243       -1.2239  -18.8085  -56.6070 H         1 UNK         0.3800 
    244 H244        2.9638  -18.9360  -55.1348 H         1 UNK         0.0800 
    245 H245        1.8128  -19.0507  -53.8216 H         1 UNK         0.0800 
    246 H246        4.8556  -18.5835  -53.4026 H         1 UNK         0.0800 
    247 H247        5.4145  -19.7743  -52.2569 H         1 UNK         0.0800 
@<TRIPOS>BOND
     1    1    2 1    
     2    1  127 1    
     3    1  128 1    
     4    1  129 1    
     5    2    3 2    
     6    2    4 am   BACKBONE|DICT|INTERRES
     7    4    5 1    
     8    4  130 1    
     9    5    6 1    
    10    5   65 1    
    11    5  131 1    
    12    6    7 1    
    13    6  132 1    
    14    6  133 1    
    15    7    8 1    
    16    8    9 1    
    17    8  134 1    
    18    8  135 1    
    19    9   10 ar   
    20    9   14 ar   
    21   10   11 ar   
    22   10  136 1    
    23   11   12 ar   
    24   11  126 1    
    25   12   13 ar   
    26   12  137 1    
    27   13   14 ar   
    28   13   15 1    
    29   14  138 1    
    30   15   16 1    
    31   15  139 1    
    32   15  140 1    
    33   16   17 1    
    34   17   18 1    
    35   17  141 1    
    36   17  142 1    
    37   18   19 1    
    38   18   67 1    
    39   18  143 1    
    40   19   20 am   BACKBONE|DICT|INTERRES
    41   19  144 1    
    42   20   21 2    
    43   20   22 1    
    44   22   23 1    
    45   22   24 1    
    46   22  145 1    
    47   23  146 1    
    48   23  147 1    
    49   23  148 1    
    50   24   25 am   BACKBONE|DICT|INTERRES
    51   24  149 1    
    52   25   26 2    
    53   25   27 1    
    54   27   28 1    
    55   27   29 1    
    56   27  150 1    
    57   28  151 1    
    58   28  152 1    
    59   28  153 1    
    60   29   30 am   BACKBONE|DICT|INTERRES
    61   29  154 1    
    62   30   31 2    
    63   30   32 1    
    64   32   33 1    
    65   32   34 1    
    66   32  155 1    
    67   33  156 1    
    68   33  157 1    
    69   33  158 1    
    70   34   35 am   BACKBONE|DICT|INTERRES
    71   34  159 1    
    72   35   36 2    
    73   35   37 1    
    74   37   38 1    
    75   37   39 1    
    76   37  160 1    
    77   38  161 1    
    78   38  162 1    
    79   38  163 1    
    80   39   40 am   BACKBONE|DICT|INTERRES
    81   39  164 1    
    82   40   41 2    
    83   40   42 1    
    84   42   43 1    
    85   42   44 1    
    86   42  165 1    
    87   43  166 1    
    88   43  167 1    
    89   43  168 1    
    90   44   45 am   BACKBONE|DICT|INTERRES
    91   44  169 1    
    92   45   46 2    
    93   45   47 1    
    94   47   48 1    
    95   47   49 1    
    96   47  170 1    
    97   48  171 1    
    98   48  172 1    
    99   48  173 1    
   100   49   50 am   BACKBONE|DICT|INTERRES
   101   49  174 1    
   102   50   51 2    
   103   50   52 1    
   104   52   53 1    
   105   52   54 1    
   106   52  175 1    
   107   53  176 1    
   108   53  177 1    
   109   53  178 1    
   110   54   55 am   BACKBONE|DICT|INTERRES
   111   54  179 1    
   112   55   56 2    
   113   55   57 1    
   114   57   58 1    
   115   57   59 1    
   116   57  180 1    
   117   58  181 1    
   118   58  182 1    
   119   58  183 1    
   120   59   60 am   BACKBONE|DICT|INTERRES
   121   59  184 1    
   122   60   61 2    
   123   60   62 1    
   124   62   63 1    
   125   62   64 1    
   126   62  185 1    
   127   63  186 1    
   128   63  187 1    
   129   63  188 1    
   130   64   65 am   BACKBONE|DICT|INTERRES
   131   64  189 1    
   132   65   66 2    
   133   67   68 2    
   134   67   69 am   BACKBONE|DICT|INTERRES
   135   69   70 1    
   136   69  190 1    
   137   70   71 1    
   138   70   72 1    
   139   70  191 1    
   140   71  192 1    
   141   71  193 1    
   142   71  194 1    
   143   72   73 2    
   144   72   74 am   BACKBONE|DICT|INTERRES
   145   74   75 1    
   146   74  195 1    
   147   75   76 1    
   148   75   77 1    
   149   75  196 1    
   150   76  197 1    
   151   76  198 1    
   152   76  199 1    
   153   77   78 2    
   154   77   79 am   BACKBONE|DICT|INTERRES
   155   79   80 1    
   156   79  200 1    
   157   80   81 1    
   158   80   82 1    
   159   80  201 1    
   160   81  202 1    
   161   81  203 1    
   162   81  204 1    
   163   82   83 2    
   164   82   84 am   BACKBONE|DICT|INTERRES
   165   84   85 1    
   166   84  205 1    
   167   85   86 1    
   168   85   87 1    
   169   85  206 1    
   170   86  207 1    
   171   86  208 1    
   172   86  209 1    
   173   87   88 2    
   174   87   89 am   BACKBONE|DICT|INTERRES
   175   89   90 1    
   176   89  210 1    
   177   90   91 1    
   178   90   92 1    
   179   90  211 1    
   180   91  212 1    
   181   91  213 1    
   182   91  214 1    
   183   92   93 2    
   184   92   94 am   BACKBONE|DICT|INTERRES
   185   94   95 1    
   186   94  215 1    
   187   95   96 1    
   188   95   97 1    
   189   95  216 1    
   190   96  217 1    
   191   96  218 1    
   192   96  219 1    
   193   97   98 2    
   194   97   99 am   BACKBONE|DICT|INTERRES
   195   99  100 1    
   196   99  220 1    
   197  100  101 1    
   198  100  102 1    
   199  100  221 1    
   200  101  222 1    
   201  101  223 1    
   202  101  224 1    
   203  102  103 2    
   204  102  104 am   BACKBONE|DICT|INTERRES
   205  104  105 1    
   206  104  225 1    
   207  105  106 1    
   208  105  107 1    
   209  105  226 1    
   210  106  227 1    
   211  106  228 1    
   212  106  229 1    
   213  107  108 2    
   214  107  109 am   BACKBONE|DICT|INTERRES
   215  109  110 1    
   216  109  230 1    
   217  110  111 1    
   218  110  112 1    
   219  110  231 1    
   220  111  232 1    
   221  111  233 1    
   222  111  234 1    
   223  112  113 2    
   224  112  114 am   BACKBONE|DICT|INTERRES
   225  114  115 1    
   226  114  235 1    
   227  115  116 1    
   228  115  117 1    
   229  115  236 1    
   230  116  237 1    
   231  116  238 1    
   232  116  239 1    
   233  117  118 2    
   234  117  119 am   BACKBONE|DICT|INTERRES
   235  119  120 1    
   236  119  240 1    
   237  120  121 1    
   238  120  124 1    
   239  120  241 1    
   240  121  122 am   BACKBONE|DICT|INTERRES
   241  121  123 2    
   242  122  242 1    
   243  122  243 1    
   244  124  125 1    
   245  124  244 1    
   246  124  245 1    
   247  125  126 1    
   248  126  246 1    
   249  126  247 1    
@<TRIPOS>SUBSTRUCTURE
     1 UNK         1 GROUP             0       ****    0 ROOT    
