@<TRIPOS>MOLECULE
3R540
247   249    1
SMALL
USER_CHARGES


@<TRIPOS>ATOM
      1 CA          1.4600  -13.2124  -52.3103 C.3       0 UNK        -0.1800 
      2 C           1.9274  -12.6983  -50.9560 C.2       0 UNK         0.5000 
      3 O           1.6039  -11.5697  -50.5876 O.2       0 UNK        -0.5000 
      4 N           2.6732  -13.5208  -50.2054 N.am      1 UNK        -0.5000 
      5 CA          3.1902  -13.1979  -48.8686 C.3       1 UNK         0.1400 
      6 C6          4.5351  -13.9196  -48.5756 C.3       23 UNK        -0.0398 
      7 S7          4.4184  -15.7279  -48.3078 S.3       23 UNK        -0.2404 
      8 C8          5.0440  -16.4276  -49.8671 C.3       23 UNK        -0.0205 
      9 C9          4.0473  -17.4306  -50.4213 C.ar      23 UNK        -0.0193 
     10 C10         3.0362  -17.0017  -51.2808 C.ar      23 UNK        -0.1150 
     11 C11         2.0713  -17.8952  -51.7466 C.ar      23 UNK        -0.0193 
     12 C12         2.1312  -19.2372  -51.3595 C.ar      23 UNK        -0.1150 
     13 C13         3.1563  -19.6895  -50.5199 C.ar      23 UNK        -0.0193 
     14 C14         4.1146  -18.7785  -50.0582 C.ar      23 UNK        -0.1150 
     15 C15         3.2319  -21.1691  -50.1530 C.3       23 UNK        -0.0205 
     16 S16         3.6394  -21.5075  -48.4038 S.3       23 UNK        -0.2404 
     17 C17         2.3158  -20.6454  -47.4915 C.3       23 UNK        -0.0398 
     18 CA          1.0185  -21.4866  -47.3618 C.3       11 UNK         0.1400 
     19 N           0.3935  -21.3508  -46.0430 N.am      11 UNK        -0.5000 
     20 C          -0.5805  -22.1431  -45.5717 C.2       10 UNK         0.5000 
     21 O          -0.9931  -23.1420  -46.1581 O.2       10 UNK        -0.5000 
     22 CA         -1.2300  -21.7376  -44.2353 C.3       10 UNK         0.1400 
     23 CB         -0.4992  -22.3995  -43.0579 C.3       10 UNK        -0.1800 
     24 N          -1.2699  -20.2880  -44.0358 N.am      10 UNK        -0.5000 
     25 C          -1.9813  -19.4349  -44.7869 C.2       9 UNK         0.5000 
     26 O          -2.7372  -19.7935  -45.6881 O.2       9 UNK        -0.5000 
     27 CA         -1.7607  -17.9306  -44.5351 C.3       9 UNK         0.1400 
     28 CB         -2.6073  -17.4406  -43.3530 C.3       9 UNK        -0.1800 
     29 N          -0.3519  -17.6041  -44.3061 N.am      9 UNK        -0.5000 
     30 C           0.6160  -17.7784  -45.2174 C.2       8 UNK         0.5000 
     31 O           0.4103  -18.1886  -46.3594 O.2       8 UNK        -0.5000 
     32 CA          2.0587  -17.5014  -44.7693 C.3       8 UNK         0.1400 
     33 CB          2.4089  -16.0231  -44.9359 C.3       8 UNK        -0.1800 
     34 N           2.2875  -17.9095  -43.3857 N.am      8 UNK        -0.5000 
     35 C           2.4331  -19.1863  -43.0075 C.2       7 UNK         0.5000 
     36 O           2.4148  -20.1361  -43.7908 O.2       7 UNK        -0.5000 
     37 CA          2.5860  -19.4464  -41.4981 C.3       7 UNK         0.1400 
     38 CB          4.0256  -19.1681  -41.0402 C.3       7 UNK        -0.1800 
     39 N           1.6581  -18.6533  -40.6909 N.am      7 UNK        -0.5000 
     40 C           0.3237  -18.7697  -40.7354 C.2       6 UNK         0.5000 
     41 O          -0.2677  -19.5745  -41.4524 O.2       6 UNK        -0.5000 
     42 CA         -0.4944  -17.8082  -39.8558 C.3       6 UNK         0.1400 
     43 CB         -0.7609  -18.4382  -38.4807 C.3       6 UNK        -0.1800 
     44 N           0.1203  -16.4924  -39.6704 N.am      6 UNK        -0.5000 
     45 C           0.4279  -15.6254  -40.6453 C.2       5 UNK         0.5000 
     46 O           0.2715  -15.8674  -41.8456 O.2       5 UNK        -0.5000 
     47 CA          0.9638  -14.2576  -40.1688 C.3       5 UNK         0.1400 
     48 CB          2.0339  -14.3920  -39.0616 C.3       5 UNK        -0.1800 
     49 N           1.4535  -13.3994  -41.2502 N.am      5 UNK        -0.5000 
     50 C           2.5073  -13.5963  -42.0517 C.2       4 UNK         0.5000 
     51 O           3.2280  -14.5960  -42.0094 O.2       4 UNK        -0.5000 
     52 CA          2.8058  -12.4554  -43.0501 C.3       4 UNK         0.1400 
     53 CB          4.1142  -12.6713  -43.8319 C.3       4 UNK        -0.1800 
     54 N           1.7121  -12.2220  -43.9983 N.am      4 UNK        -0.5000 
     55 C           0.5594  -11.5920  -43.7248 C.2       3 UNK         0.5000 
     56 O           0.2799  -11.1586  -42.6053 O.2       3 UNK        -0.5000 
     57 CA         -0.4517  -11.3882  -44.8740 C.3       3 UNK         0.1400 
     58 CB         -0.3982   -9.9386  -45.3806 C.3       3 UNK        -0.1800 
     59 N          -0.2536  -12.2871  -46.0105 N.am      3 UNK        -0.5000 
     60 C          -0.5146  -13.6000  -46.0046 C.2       2 UNK         0.5000 
     61 O          -1.0268  -14.1854  -45.0513 O.2       2 UNK        -0.5000 
     62 CA         -0.1507  -14.4024  -47.2717 C.3       2 UNK         0.1400 
     63 CB         -1.3981  -14.5675  -48.1537 C.3       2 UNK        -0.1800 
     64 N           0.9371  -13.8828  -48.1128 N.am      2 UNK        -0.5000 
     65 C           2.1458  -13.4229  -47.7491 C.2       1 UNK         0.5000 
     66 O           2.4677  -13.1877  -46.5864 O.2       1 UNK        -0.5000 
     67 C           0.0145  -21.1445  -48.4807 C.2       11 UNK         0.5000 
     68 O          -0.1270  -21.9092  -49.4322 O.2       11 UNK        -0.5000 
     69 N          -0.7002  -20.0231  -48.3224 N.am      12 UNK        -0.5000 
     70 CA         -1.7343  -19.5554  -49.2461 C.3       12 UNK         0.1400 
     71 CB         -2.1757  -18.1497  -48.8181 C.3       12 UNK        -0.1800 
     72 C          -2.9469  -20.5030  -49.3413 C.2       12 UNK         0.5000 
     73 O          -3.5638  -20.5877  -50.4012 O.2       12 UNK        -0.5000 
     74 N          -3.2546  -21.2089  -48.2475 N.am      13 UNK        -0.5000 
     75 CA         -4.3463  -22.1771  -48.1372 C.3       13 UNK         0.1400 
     76 CB         -4.9998  -22.0028  -46.7556 C.3       13 UNK        -0.1800 
     77 C          -3.8875  -23.6368  -48.3499 C.2       13 UNK         0.5000 
     78 O          -4.6529  -24.5548  -48.0472 O.2       13 UNK        -0.5000 
     79 N          -2.6522  -23.8527  -48.8293 N.am      14 UNK        -0.5000 
     80 CA         -2.0153  -25.1730  -48.9146 C.3       14 UNK         0.1400 
     81 CB         -0.5331  -25.0122  -49.2821 C.3       14 UNK        -0.1800 
     82 C          -2.6906  -26.1700  -49.8756 C.2       14 UNK         0.5000 
     83 O          -2.4935  -27.3766  -49.7213 O.2       14 UNK        -0.5000 
     84 N          -3.4858  -25.6773  -50.8340 N.am      15 UNK        -0.5000 
     85 CA         -4.2154  -26.4793  -51.8167 C.3       15 UNK         0.1400 
     86 CB         -4.4483  -25.6328  -53.0818 C.3       15 UNK        -0.1800 
     87 C          -5.5183  -27.0540  -51.2225 C.2       15 UNK         0.5000 
     88 O          -6.5999  -26.8177  -51.7586 O.2       15 UNK        -0.5000 
     89 N          -5.3930  -27.7861  -50.1062 N.am      16 UNK        -0.5000 
     90 CA         -6.4665  -28.4378  -49.3458 C.3       16 UNK         0.1400 
     91 CB         -7.0282  -29.6389  -50.1350 C.3       16 UNK        -0.1800 
     92 C          -7.5617  -27.4488  -48.8892 C.2       16 UNK         0.5000 
     93 O          -8.7512  -27.7102  -49.0742 O.2       16 UNK        -0.5000 
     94 N          -7.1192  -26.3136  -48.3292 N.am      17 UNK        -0.5000 
     95 CA         -7.8999  -25.1648  -47.8532 C.3       17 UNK         0.1400 
     96 CB         -9.0230  -25.5774  -46.8787 C.3       17 UNK        -0.1800 
     97 C          -8.4070  -24.2282  -48.9689 C.2       17 UNK         0.5000 
     98 O          -8.9433  -23.1665  -48.6467 O.2       17 UNK        -0.5000 
     99 N          -8.2052  -24.5858  -50.2451 N.am      18 UNK        -0.5000 
    100 CA        -8.3905  -23.6848  -51.3823 C.3       18 UNK         0.1400 
    101 CB        -8.7436  -24.5002  -52.6373 C.3       18 UNK        -0.1800 
    102 C         -7.1178  -22.8470  -51.6058 C.2       18 UNK         0.5000 
    103 O         -6.0648  -23.1471  -51.0363 O.2       18 UNK        -0.5000 
    104 N         -7.2436  -21.8054  -52.4356 N.am      19 UNK        -0.5000 
    105 CA        -6.1699  -20.8769  -52.7781 C.3       19 UNK         0.1400 
    106 CB        -6.7600  -19.6974  -53.5693 C.3       19 UNK        -0.1800 
    107 C         -5.0346  -21.5573  -53.5664 C.2       19 UNK         0.5000 
    108 O         -5.2241  -21.9149  -54.7311 O.2       19 UNK        -0.5000 
    109 N         -3.8686  -21.6927  -52.9277 N.am      20 UNK        -0.5000 
    110 CA        -2.6099  -22.0961  -53.5440 C.3       20 UNK         0.1400 
    111 CB        -1.7114  -22.7446  -52.4784 C.3       20 UNK        -0.1800 
    112 C         -1.9652  -20.8466  -54.1629 C.2       20 UNK         0.5000 
    113 O         -1.1609  -20.1795  -53.5098 O.2       20 UNK        -0.5000 
    114 N         -2.4073  -20.5097  -55.3812 N.am      21 UNK        -0.5000 
    115 CA        -2.0922  -19.3105  -56.1646 C.3       21 UNK         0.1400 
    116 CB        -0.5869  -19.2080  -56.4867 C.3       21 UNK        -0.1800 
    117 C         -2.6443  -18.0210  -55.5273 C.2       21 UNK         0.5000 
    118 O         -3.5699  -17.4251  -56.0795 O.2       21 UNK        -0.5000 
    119 N         -2.0806  -17.6240  -54.3815 N.am      22 UNK        -0.5000 
    120 CA        -2.5126  -16.4637  -53.5882 C.3       22 UNK         0.1400 
    121 C         -3.6266  -16.7845  -52.5508 C.2       22 UNK         0.5000 
    122 N         -3.8670  -18.0446  -52.2111 N.am      22 UNK        -0.7600 
    123 O         -4.2895  -15.8763  -52.0581 O.2       22 UNK        -0.5000 
    124 C124       -1.3072  -15.7307  -52.9468 C.3       23 UNK        -0.0398 
    125 S125       -0.3978  -16.6941  -51.6870 S.3       23 UNK        -0.2404 
    126 C126        0.9683  -17.3930  -52.6610 C.3       23 UNK        -0.0205 
    127 H127        1.9023  -12.6180  -53.1096 H         1 UNK         0.0600 
    128 H128        1.7329  -14.2542  -52.4706 H         1 UNK         0.0600 
    129 H129        0.3758  -13.1325  -52.3863 H         1 UNK         0.0600 
    130 H130        2.8948  -14.4465  -50.5392 H         1 UNK         0.3000 
    131 H131        3.4105  -12.1283  -48.8480 H         1 UNK         0.0600 
    132 H132        5.2515  -13.7066  -49.3695 H         1 UNK         0.0800 
    133 H133        4.9816  -13.4938  -47.6752 H         1 UNK         0.0800 
    134 H134        6.0048  -16.9105  -49.6830 H         1 UNK         0.0800 
    135 H135        5.2312  -15.6446  -50.6029 H         1 UNK         0.0800 
    136 H136        2.9906  -15.9671  -51.5802 H         1 UNK         0.1150 
    137 H137        1.3812  -19.9288  -51.7196 H         1 UNK         0.1150 
    138 H138        4.9064  -19.1143  -49.4036 H         1 UNK         0.1150 
    139 H139        2.2989  -21.6753  -50.4009 H         1 UNK         0.0800 
    140 H140        3.9970  -21.6327  -50.7766 H         1 UNK         0.0800 
    141 H141        2.1374  -19.6585  -47.9230 H         1 UNK         0.0800 
    142 H142        2.7277  -20.4475  -46.5013 H         1 UNK         0.0800 
    143 H143        1.2775  -22.5422  -47.4688 H         1 UNK         0.0600 
    144 H144        0.6819  -20.5603  -45.4830 H         1 UNK         0.3000 
    145 H145       -2.2591  -22.1026  -44.2454 H         1 UNK         0.0600 
    146 H146       -1.0086  -22.1982  -42.1155 H         1 UNK         0.0600 
    147 H147       -0.4591  -23.4825  -43.1805 H         1 UNK         0.0600 
    148 H148        0.5262  -22.0395  -42.9675 H         1 UNK         0.0600 
    149 H149       -0.7243  -19.9241  -43.2588 H         1 UNK         0.3000 
    150 H150       -2.0816  -17.3900  -45.4280 H         1 UNK         0.0600 
    151 H151       -3.6703  -17.5762  -43.5556 H         1 UNK         0.0600 
    152 H152       -2.4430  -16.3796  -43.1620 H         1 UNK         0.0600 
    153 H153       -2.3770  -17.9884  -42.4405 H         1 UNK         0.0600 
    154 H154       -0.1099  -17.2074  -43.4042 H         1 UNK         0.3000 
    155 H155        2.7276  -18.0738  -45.4159 H         1 UNK         0.0600 
    156 H156        1.7266  -15.3758  -44.3836 H         1 UNK         0.0600 
    157 H157        2.3577  -15.7448  -45.9865 H         1 UNK         0.0600 
    158 H158        3.4242  -15.8193  -44.5976 H         1 UNK         0.0600 
    159 H159        2.2699  -17.1799  -42.6852 H         1 UNK         0.3000 
    160 H160        2.3686  -20.5018  -41.3201 H         1 UNK         0.0600 
    161 H161        4.1636  -19.4317  -39.9914 H         1 UNK         0.0600 
    162 H162        4.2915  -18.1169  -41.1604 H         1 UNK         0.0600 
    163 H163        4.7393  -19.7559  -41.6188 H         1 UNK         0.0600 
    164 H164        2.0596  -17.9562  -40.0816 H         1 UNK         0.3000 
    165 H165       -1.4561  -17.6510  -40.3457 H         1 UNK         0.0600 
    166 H166       -1.4229  -17.8133  -37.8810 H         1 UNK         0.0600 
    167 H167       -1.2420  -19.4119  -38.5838 H         1 UNK         0.0600 
    168 H168        0.1626  -18.5862  -37.9195 H         1 UNK         0.0600 
    169 H169        0.2780  -16.2110  -38.7138 H         1 UNK         0.3000 
    170 H170        0.1094  -13.7302  -39.7427 H         1 UNK         0.0600 
    171 H171        1.6173  -14.8199  -38.1495 H         1 UNK         0.0600 
    172 H172        2.8633  -15.0280  -39.3731 H         1 UNK         0.0600 
    173 H173        2.4449  -13.4189  -38.7924 H         1 UNK         0.0600 
    174 H174        0.8996  -12.5681  -41.4354 H         1 UNK         0.3000 
    175 H175        2.9381  -11.5483  -42.4567 H         1 UNK         0.0600 
    176 H176        4.0698  -13.5612  -44.4588 H         1 UNK         0.0600 
    177 H177        4.3316  -11.8209  -44.4782 H         1 UNK         0.0600 
    178 H178        4.9605  -12.7892  -43.1544 H         1 UNK         0.0600 
    179 H179        1.8669  -12.5698  -44.9425 H         1 UNK         0.3000 
    180 H180       -1.4481  -11.5695  -44.4655 H         1 UNK         0.0600 
    181 H181        0.5733   -9.7010  -45.8158 H         1 UNK         0.0600 
    182 H182       -0.5755   -9.2327  -44.5680 H         1 UNK         0.0600 
    183 H183       -1.1604   -9.7566  -46.1385 H         1 UNK         0.0600 
    184 H184        0.1885  -11.8951  -46.8289 H         1 UNK         0.3000 
    185 H185        0.1591  -15.3946  -46.9434 H         1 UNK         0.0600 
    186 H186       -2.2013  -15.0646  -47.6079 H         1 UNK         0.0600 
    187 H187       -1.7776  -13.6032  -48.4937 H         1 UNK         0.0600 
    188 H188       -1.1860  -15.1685  -49.0375 H         1 UNK         0.0600 
    189 H189        0.7991  -14.0064  -49.1046 H         1 UNK         0.3000 
    190 H190       -0.4930  -19.4220  -47.5293 H         1 UNK         0.3000 
    191 H191       -1.2866  -19.4876  -50.2403 H         1 UNK         0.0600 
    192 H192       -2.6757  -18.1582  -47.8497 H         1 UNK         0.0600 
    193 H193       -1.3174  -17.4830  -48.7446 H         1 UNK         0.0600 
    194 H194       -2.8656  -17.7163  -49.5422 H         1 UNK         0.0600 
    195 H195       -2.7361  -21.0182  -47.3974 H         1 UNK         0.3000 
    196 H196       -5.1044  -21.9627  -48.8918 H         1 UNK         0.0600 
    197 H197       -5.8822  -22.6340  -46.6507 H         1 UNK         0.0600 
    198 H198       -5.3216  -20.9729  -46.5998 H         1 UNK         0.0600 
    199 H199       -4.3096  -22.2618  -45.9517 H         1 UNK         0.0600 
    200 H200       -2.0639  -23.0553  -49.0361 H         1 UNK         0.3000 
    201 H201       -2.0625  -25.6169  -47.9180 H         1 UNK         0.0600 
    202 H202       -0.4085  -24.5034  -50.2385 H         1 UNK         0.0600 
    203 H203       -0.0009  -24.4422  -48.5213 H         1 UNK         0.0600 
    204 H204       -0.0374  -25.9808  -49.3586 H         1 UNK         0.0600 
    205 H205       -3.6674  -24.6834  -50.8412 H         1 UNK         0.3000 
    206 H206       -3.5980  -27.3315  -52.1082 H         1 UNK         0.0600 
    207 H207       -5.0460  -24.7463  -52.8739 H         1 UNK         0.0600 
    208 H208       -3.5038  -25.3036  -53.5146 H         1 UNK         0.0600 
    209 H209       -4.9705  -26.2075  -53.8475 H         1 UNK         0.0600 
    210 H210       -4.4535  -27.8985  -49.7384 H         1 UNK         0.3000 
    211 H211       -6.0086  -28.8273  -48.4356 H         1 UNK         0.0600 
    212 H212       -7.5320  -29.3234  -51.0493 H         1 UNK         0.0600 
    213 H213       -7.7515  -30.1955  -49.5380 H         1 UNK         0.0600 
    214 H214       -6.2353  -30.3334  -50.4123 H         1 UNK         0.0600 
    215 H215       -6.1167  -26.1671  -48.2803 H         1 UNK         0.3000 
    216 H216       -7.1950  -24.5680  -47.2747 H         1 UNK         0.0600 
    217 H217       -9.8446  -26.0805  -47.3887 H         1 UNK         0.0600 
    218 H218       -9.4438  -24.7025  -46.3820 H         1 UNK         0.0600 
    219 H219       -8.6486  -26.2421  -46.1003 H         1 UNK         0.0600 
    220 H220       -7.7140  -25.4491  -50.4425 H         1 UNK         0.3000 
    221 H221       -9.2210  -23.0067  -51.1749 H         1 UNK         0.0600 
    222 H222       -7.8824  -25.0393  -53.0306 H         1 UNK         0.0600 
    223 H223       -9.5318  -25.2252  -52.4334 H         1 UNK         0.0600 
    224 H224       -9.1020  -23.8485  -53.4346 H         1 UNK         0.0600 
    225 H225       -8.1314  -21.6451  -52.8883 H         1 UNK         0.3000 
    226 H226       -5.7642  -20.4797  -51.8462 H         1 UNK         0.0600 
    227 H227       -7.4809  -19.1414  -52.9697 H         1 UNK         0.0600 
    228 H228       -5.9799  -18.9969  -53.8703 H         1 UNK         0.0600 
    229 H229       -7.2641  -20.0316  -54.4769 H         1 UNK         0.0600 
    230 H230       -3.8013  -21.3589  -51.9658 H         1 UNK         0.3000 
    231 H231       -2.7926  -22.8316  -54.3303 H         1 UNK         0.0600 
    232 H232       -2.1690  -23.6430  -52.0706 H         1 UNK         0.0600 
    233 H233       -1.5153  -22.0656  -51.6493 H         1 UNK         0.0600 
    234 H234       -0.7481  -23.0323  -52.9006 H         1 UNK         0.0600 
    235 H235       -3.1301  -21.0945  -55.7809 H         1 UNK         0.3000 
    236 H236       -2.6130  -19.4351  -57.1154 H         1 UNK         0.0600 
    237 H237       -0.3867  -18.3479  -57.1266 H         1 UNK         0.0600 
    238 H238        0.0267  -19.0953  -55.5933 H         1 UNK         0.0600 
    239 H239       -0.2399  -20.0944  -57.0175 H         1 UNK         0.0600 
    240 H240       -1.3959  -18.2378  -53.9531 H         1 UNK         0.3000 
    241 H241       -2.9658  -15.7450  -54.2737 H         1 UNK         0.0600 
    242 H242       -3.2824  -18.7844  -52.5628 H         1 UNK         0.3800 
    243 H243       -4.5738  -18.2415  -51.5224 H         1 UNK         0.3800 
    244 H244       -0.6159  -15.4100  -53.7268 H         1 UNK         0.0800 
    245 H245       -1.6487  -14.8096  -52.4716 H         1 UNK         0.0800 
    246 H246        0.5986  -18.2042  -53.2874 H         1 UNK         0.0800 
    247 H247        1.3713  -16.6386  -53.3380 H         1 UNK         0.0800 
@<TRIPOS>BOND
     1    1    2 1    
     2    1  127 1    
     3    1  128 1    
     4    1  129 1    
     5    2    3 2    
     6    2    4 am   BACKBONE|DICT|INTERRES
     7    4    5 1    
     8    4  130 1    
     9    5    6 1    
    10    5   65 1    
    11    5  131 1    
    12    6    7 1    
    13    6  132 1    
    14    6  133 1    
    15    7    8 1    
    16    8    9 1    
    17    8  134 1    
    18    8  135 1    
    19    9   10 ar   
    20    9   14 ar   
    21   10   11 ar   
    22   10  136 1    
    23   11   12 ar   
    24   11  126 1    
    25   12   13 ar   
    26   12  137 1    
    27   13   14 ar   
    28   13   15 1    
    29   14  138 1    
    30   15   16 1    
    31   15  139 1    
    32   15  140 1    
    33   16   17 1    
    34   17   18 1    
    35   17  141 1    
    36   17  142 1    
    37   18   19 1    
    38   18   67 1    
    39   18  143 1    
    40   19   20 am   BACKBONE|DICT|INTERRES
    41   19  144 1    
    42   20   21 2    
    43   20   22 1    
    44   22   23 1    
    45   22   24 1    
    46   22  145 1    
    47   23  146 1    
    48   23  147 1    
    49   23  148 1    
    50   24   25 am   BACKBONE|DICT|INTERRES
    51   24  149 1    
    52   25   26 2    
    53   25   27 1    
    54   27   28 1    
    55   27   29 1    
    56   27  150 1    
    57   28  151 1    
    58   28  152 1    
    59   28  153 1    
    60   29   30 am   BACKBONE|DICT|INTERRES
    61   29  154 1    
    62   30   31 2    
    63   30   32 1    
    64   32   33 1    
    65   32   34 1    
    66   32  155 1    
    67   33  156 1    
    68   33  157 1    
    69   33  158 1    
    70   34   35 am   BACKBONE|DICT|INTERRES
    71   34  159 1    
    72   35   36 2    
    73   35   37 1    
    74   37   38 1    
    75   37   39 1    
    76   37  160 1    
    77   38  161 1    
    78   38  162 1    
    79   38  163 1    
    80   39   40 am   BACKBONE|DICT|INTERRES
    81   39  164 1    
    82   40   41 2    
    83   40   42 1    
    84   42   43 1    
    85   42   44 1    
    86   42  165 1    
    87   43  166 1    
    88   43  167 1    
    89   43  168 1    
    90   44   45 am   BACKBONE|DICT|INTERRES
    91   44  169 1    
    92   45   46 2    
    93   45   47 1    
    94   47   48 1    
    95   47   49 1    
    96   47  170 1    
    97   48  171 1    
    98   48  172 1    
    99   48  173 1    
   100   49   50 am   BACKBONE|DICT|INTERRES
   101   49  174 1    
   102   50   51 2    
   103   50   52 1    
   104   52   53 1    
   105   52   54 1    
   106   52  175 1    
   107   53  176 1    
   108   53  177 1    
   109   53  178 1    
   110   54   55 am   BACKBONE|DICT|INTERRES
   111   54  179 1    
   112   55   56 2    
   113   55   57 1    
   114   57   58 1    
   115   57   59 1    
   116   57  180 1    
   117   58  181 1    
   118   58  182 1    
   119   58  183 1    
   120   59   60 am   BACKBONE|DICT|INTERRES
   121   59  184 1    
   122   60   61 2    
   123   60   62 1    
   124   62   63 1    
   125   62   64 1    
   126   62  185 1    
   127   63  186 1    
   128   63  187 1    
   129   63  188 1    
   130   64   65 am   BACKBONE|DICT|INTERRES
   131   64  189 1    
   132   65   66 2    
   133   67   68 2    
   134   67   69 am   BACKBONE|DICT|INTERRES
   135   69   70 1    
   136   69  190 1    
   137   70   71 1    
   138   70   72 1    
   139   70  191 1    
   140   71  192 1    
   141   71  193 1    
   142   71  194 1    
   143   72   73 2    
   144   72   74 am   BACKBONE|DICT|INTERRES
   145   74   75 1    
   146   74  195 1    
   147   75   76 1    
   148   75   77 1    
   149   75  196 1    
   150   76  197 1    
   151   76  198 1    
   152   76  199 1    
   153   77   78 2    
   154   77   79 am   BACKBONE|DICT|INTERRES
   155   79   80 1    
   156   79  200 1    
   157   80   81 1    
   158   80   82 1    
   159   80  201 1    
   160   81  202 1    
   161   81  203 1    
   162   81  204 1    
   163   82   83 2    
   164   82   84 am   BACKBONE|DICT|INTERRES
   165   84   85 1    
   166   84  205 1    
   167   85   86 1    
   168   85   87 1    
   169   85  206 1    
   170   86  207 1    
   171   86  208 1    
   172   86  209 1    
   173   87   88 2    
   174   87   89 am   BACKBONE|DICT|INTERRES
   175   89   90 1    
   176   89  210 1    
   177   90   91 1    
   178   90   92 1    
   179   90  211 1    
   180   91  212 1    
   181   91  213 1    
   182   91  214 1    
   183   92   93 2    
   184   92   94 am   BACKBONE|DICT|INTERRES
   185   94   95 1    
   186   94  215 1    
   187   95   96 1    
   188   95   97 1    
   189   95  216 1    
   190   96  217 1    
   191   96  218 1    
   192   96  219 1    
   193   97   98 2    
   194   97   99 am   BACKBONE|DICT|INTERRES
   195   99  100 1    
   196   99  220 1    
   197  100  101 1    
   198  100  102 1    
   199  100  221 1    
   200  101  222 1    
   201  101  223 1    
   202  101  224 1    
   203  102  103 2    
   204  102  104 am   BACKBONE|DICT|INTERRES
   205  104  105 1    
   206  104  225 1    
   207  105  106 1    
   208  105  107 1    
   209  105  226 1    
   210  106  227 1    
   211  106  228 1    
   212  106  229 1    
   213  107  108 2    
   214  107  109 am   BACKBONE|DICT|INTERRES
   215  109  110 1    
   216  109  230 1    
   217  110  111 1    
   218  110  112 1    
   219  110  231 1    
   220  111  232 1    
   221  111  233 1    
   222  111  234 1    
   223  112  113 2    
   224  112  114 am   BACKBONE|DICT|INTERRES
   225  114  115 1    
   226  114  235 1    
   227  115  116 1    
   228  115  117 1    
   229  115  236 1    
   230  116  237 1    
   231  116  238 1    
   232  116  239 1    
   233  117  118 2    
   234  117  119 am   BACKBONE|DICT|INTERRES
   235  119  120 1    
   236  119  240 1    
   237  120  121 1    
   238  120  124 1    
   239  120  241 1    
   240  121  122 am   BACKBONE|DICT|INTERRES
   241  121  123 2    
   242  122  242 1    
   243  122  243 1    
   244  124  125 1    
   245  124  244 1    
   246  124  245 1    
   247  125  126 1    
   248  126  246 1    
   249  126  247 1    
@<TRIPOS>SUBSTRUCTURE
     1 UNK         1 GROUP             0       ****    0 ROOT    
