@<TRIPOS>MOLECULE
3R540
247   249    1
SMALL
USER_CHARGES


@<TRIPOS>ATOM
      1 CA          5.2207  -14.2167  -45.1001 C.3       0 UNK        -0.1800 
      2 C           3.9155  -13.9087  -45.8198 C.2       0 UNK         0.5000 
      3 O           3.9419  -13.3194  -46.8977 O.2       0 UNK        -0.5000 
      4 N           2.7878  -14.2811  -45.2021 N.am      1 UNK        -0.5000 
      5 CA          1.3923  -14.1752  -45.6561 C.3       1 UNK         0.1400 
      6 C6          1.0204  -15.1371  -46.8194 C.3       23 UNK        -0.0398 
      7 S7          1.4312  -14.5897  -48.5170 S.3       23 UNK        -0.2404 
      8 C8         -0.2160  -14.4010  -49.2744 C.3       23 UNK        -0.0205 
      9 C9         -0.9163  -15.7410  -49.4469 C.ar      23 UNK        -0.0193 
     10 C10        -0.5275  -16.6132  -50.4680 C.ar      23 UNK        -0.1150 
     11 C11        -1.1429  -17.8605  -50.6132 C.ar      23 UNK        -0.0193 
     12 C12        -2.1477  -18.2352  -49.7152 C.ar      23 UNK        -0.1150 
     13 C13        -2.5568  -17.3643  -48.7016 C.ar      23 UNK        -0.0193 
     14 C14        -1.9465  -16.1143  -48.5801 C.ar      23 UNK        -0.1150 
     15 C15        -3.6404  -17.7838  -47.7210 C.3       23 UNK        -0.0205 
     16 S16        -2.9825  -18.1036  -46.0491 S.3       23 UNK        -0.2404 
     17 C17        -1.5726  -19.2192  -46.3686 C.3       23 UNK        -0.0398 
     18 CA         -1.9741  -20.6208  -46.8884 C.3       11 UNK         0.1400 
     19 N          -0.8393  -21.3104  -47.5073 N.am      11 UNK        -0.5000 
     20 C          -0.9203  -22.4197  -48.2547 C.2       10 UNK         0.5000 
     21 O          -1.9766  -22.9840  -48.5310 O.2       10 UNK        -0.5000 
     22 CA          0.4058  -23.0237  -48.7470 C.3       10 UNK         0.1400 
     23 CB          0.8505  -22.3460  -50.0512 C.3       10 UNK        -0.1800 
     24 N           1.4696  -22.9208  -47.7467 N.am      10 UNK        -0.5000 
     25 C           1.4676  -23.5756  -46.5758 C.2       9 UNK         0.5000 
     26 O           0.5975  -24.3802  -46.2452 O.2       9 UNK        -0.5000 
     27 CA          2.5927  -23.2223  -45.5842 C.3       9 UNK         0.1400 
     28 CB          3.8521  -24.0515  -45.8758 C.3       9 UNK        -0.1800 
     29 N           2.9357  -21.7955  -45.5813 N.am      9 UNK        -0.5000 
     30 C           2.0806  -20.8121  -45.2715 C.2       8 UNK         0.5000 
     31 O           0.8996  -21.0070  -44.9730 O.2       8 UNK        -0.5000 
     32 CA          2.6152  -19.3724  -45.3821 C.3       8 UNK         0.1400 
     33 CB          2.6332  -18.9204  -46.8520 C.3       8 UNK        -0.1800 
     34 N           1.7922  -18.4367  -44.6160 N.am      8 UNK        -0.5000 
     35 C           1.7945  -18.3447  -43.2814 C.2       7 UNK         0.5000 
     36 O           2.5566  -18.9789  -42.5470 O.2       7 UNK        -0.5000 
     37 CA          0.7453  -17.3991  -42.6658 C.3       7 UNK         0.1400 
     38 CB         -0.5063  -18.1866  -42.2472 C.3       7 UNK        -0.1800 
     39 N           1.2719  -16.6825  -41.5038 N.am      7 UNK        -0.5000 
     40 C           2.2405  -15.7613  -41.5622 C.2       6 UNK         0.5000 
     41 O           2.7507  -15.3742  -42.6177 O.2       6 UNK        -0.5000 
     42 CA          2.7391  -15.2022  -40.2162 C.3       6 UNK         0.1400 
     43 CB          3.7723  -16.1529  -39.5917 C.3       6 UNK        -0.1800 
     44 N           3.3599  -13.8911  -40.3986 N.am      6 UNK        -0.5000 
     45 C           2.6824  -12.7516  -40.5788 C.2       5 UNK         0.5000 
     46 O           1.4620  -12.6516  -40.4296 O.2       5 UNK        -0.5000 
     47 CA          3.5256  -11.5406  -41.0139 C.3       5 UNK         0.1400 
     48 CB          4.0885  -11.7573  -42.4304 C.3       5 UNK        -0.1800 
     49 N           2.7227  -10.3188  -41.0243 N.am      5 UNK        -0.5000 
     50 C           2.8782   -9.2832  -40.1891 C.2       4 UNK         0.5000 
     51 O           3.7089   -9.2684  -39.2791 O.2       4 UNK        -0.5000 
     52 CA          1.9942   -8.0359  -40.4071 C.3       4 UNK         0.1400 
     53 CB          2.8648   -6.8071  -40.7210 C.3       4 UNK        -0.1800 
     54 N           1.0286   -8.1987  -41.4949 N.am      4 UNK        -0.5000 
     55 C          -0.2387   -8.6046  -41.3483 C.2       3 UNK         0.5000 
     56 O          -0.7585   -8.8486  -40.2588 O.2       3 UNK        -0.5000 
     57 CA         -1.0652   -8.7797  -42.6411 C.3       3 UNK         0.1400 
     58 CB         -1.9103   -7.5250  -42.9102 C.3       3 UNK        -0.1800 
     59 N          -0.2705   -9.0856  -43.8390 N.am      3 UNK        -0.5000 
     60 C           0.4975  -10.1728  -43.9847 C.2       2 UNK         0.5000 
     61 O           0.6719  -11.0005  -43.0887 O.2       2 UNK        -0.5000 
     62 CA          1.2325  -10.3335  -45.3292 C.3       2 UNK         0.1400 
     63 CB          2.4794   -9.4357  -45.3679 C.3       2 UNK        -0.1800 
     64 N           1.6513  -11.7199  -45.5281 N.am      2 UNK        -0.5000 
     65 C           0.8299  -12.7410  -45.8017 C.2       1 UNK         0.5000 
     66 O          -0.3570  -12.5874  -46.0962 O.2       1 UNK        -0.5000 
     67 C          -2.6189  -21.4833  -45.7878 C.2       11 UNK         0.5000 
     68 O          -3.8381  -21.6572  -45.7865 O.2       11 UNK        -0.5000 
     69 N          -1.7802  -22.0697  -44.9214 N.am      12 UNK        -0.5000 
     70 CA         -2.1772  -23.0216  -43.8805 C.3       12 UNK         0.1400 
     71 CB         -0.9497  -23.3679  -43.0248 C.3       12 UNK        -0.1800 
     72 C          -2.8306  -24.2997  -44.4463 C.2       12 UNK         0.5000 
     73 O          -3.7211  -24.8634  -43.8103 O.2       12 UNK        -0.5000 
     74 N          -2.4072  -24.6998  -45.6517 N.am      13 UNK        -0.5000 
     75 CA         -2.9644  -25.8017  -46.4333 C.3       13 UNK         0.1400 
     76 CB         -1.8383  -26.4093  -47.2863 C.3       13 UNK        -0.1800 
     77 C          -4.1724  -25.3929  -47.3064 C.2       13 UNK         0.5000 
     78 O          -4.5883  -26.1938  -48.1425 O.2       13 UNK        -0.5000 
     79 N          -4.7136  -24.1773  -47.1252 N.am      14 UNK        -0.5000 
     80 CA         -5.8708  -23.6077  -47.8283 C.3       14 UNK         0.1400 
     81 CB         -7.1566  -24.3977  -47.5046 C.3       14 UNK        -0.1800 
     82 C          -5.6204  -23.4556  -49.3421 C.2       14 UNK         0.5000 
     83 O          -6.3390  -24.0330  -50.1606 O.2       14 UNK        -0.5000 
     84 N          -4.5593  -22.7078  -49.6739 N.am      15 UNK        -0.5000 
     85 CA         -4.0104  -22.4873  -51.0169 C.3       15 UNK         0.1400 
     86 CB         -4.9852  -21.6746  -51.8927 C.3       15 UNK        -0.1800 
     87 C          -3.5472  -23.8057  -51.6674 C.2       15 UNK         0.5000 
     88 O          -3.7988  -24.0380  -52.8519 O.2       15 UNK        -0.5000 
     89 N          -2.9047  -24.6533  -50.8484 N.am      16 UNK        -0.5000 
     90 CA         -2.4593  -26.0184  -51.1461 C.3       16 UNK         0.1400 
     91 CB         -1.2739  -25.9906  -52.1319 C.3       16 UNK        -0.1800 
     92 C          -3.6228  -26.9103  -51.6264 C.2       16 UNK         0.5000 
     93 O          -3.5600  -27.4726  -52.7186 O.2       16 UNK        -0.5000 
     94 N          -4.6976  -26.9660  -50.8263 N.am      17 UNK        -0.5000 
     95 CA         -5.9872  -27.6038  -51.1221 C.3       17 UNK         0.1400 
     96 CB         -5.8455  -29.1398  -51.1219 C.3       17 UNK        -0.1800 
     97 C          -6.6292  -27.0527  -52.4148 C.2       17 UNK         0.5000 
     98 O          -7.1522  -27.8151  -53.2293 O.2       17 UNK        -0.5000 
     99 N          -6.5237  -25.7276  -52.5852 N.am      18 UNK        -0.5000 
    100 CA        -6.9056  -24.9207  -53.7471 C.3       18 UNK         0.1400 
    101 CB        -8.4285  -24.9833  -53.9825 C.3       18 UNK        -0.1800 
    102 C         -6.1035  -25.1996  -55.0396 C.2       18 UNK         0.5000 
    103 O         -6.4491  -24.6347  -56.0784 O.2       18 UNK        -0.5000 
    104 N         -5.0456  -26.0243  -54.9828 N.am      19 UNK        -0.5000 
    105 CA        -4.2171  -26.3666  -56.1417 C.3       19 UNK         0.1400 
    106 CB        -3.4492  -27.6699  -55.8769 C.3       19 UNK        -0.1800 
    107 C         -3.2440  -25.2424  -56.5372 C.2       19 UNK         0.5000 
    108 O         -2.9419  -25.1068  -57.7238 O.2       19 UNK        -0.5000 
    109 N         -2.7774  -24.4512  -55.5590 N.am      20 UNK        -0.5000 
    110 CA        -1.9444  -23.2710  -55.8071 C.3       20 UNK         0.1400 
    111 CB        -1.0979  -22.9495  -54.5648 C.3       20 UNK        -0.1800 
    112 C         -2.7946  -22.0534  -56.2073 C.2       20 UNK         0.5000 
    113 O         -2.2954  -21.1746  -56.9113 O.2       20 UNK        -0.5000 
    114 N         -4.0540  -22.0255  -55.7437 N.am      21 UNK        -0.5000 
    115 CA        -5.1076  -21.0200  -55.9437 C.3       21 UNK         0.1400 
    116 CB        -5.4685  -20.8751  -57.4336 C.3       21 UNK        -0.1800 
    117 C         -4.8181  -19.6480  -55.3010 C.2       21 UNK         0.5000 
    118 O         -5.7121  -19.0792  -54.6743 O.2       21 UNK        -0.5000 
    119 N         -3.5804  -19.1612  -55.4438 N.am      22 UNK        -0.5000 
    120 CA        -3.0188  -17.9497  -54.8217 C.3       22 UNK         0.1400 
    121 C         -3.6212  -16.6053  -55.3358 C.2       22 UNK         0.5000 
    122 N         -4.3224  -16.5826  -56.4628 N.am      22 UNK        -0.7600 
    123 O         -3.4241  -15.5567  -54.7276 O.2       22 UNK        -0.5000 
    124 C124       -2.9793  -18.0344  -53.2700 C.3       23 UNK        -0.0398 
    125 S125       -2.1054  -19.5219  -52.6571 S.3       23 UNK        -0.2404 
    126 C126       -0.7077  -18.7963  -51.7367 C.3       23 UNK        -0.0205 
    127 H127        5.7648  -13.2942  -44.8973 H         1 UNK         0.0600 
    128 H128        5.8489  -14.8557  -45.7205 H         1 UNK         0.0600 
    129 H129        5.0506  -14.7266  -44.1513 H         1 UNK         0.0600 
    130 H130        2.8763  -14.7087  -44.2798 H         1 UNK         0.3000 
    131 H131        0.8464  -14.5562  -44.7916 H         1 UNK         0.0600 
    132 H132        1.5011  -16.1015  -46.6613 H         1 UNK         0.0800 
    133 H133       -0.0474  -15.3443  -46.7642 H         1 UNK         0.0800 
    134 H134       -0.8186  -13.7207  -48.6704 H         1 UNK         0.0800 
    135 H135       -0.1038  -13.9250  -50.2495 H         1 UNK         0.0800 
    136 H136        0.2644  -16.3201  -51.1431 H         1 UNK         0.1150 
    137 H137       -2.6153  -19.2047  -49.8123 H         1 UNK         0.1150 
    138 H138       -2.2578  -15.4446  -47.7905 H         1 UNK         0.1150 
    139 H139       -4.3911  -16.9948  -47.6577 H         1 UNK         0.0800 
    140 H140       -4.1668  -18.6696  -48.0791 H         1 UNK         0.0800 
    141 H141       -0.9955  -19.2987  -45.4478 H         1 UNK         0.0800 
    142 H142       -0.9074  -18.7296  -47.0801 H         1 UNK         0.0800 
    143 H143       -2.7198  -20.4946  -47.6745 H         1 UNK         0.0600 
    144 H144        0.0774  -20.9617  -47.2734 H         1 UNK         0.3000 
    145 H145        0.2326  -24.0816  -48.9555 H         1 UNK         0.0600 
    146 H146        1.7380  -22.8277  -50.4618 H         1 UNK         0.0600 
    147 H147        0.0690  -22.4071  -50.8105 H         1 UNK         0.0600 
    148 H148        1.0812  -21.2910  -49.8994 H         1 UNK         0.0600 
    149 H149        2.2279  -22.2848  -47.9439 H         1 UNK         0.3000 
    150 H150        2.2395  -23.4798  -44.5834 H         1 UNK         0.0600 
    151 H151        3.6272  -25.1189  -45.8660 H         1 UNK         0.0600 
    152 H152        4.6223  -23.8766  -45.1244 H         1 UNK         0.0600 
    153 H153        4.2751  -23.8140  -46.8527 H         1 UNK         0.0600 
    154 H154        3.8868  -21.5614  -45.8275 H         1 UNK         0.3000 
    155 H155        3.6350  -19.3488  -44.9920 H         1 UNK         0.0600 
    156 H156        3.2321  -19.5940  -47.4662 H         1 UNK         0.0600 
    157 H157        3.0720  -17.9274  -46.9510 H         1 UNK         0.0600 
    158 H158        1.6314  -18.8889  -47.2820 H         1 UNK         0.0600 
    159 H159        1.1107  -17.9114  -45.1395 H         1 UNK         0.3000 
    160 H160        0.4524  -16.6604  -43.4147 H         1 UNK         0.0600 
    161 H161       -0.2778  -18.9261  -41.4785 H         1 UNK         0.0600 
    162 H162       -0.9368  -18.7210  -43.0947 H         1 UNK         0.0600 
    163 H163       -1.2787  -17.5234  -41.8574 H         1 UNK         0.0600 
    164 H164        0.9301  -16.9794  -40.6016 H         1 UNK         0.3000 
    165 H165        1.8901  -15.1071  -39.5357 H         1 UNK         0.0600 
    166 H166        4.1272  -15.7752  -38.6325 H         1 UNK         0.0600 
    167 H167        3.3406  -17.1384  -39.4119 H         1 UNK         0.0600 
    168 H168        4.6384  -16.2891  -40.2408 H         1 UNK         0.0600 
    169 H169        4.3545  -13.8959  -40.5700 H         1 UNK         0.3000 
    170 H170        4.3627  -11.4478  -40.3190 H         1 UNK         0.0600 
    171 H171        4.7683  -12.6091  -42.4612 H         1 UNK         0.0600 
    172 H172        3.2936  -11.9487  -43.1509 H         1 UNK         0.0600 
    173 H173        4.6490  -10.8865  -42.7707 H         1 UNK         0.0600 
    174 H174        1.9398  -10.3260  -41.6702 H         1 UNK         0.3000 
    175 H175        1.4678   -7.8449  -39.4697 H         1 UNK         0.0600 
    176 H176        3.4409   -6.9454  -41.6369 H         1 UNK         0.0600 
    177 H177        2.2542   -5.9118  -40.8402 H         1 UNK         0.0600 
    178 H178        3.5722   -6.6089  -39.9148 H         1 UNK         0.0600 
    179 H179        1.3681   -8.0228  -42.4290 H         1 UNK         0.3000 
    180 H180       -1.7449   -9.6183  -42.4760 H         1 UNK         0.0600 
    181 H181       -1.2846   -6.6555  -43.1154 H         1 UNK         0.0600 
    182 H182       -2.5364   -7.2830  -42.0502 H         1 UNK         0.0600 
    183 H183       -2.5747   -7.6709  -43.7620 H         1 UNK         0.0600 
    184 H184       -0.3535   -8.4366  -44.6086 H         1 UNK         0.3000 
    185 H185        0.5581  -10.0472  -46.1388 H         1 UNK         0.0600 
    186 H186        3.1710   -9.6688  -44.5574 H         1 UNK         0.0600 
    187 H187        3.0172   -9.5495  -46.3094 H         1 UNK         0.0600 
    188 H188        2.2097   -8.3829  -45.2760 H         1 UNK         0.0600 
    189 H189        2.6081  -11.9420  -45.2990 H         1 UNK         0.3000 
    190 H190       -0.7892  -21.8467  -44.9796 H         1 UNK         0.3000 
    191 H191       -2.9131  -22.5281  -43.2425 H         1 UNK         0.0600 
    192 H192       -0.1746  -23.8580  -43.6146 H         1 UNK         0.0600 
    193 H193       -0.5143  -22.4731  -42.5792 H         1 UNK         0.0600 
    194 H194       -1.2185  -24.0412  -42.2100 H         1 UNK         0.0600 
    195 H195       -1.6331  -24.2027  -46.0742 H         1 UNK         0.3000 
    196 H196       -3.3184  -26.5768  -45.7509 H         1 UNK         0.0600 
    197 H197       -1.0086  -26.7405  -46.6615 H         1 UNK         0.0600 
    198 H198       -1.4457  -25.6883  -48.0028 H         1 UNK         0.0600 
    199 H199       -2.1864  -27.2797  -47.8437 H         1 UNK         0.0600 
    200 H200       -4.2791  -23.5575  -46.4505 H         1 UNK         0.3000 
    201 H201       -6.0025  -22.5985  -47.4352 H         1 UNK         0.0600 
    202 H202       -8.0299  -23.9122  -47.9416 H         1 UNK         0.0600 
    203 H203       -7.3218  -24.4564  -46.4289 H         1 UNK         0.0600 
    204 H204       -7.1227  -25.4153  -47.8947 H         1 UNK         0.0600 
    205 H205       -3.9594  -22.3960  -48.9199 H         1 UNK         0.3000 
    206 H206       -3.1094  -21.8862  -50.8879 H         1 UNK         0.0600 
    207 H207       -5.2103  -20.7111  -51.4357 H         1 UNK         0.0600 
    208 H208       -5.9276  -22.1958  -52.0536 H         1 UNK         0.0600 
    209 H209       -4.5507  -21.4704  -52.8708 H         1 UNK         0.0600 
    210 H210       -2.7457  -24.3315  -49.8999 H         1 UNK         0.3000 
    211 H211       -2.1027  -26.4487  -50.2110 H         1 UNK         0.0600 
    212 H212       -0.4728  -25.3466  -51.7692 H         1 UNK         0.0600 
    213 H213       -0.8559  -26.9889  -52.2650 H         1 UNK         0.0600 
    214 H214       -1.5744  -25.6314  -53.1158 H         1 UNK         0.0600 
    215 H215       -4.6524  -26.4996  -49.9212 H         1 UNK         0.3000 
    216 H216       -6.6573  -27.3306  -50.3056 H         1 UNK         0.0600 
    217 H217       -6.8186  -29.6217  -51.2222 H         1 UNK         0.0600 
    218 H218       -5.2208  -29.4896  -51.9443 H         1 UNK         0.0600 
    219 H219       -5.4033  -29.4934  -50.1906 H         1 UNK         0.0600 
    220 H220       -6.1130  -25.1976  -51.8225 H         1 UNK         0.3000 
    221 H221       -6.6644  -23.8933  -53.4758 H         1 UNK         0.0600 
    222 H222       -8.7456  -25.9667  -54.3300 H         1 UNK         0.0600 
    223 H223       -8.9779  -24.7555  -53.0689 H         1 UNK         0.0600 
    224 H224       -8.7395  -24.2573  -54.7345 H         1 UNK         0.0600 
    225 H225       -4.7788  -26.4361  -54.0953 H         1 UNK         0.3000 
    226 H226       -4.8810  -26.5445  -56.9905 H         1 UNK         0.0600 
    227 H227       -4.1131  -28.4595  -55.5244 H         1 UNK         0.0600 
    228 H228       -2.9708  -28.0278  -56.7892 H         1 UNK         0.0600 
    229 H229       -2.6628  -27.5317  -55.1346 H         1 UNK         0.0600 
    230 H230       -3.0996  -24.5925  -54.6053 H         1 UNK         0.3000 
    231 H231       -1.2577  -23.4834  -56.6294 H         1 UNK         0.0600 
    232 H232       -0.4219  -22.1169  -54.7635 H         1 UNK         0.0600 
    233 H233       -0.4838  -23.8003  -54.2710 H         1 UNK         0.0600 
    234 H234       -1.7137  -22.6637  -53.7130 H         1 UNK         0.0600 
    235 H235       -4.3202  -22.8001  -55.1525 H         1 UNK         0.3000 
    236 H236       -5.9865  -21.4204  -55.4356 H         1 UNK         0.0600 
    237 H237       -5.7439  -21.8378  -57.8648 H         1 UNK         0.0600 
    238 H238       -6.3193  -20.2052  -57.5636 H         1 UNK         0.0600 
    239 H239       -4.6425  -20.4694  -58.0182 H         1 UNK         0.0600 
    240 H240       -2.9331  -19.7162  -55.9982 H         1 UNK         0.3000 
    241 H241       -1.9821  -17.9190  -55.1582 H         1 UNK         0.0600 
    242 H242       -4.6997  -15.7097  -56.7970 H         1 UNK         0.3800 
    243 H243       -4.4845  -17.4319  -56.9796 H         1 UNK         0.3800 
    244 H244       -2.4986  -17.1453  -52.8603 H         1 UNK         0.0800 
    245 H245       -3.9900  -18.0398  -52.8602 H         1 UNK         0.0800 
    246 H246       -0.0612  -18.2756  -52.4448 H         1 UNK         0.0800 
    247 H247       -0.1124  -19.6031  -51.3092 H         1 UNK         0.0800 
@<TRIPOS>BOND
     1    1    2 1    
     2    1  127 1    
     3    1  128 1    
     4    1  129 1    
     5    2    3 2    
     6    2    4 am   BACKBONE|DICT|INTERRES
     7    4    5 1    
     8    4  130 1    
     9    5    6 1    
    10    5   65 1    
    11    5  131 1    
    12    6    7 1    
    13    6  132 1    
    14    6  133 1    
    15    7    8 1    
    16    8    9 1    
    17    8  134 1    
    18    8  135 1    
    19    9   10 ar   
    20    9   14 ar   
    21   10   11 ar   
    22   10  136 1    
    23   11   12 ar   
    24   11  126 1    
    25   12   13 ar   
    26   12  137 1    
    27   13   14 ar   
    28   13   15 1    
    29   14  138 1    
    30   15   16 1    
    31   15  139 1    
    32   15  140 1    
    33   16   17 1    
    34   17   18 1    
    35   17  141 1    
    36   17  142 1    
    37   18   19 1    
    38   18   67 1    
    39   18  143 1    
    40   19   20 am   BACKBONE|DICT|INTERRES
    41   19  144 1    
    42   20   21 2    
    43   20   22 1    
    44   22   23 1    
    45   22   24 1    
    46   22  145 1    
    47   23  146 1    
    48   23  147 1    
    49   23  148 1    
    50   24   25 am   BACKBONE|DICT|INTERRES
    51   24  149 1    
    52   25   26 2    
    53   25   27 1    
    54   27   28 1    
    55   27   29 1    
    56   27  150 1    
    57   28  151 1    
    58   28  152 1    
    59   28  153 1    
    60   29   30 am   BACKBONE|DICT|INTERRES
    61   29  154 1    
    62   30   31 2    
    63   30   32 1    
    64   32   33 1    
    65   32   34 1    
    66   32  155 1    
    67   33  156 1    
    68   33  157 1    
    69   33  158 1    
    70   34   35 am   BACKBONE|DICT|INTERRES
    71   34  159 1    
    72   35   36 2    
    73   35   37 1    
    74   37   38 1    
    75   37   39 1    
    76   37  160 1    
    77   38  161 1    
    78   38  162 1    
    79   38  163 1    
    80   39   40 am   BACKBONE|DICT|INTERRES
    81   39  164 1    
    82   40   41 2    
    83   40   42 1    
    84   42   43 1    
    85   42   44 1    
    86   42  165 1    
    87   43  166 1    
    88   43  167 1    
    89   43  168 1    
    90   44   45 am   BACKBONE|DICT|INTERRES
    91   44  169 1    
    92   45   46 2    
    93   45   47 1    
    94   47   48 1    
    95   47   49 1    
    96   47  170 1    
    97   48  171 1    
    98   48  172 1    
    99   48  173 1    
   100   49   50 am   BACKBONE|DICT|INTERRES
   101   49  174 1    
   102   50   51 2    
   103   50   52 1    
   104   52   53 1    
   105   52   54 1    
   106   52  175 1    
   107   53  176 1    
   108   53  177 1    
   109   53  178 1    
   110   54   55 am   BACKBONE|DICT|INTERRES
   111   54  179 1    
   112   55   56 2    
   113   55   57 1    
   114   57   58 1    
   115   57   59 1    
   116   57  180 1    
   117   58  181 1    
   118   58  182 1    
   119   58  183 1    
   120   59   60 am   BACKBONE|DICT|INTERRES
   121   59  184 1    
   122   60   61 2    
   123   60   62 1    
   124   62   63 1    
   125   62   64 1    
   126   62  185 1    
   127   63  186 1    
   128   63  187 1    
   129   63  188 1    
   130   64   65 am   BACKBONE|DICT|INTERRES
   131   64  189 1    
   132   65   66 2    
   133   67   68 2    
   134   67   69 am   BACKBONE|DICT|INTERRES
   135   69   70 1    
   136   69  190 1    
   137   70   71 1    
   138   70   72 1    
   139   70  191 1    
   140   71  192 1    
   141   71  193 1    
   142   71  194 1    
   143   72   73 2    
   144   72   74 am   BACKBONE|DICT|INTERRES
   145   74   75 1    
   146   74  195 1    
   147   75   76 1    
   148   75   77 1    
   149   75  196 1    
   150   76  197 1    
   151   76  198 1    
   152   76  199 1    
   153   77   78 2    
   154   77   79 am   BACKBONE|DICT|INTERRES
   155   79   80 1    
   156   79  200 1    
   157   80   81 1    
   158   80   82 1    
   159   80  201 1    
   160   81  202 1    
   161   81  203 1    
   162   81  204 1    
   163   82   83 2    
   164   82   84 am   BACKBONE|DICT|INTERRES
   165   84   85 1    
   166   84  205 1    
   167   85   86 1    
   168   85   87 1    
   169   85  206 1    
   170   86  207 1    
   171   86  208 1    
   172   86  209 1    
   173   87   88 2    
   174   87   89 am   BACKBONE|DICT|INTERRES
   175   89   90 1    
   176   89  210 1    
   177   90   91 1    
   178   90   92 1    
   179   90  211 1    
   180   91  212 1    
   181   91  213 1    
   182   91  214 1    
   183   92   93 2    
   184   92   94 am   BACKBONE|DICT|INTERRES
   185   94   95 1    
   186   94  215 1    
   187   95   96 1    
   188   95   97 1    
   189   95  216 1    
   190   96  217 1    
   191   96  218 1    
   192   96  219 1    
   193   97   98 2    
   194   97   99 am   BACKBONE|DICT|INTERRES
   195   99  100 1    
   196   99  220 1    
   197  100  101 1    
   198  100  102 1    
   199  100  221 1    
   200  101  222 1    
   201  101  223 1    
   202  101  224 1    
   203  102  103 2    
   204  102  104 am   BACKBONE|DICT|INTERRES
   205  104  105 1    
   206  104  225 1    
   207  105  106 1    
   208  105  107 1    
   209  105  226 1    
   210  106  227 1    
   211  106  228 1    
   212  106  229 1    
   213  107  108 2    
   214  107  109 am   BACKBONE|DICT|INTERRES
   215  109  110 1    
   216  109  230 1    
   217  110  111 1    
   218  110  112 1    
   219  110  231 1    
   220  111  232 1    
   221  111  233 1    
   222  111  234 1    
   223  112  113 2    
   224  112  114 am   BACKBONE|DICT|INTERRES
   225  114  115 1    
   226  114  235 1    
   227  115  116 1    
   228  115  117 1    
   229  115  236 1    
   230  116  237 1    
   231  116  238 1    
   232  116  239 1    
   233  117  118 2    
   234  117  119 am   BACKBONE|DICT|INTERRES
   235  119  120 1    
   236  119  240 1    
   237  120  121 1    
   238  120  124 1    
   239  120  241 1    
   240  121  122 am   BACKBONE|DICT|INTERRES
   241  121  123 2    
   242  122  242 1    
   243  122  243 1    
   244  124  125 1    
   245  124  244 1    
   246  124  245 1    
   247  125  126 1    
   248  126  246 1    
   249  126  247 1    
@<TRIPOS>SUBSTRUCTURE
     1 UNK         1 GROUP             0       ****    0 ROOT    
