@<TRIPOS>MOLECULE
3R540
247   249    1
SMALL
USER_CHARGES


@<TRIPOS>ATOM
      1 CA          3.7043  -18.1517  -49.9753 C.3       0 UNK        -0.1800 
      2 C           2.9113  -17.8387  -48.7157 C.2       0 UNK         0.5000 
      3 O           3.2532  -18.3266  -47.6404 O.2       0 UNK        -0.5000 
      4 N           1.8596  -17.0171  -48.8405 N.am      1 UNK        -0.5000 
      5 CA          0.9099  -16.6797  -47.7686 C.3       1 UNK         0.1400 
      6 C6         -0.2953  -15.8649  -48.2956 C.3       23 UNK        -0.0398 
      7 S7         -1.2820  -16.7603  -49.5401 S.3       23 UNK        -0.2404 
      8 C8         -2.3111  -15.3933  -50.1630 C.3       23 UNK        -0.0205 
      9 C9         -3.6685  -15.8751  -50.6523 C.ar      23 UNK        -0.0193 
     10 C10        -4.0412  -15.7325  -51.9921 C.ar      23 UNK        -0.1150 
     11 C11        -5.3196  -16.1105  -52.4160 C.ar      23 UNK        -0.0193 
     12 C12        -6.2132  -16.6587  -51.4899 C.ar      23 UNK        -0.1150 
     13 C13        -5.8509  -16.8285  -50.1501 C.ar      23 UNK        -0.0193 
     14 C14        -4.5774  -16.4152  -49.7396 C.ar      23 UNK        -0.1150 
     15 C15        -6.8847  -17.4221  -49.1915 C.3       23 UNK        -0.0205 
     16 S16        -6.3013  -17.7921  -47.4993 S.3       23 UNK        -0.2404 
     17 C17        -5.3395  -19.3296  -47.7360 C.3       23 UNK        -0.0398 
     18 CA         -3.8405  -19.2152  -47.3467 C.3       11 UNK         0.1400 
     19 N          -3.6436  -18.5134  -46.0715 N.am      11 UNK        -0.5000 
     20 C          -2.4702  -18.2751  -45.4699 C.2       10 UNK         0.5000 
     21 O          -1.3890  -18.6516  -45.9191 O.2       10 UNK        -0.5000 
     22 CA         -2.4984  -17.5364  -44.1169 C.3       10 UNK         0.1400 
     23 CB         -3.8703  -16.9241  -43.7587 C.3       10 UNK        -0.1800 
     24 N          -2.0273  -18.3902  -43.0223 N.am      10 UNK        -0.5000 
     25 C          -2.4823  -19.6029  -42.6684 C.2       9 UNK         0.5000 
     26 O          -3.3883  -20.1937  -43.2573 O.2       9 UNK        -0.5000 
     27 CA         -1.8128  -20.2717  -41.4487 C.3       9 UNK         0.1400 
     28 CB         -0.8732  -21.4033  -41.8923 C.3       9 UNK        -0.1800 
     29 N          -1.0579  -19.3166  -40.6314 N.am      9 UNK        -0.5000 
     30 C          -1.6049  -18.5320  -39.6909 C.2       8 UNK         0.5000 
     31 O          -2.7863  -18.5917  -39.3485 O.2       8 UNK        -0.5000 
     32 CA         -0.6820  -17.4746  -39.0583 C.3       8 UNK         0.1400 
     33 CB          0.1187  -18.0743  -37.8937 C.3       8 UNK        -0.1800 
     34 N           0.2252  -16.8878  -40.0493 N.am      8 UNK        -0.5000 
     35 C          -0.1781  -16.0263  -40.9956 C.2       7 UNK         0.5000 
     36 O          -1.3377  -15.6183  -41.0795 O.2       7 UNK        -0.5000 
     37 CA          0.8597  -15.5769  -42.0420 C.3       7 UNK         0.1400 
     38 CB          0.4357  -14.2907  -42.7855 C.3       7 UNK        -0.1800 
     39 N           2.2177  -15.4566  -41.5070 N.am      7 UNK        -0.5000 
     40 C           2.6577  -14.5574  -40.6153 C.2       6 UNK         0.5000 
     41 O           1.9408  -13.7135  -40.0735 O.2       6 UNK        -0.5000 
     42 CA          4.1621  -14.6269  -40.2843 C.3       6 UNK         0.1400 
     43 CB          4.6375  -13.4888  -39.3554 C.3       6 UNK        -0.1800 
     44 N           4.5514  -15.9354  -39.7517 N.am      6 UNK        -0.5000 
     45 C           4.1158  -16.5146  -38.6228 C.2       5 UNK         0.5000 
     46 O           3.3137  -15.9995  -37.8426 O.2       5 UNK        -0.5000 
     47 CA          4.6916  -17.9169  -38.3346 C.3       5 UNK         0.1400 
     48 CB          3.9992  -18.6307  -37.1547 C.3       5 UNK        -0.1800 
     49 N           4.7134  -18.7821  -39.5208 N.am      5 UNK        -0.5000 
     50 C           3.6602  -19.1583  -40.2607 C.2       4 UNK         0.5000 
     51 O           2.5052  -18.7675  -40.0768 O.2       4 UNK        -0.5000 
     52 CA          3.9845  -20.1084  -41.4286 C.3       4 UNK         0.1400 
     53 CB          2.7387  -20.8594  -41.9375 C.3       4 UNK        -0.1800 
     54 N           4.6602  -19.4147  -42.5320 N.am      4 UNK        -0.5000 
     55 C           4.1853  -18.3863  -43.2511 C.2       3 UNK         0.5000 
     56 O           3.0975  -17.8494  -43.0359 O.2       3 UNK        -0.5000 
     57 CA          5.0865  -17.8852  -44.4011 C.3       3 UNK         0.1400 
     58 CB          5.5226  -19.0312  -45.3326 C.3       3 UNK        -0.1800 
     59 N           4.4311  -16.8523  -45.2059 N.am      3 UNK        -0.5000 
     60 C           4.2830  -15.5733  -44.8310 C.2       2 UNK         0.5000 
     61 O           4.7460  -15.1178  -43.7843 O.2       2 UNK        -0.5000 
     62 CA          3.5156  -14.6279  -45.7785 C.3       2 UNK         0.1400 
     63 CB          4.4908  -13.6772  -46.4903 C.3       2 UNK        -0.1800 
     64 N           2.7206  -15.3221  -46.7914 N.am      2 UNK        -0.5000 
     65 C           1.5552  -15.9467  -46.5701 C.2       1 UNK         0.5000 
     66 O           0.9845  -15.9572  -45.4812 O.2       1 UNK        -0.5000 
     67 C          -3.2026  -20.6212  -47.3550 C.2       11 UNK         0.5000 
     68 O          -2.6511  -21.0410  -48.3744 O.2       11 UNK        -0.5000 
     69 N          -3.2682  -21.3182  -46.2099 N.am      12 UNK        -0.5000 
     70 CA         -2.7233  -22.6621  -46.0211 C.3       12 UNK         0.1400 
     71 CB         -3.3050  -23.2855  -44.7453 C.3       12 UNK        -0.1800 
     72 C          -1.1840  -22.7098  -46.0210 C.2       12 UNK         0.5000 
     73 O          -0.6280  -23.7656  -46.3234 O.2       12 UNK        -0.5000 
     74 N          -0.5157  -21.5742  -45.7597 N.am      13 UNK        -0.5000 
     75 CA          0.9413  -21.4372  -45.8755 C.3       13 UNK         0.1400 
     76 CB          1.3867  -20.1008  -45.2639 C.3       13 UNK        -0.1800 
     77 C           1.4220  -21.5431  -47.3373 C.2       13 UNK         0.5000 
     78 O           2.5407  -21.9941  -47.5817 O.2       13 UNK        -0.5000 
     79 N           0.5422  -21.1718  -48.2770 N.am      14 UNK        -0.5000 
     80 CA          0.7310  -21.2877  -49.7197 C.3       14 UNK         0.1400 
     81 CB          0.1598  -20.0235  -50.3820 C.3       14 UNK        -0.1800 
     82 C           0.0679  -22.5565  -50.2933 C.2       14 UNK         0.5000 
     83 O          -0.1457  -22.6150  -51.5027 O.2       14 UNK        -0.5000 
     84 N          -0.2803  -23.5340  -49.4404 N.am      15 UNK        -0.5000 
     85 CA         -0.9850  -24.7791  -49.7767 C.3       15 UNK         0.1400 
     86 CB         -0.1160  -25.6850  -50.6745 C.3       15 UNK        -0.1800 
     87 C          -2.3853  -24.5064  -50.3648 C.2       15 UNK         0.5000 
     88 O          -2.7153  -24.9768  -51.4560 O.2       15 UNK        -0.5000 
     89 N          -3.1617  -23.6972  -49.6297 N.am      16 UNK        -0.5000 
     90 CA         -4.4920  -23.1854  -49.9747 C.3       16 UNK         0.1400 
     91 CB         -5.5221  -24.3305  -50.0713 C.3       16 UNK        -0.1800 
     92 C          -4.4427  -22.3003  -51.2337 C.2       16 UNK         0.5000 
     93 O          -5.2766  -22.4537  -52.1246 O.2       16 UNK        -0.5000 
     94 N          -3.4282  -21.4239  -51.2952 N.am      17 UNK        -0.5000 
     95 CA         -3.0683  -20.5748  -52.4380 C.3       17 UNK         0.1400 
     96 CB         -4.1098  -19.4563  -52.6222 C.3       17 UNK        -0.1800 
     97 C          -2.8234  -21.3985  -53.7210 C.2       17 UNK         0.5000 
     98 O          -3.4070  -21.1121  -54.7673 O.2       17 UNK        -0.5000 
     99 N          -1.9927  -22.4426  -53.5851 N.am      18 UNK        -0.5000 
    100 CA        -1.6582  -23.4657  -54.5789 C.3       18 UNK         0.1400 
    101 CB        -0.7282  -22.8793  -55.6591 C.3       18 UNK        -0.1800 
    102 C         -2.9095  -24.1641  -55.1504 C.2       18 UNK         0.5000 
    103 O         -3.0587  -24.2717  -56.3684 O.2       18 UNK        -0.5000 
    104 N         -3.7939  -24.6005  -54.2410 N.am      19 UNK        -0.5000 
    105 CA        -5.1192  -25.1729  -54.4994 C.3       19 UNK         0.1400 
    106 CB        -4.9999  -26.5508  -55.1837 C.3       19 UNK        -0.1800 
    107 C         -6.0475  -24.1921  -55.2507 C.2       19 UNK         0.5000 
    108 O         -6.6251  -24.5418  -56.2822 O.2       19 UNK        -0.5000 
    109 N         -6.1677  -22.9784  -54.6958 N.am      20 UNK        -0.5000 
    110 CA        -6.9929  -21.8540  -55.1419 C.3       20 UNK         0.1400 
    111 CB        -8.4901  -22.1795  -54.9634 C.3       20 UNK        -0.1800 
    112 C         -6.6465  -21.3533  -56.5588 C.2       20 UNK         0.5000 
    113 O         -7.5440  -21.0328  -57.3409 O.2       20 UNK        -0.5000 
    114 N         -5.3469  -21.2477  -56.8609 N.am      21 UNK        -0.5000 
    115 CA        -4.8094  -20.7293  -58.1214 C.3       21 UNK         0.1400 
    116 CB        -3.4636  -21.4149  -58.4085 C.3       21 UNK        -0.1800 
    117 C         -4.6967  -19.1889  -58.0986 C.2       21 UNK         0.5000 
    118 O         -3.6697  -18.6315  -58.4911 O.2       21 UNK        -0.5000 
    119 N         -5.7558  -18.5264  -57.6220 N.am      22 UNK        -0.5000 
    120 CA        -5.8497  -17.0679  -57.4540 C.3       22 UNK         0.1400 
    121 C         -6.1956  -16.2910  -58.7590 C.2       22 UNK         0.5000 
    122 N         -6.5212  -16.9491  -59.8652 N.am      22 UNK        -0.7600 
    123 O         -6.1585  -15.0636  -58.7711 O.2       22 UNK        -0.5000 
    124 C124       -6.8297  -16.6998  -56.3110 C.3       23 UNK        -0.0398 
    125 S125       -6.3166  -17.3839  -54.6959 S.3       23 UNK        -0.2404 
    126 C126       -5.7573  -15.8672  -53.8552 C.3       23 UNK        -0.0205 
    127 H127        3.6952  -19.2255  -50.1626 H         1 UNK         0.0600 
    128 H128        4.7399  -17.8334  -49.8557 H         1 UNK         0.0600 
    129 H129        3.2907  -17.6502  -50.8505 H         1 UNK         0.0600 
    130 H130        1.6283  -16.6467  -49.7514 H         1 UNK         0.3000 
    131 H131        0.5255  -17.6248  -47.3846 H         1 UNK         0.0600 
    132 H132       -0.9700  -15.6101  -47.4756 H         1 UNK         0.0800 
    133 H133        0.0439  -14.9193  -48.7228 H         1 UNK         0.0800 
    134 H134       -2.4754  -14.6618  -49.3703 H         1 UNK         0.0800 
    135 H135       -1.7697  -14.8735  -50.9549 H         1 UNK         0.0800 
    136 H136       -3.3475  -15.2973  -52.6976 H         1 UNK         0.1150 
    137 H137       -7.2030  -16.9466  -51.8161 H         1 UNK         0.1150 
    138 H138       -4.2767  -16.4962  -48.7061 H         1 UNK         0.1150 
    139 H139       -7.7101  -16.7137  -49.1094 H         1 UNK         0.0800 
    140 H140       -7.3053  -18.3300  -49.6266 H         1 UNK         0.0800 
    141 H141       -5.4269  -19.6556  -48.7743 H         1 UNK         0.0800 
    142 H142       -5.8340  -20.0979  -47.1380 H         1 UNK         0.0800 
    143 H143       -3.3301  -18.6296  -48.1130 H         1 UNK         0.0600 
    144 H144       -4.4863  -18.1798  -45.6260 H         1 UNK         0.3000 
    145 H145       -1.7818  -16.7181  -44.2041 H         1 UNK         0.0600 
    146 H146       -3.8030  -16.3433  -42.8384 H         1 UNK         0.0600 
    147 H147       -4.2169  -16.2453  -44.5392 H         1 UNK         0.0600 
    148 H148       -4.6369  -17.6853  -43.6093 H         1 UNK         0.0600 
    149 H149       -1.2774  -18.0070  -42.4691 H         1 UNK         0.3000 
    150 H150       -2.6035  -20.7141  -40.8390 H         1 UNK         0.0600 
    151 H151       -0.3253  -21.8196  -41.0469 H         1 UNK         0.0600 
    152 H152       -1.4327  -22.2215  -42.3430 H         1 UNK         0.0600 
    153 H153       -0.1491  -21.0635  -42.6299 H         1 UNK         0.0600 
    154 H154       -0.0695  -19.2216  -40.8221 H         1 UNK         0.3000 
    155 H155       -1.3091  -16.6769  -38.6540 H         1 UNK         0.0600 
    156 H156       -0.5469  -18.3924  -37.0906 H         1 UNK         0.0600 
    157 H157        0.8125  -17.3460  -37.4732 H         1 UNK         0.0600 
    158 H158        0.6914  -18.9481  -38.2036 H         1 UNK         0.0600 
    159 H159        1.1805  -17.2334  -40.0546 H         1 UNK         0.3000 
    160 H160        0.9009  -16.3774  -42.7811 H         1 UNK         0.0600 
    161 H161       -0.4741  -14.4586  -43.3628 H         1 UNK         0.0600 
    162 H162        1.2042  -13.9666  -43.4852 H         1 UNK         0.0600 
    163 H163        0.2384  -13.4669  -42.0994 H         1 UNK         0.0600 
    164 H164        2.8680  -16.1408  -41.8801 H         1 UNK         0.3000 
    165 H165        4.6926  -14.5082  -41.2290 H         1 UNK         0.0600 
    166 H166        5.7106  -13.5502  -39.1748 H         1 UNK         0.0600 
    167 H167        4.4395  -12.5147  -39.8041 H         1 UNK         0.0600 
    168 H168        4.1332  -13.5096  -38.3890 H         1 UNK         0.0600 
    169 H169        5.1920  -16.4636  -40.3264 H         1 UNK         0.3000 
    170 H170        5.7330  -17.7588  -38.0503 H         1 UNK         0.0600 
    171 H171        4.0655  -18.0362  -36.2428 H         1 UNK         0.0600 
    172 H172        2.9432  -18.8100  -37.3520 H         1 UNK         0.0600 
    173 H173        4.4678  -19.5927  -36.9476 H         1 UNK         0.0600 
    174 H174        5.6240  -19.1343  -39.7815 H         1 UNK         0.3000 
    175 H175        4.6826  -20.8575  -41.0518 H         1 UNK         0.0600 
    176 H176        2.9861  -21.5320  -42.7586 H         1 UNK         0.0600 
    177 H177        2.2958  -21.4603  -41.1426 H         1 UNK         0.0600 
    178 H178        1.9735  -20.1683  -42.2869 H         1 UNK         0.0600 
    179 H179        5.5735  -19.7756  -42.7690 H         1 UNK         0.3000 
    180 H180        5.9831  -17.4546  -43.9507 H         1 UNK         0.0600 
    181 H181        4.6673  -19.5740  -45.7348 H         1 UNK         0.0600 
    182 H182        6.1540  -19.7525  -44.8137 H         1 UNK         0.0600 
    183 H183        6.1002  -18.6536  -46.1767 H         1 UNK         0.0600 
    184 H184        3.9754  -17.1722  -46.0535 H         1 UNK         0.3000 
    185 H185        2.8441  -14.0256  -45.1648 H         1 UNK         0.0600 
    186 H186        5.1882  -14.2207  -47.1290 H         1 UNK         0.0600 
    187 H187        3.9578  -12.9561  -47.1103 H         1 UNK         0.0600 
    188 H188        5.0805  -13.1094  -45.7693 H         1 UNK         0.0600 
    189 H189        3.1157  -15.3743  -47.7189 H         1 UNK         0.3000 
    190 H190       -3.6720  -20.8782  -45.3907 H         1 UNK         0.3000 
    191 H191       -3.0592  -23.2765  -46.8575 H         1 UNK         0.0600 
    192 H192       -4.3918  -23.3491  -44.7997 H         1 UNK         0.0600 
    193 H193       -2.9281  -24.2983  -44.5967 H         1 UNK         0.0600 
    194 H194       -3.0507  -22.7088  -43.8589 H         1 UNK         0.0600 
    195 H195       -1.0337  -20.7198  -45.5877 H         1 UNK         0.3000 
    196 H196        1.4006  -22.2457  -45.3029 H         1 UNK         0.0600 
    197 H197        2.4603  -20.1024  -45.0820 H         1 UNK         0.0600 
    198 H198        0.8925  -19.8968  -44.3164 H         1 UNK         0.0600 
    199 H199        1.1764  -19.2616  -45.9247 H         1 UNK         0.0600 
    200 H200       -0.3666  -20.8412  -47.9793 H         1 UNK         0.3000 
    201 H201        1.7952  -21.3438  -49.9561 H         1 UNK         0.0600 
    202 H202        0.6564  -19.1306  -50.0131 H         1 UNK         0.0600 
    203 H203       -0.9052  -19.9102  -50.1798 H         1 UNK         0.0600 
    204 H204        0.2980  -20.0382  -51.4636 H         1 UNK         0.0600 
    205 H205       -0.0725  -23.4053  -48.4580 H         1 UNK         0.3000 
    206 H206       -1.1438  -25.3077  -48.8355 H         1 UNK         0.0600 
    207 H207        0.0518  -25.2486  -51.6594 H         1 UNK         0.0600 
    208 H208        0.8571  -25.8718  -50.2205 H         1 UNK         0.0600 
    209 H209       -0.5945  -26.6531  -50.8268 H         1 UNK         0.0600 
    210 H210       -2.7476  -23.2764  -48.8104 H         1 UNK         0.3000 
    211 H211       -4.8046  -22.5375  -49.1554 H         1 UNK         0.0600 
    212 H212       -5.3177  -24.9962  -50.9101 H         1 UNK         0.0600 
    213 H213       -6.5296  -23.9363  -50.2084 H         1 UNK         0.0600 
    214 H214       -5.5299  -24.9304  -49.1615 H         1 UNK         0.0600 
    215 H215       -2.8206  -21.3636  -50.4868 H         1 UNK         0.3000 
    216 H216       -2.1190  -20.0985  -52.1963 H         1 UNK         0.0600 
    217 H217       -5.0878  -19.8474  -52.9025 H         1 UNK         0.0600 
    218 H218       -4.2293  -18.8825  -51.7037 H         1 UNK         0.0600 
    219 H219       -3.8001  -18.7593  -53.4015 H         1 UNK         0.0600 
    220 H220       -1.5198  -22.5610  -52.6911 H         1 UNK         0.3000 
    221 H221       -1.0980  -24.2359  -54.0466 H         1 UNK         0.0600 
    222 H222       -1.2083  -22.0737  -56.2120 H         1 UNK         0.0600 
    223 H223        0.1831  -22.4799  -55.2140 H         1 UNK         0.0600 
    224 H224       -0.4301  -23.6425  -56.3787 H         1 UNK         0.0600 
    225 H225       -3.5490  -24.4927  -53.2610 H         1 UNK         0.3000 
    226 H226       -5.5744  -25.3337  -53.5210 H         1 UNK         0.0600 
    227 H227       -4.3627  -27.2220  -54.6080 H         1 UNK         0.0600 
    228 H228       -5.9772  -27.0269  -55.2712 H         1 UNK         0.0600 
    229 H229       -4.5844  -26.4733  -56.1887 H         1 UNK         0.0600 
    230 H230       -5.6642  -22.8058  -53.8259 H         1 UNK         0.3000 
    231 H231       -6.7569  -21.0278  -54.4695 H         1 UNK         0.0600 
    232 H232       -8.7048  -22.4953  -53.9425 H         1 UNK         0.0600 
    233 H233       -9.1080  -21.3042  -55.1672 H         1 UNK         0.0600 
    234 H234       -8.8146  -22.9738  -55.6364 H         1 UNK         0.0600 
    235 H235       -4.6627  -21.4298  -56.1289 H         1 UNK         0.3000 
    236 H236       -5.4890  -20.9895  -58.9352 H         1 UNK         0.0600 
    237 H237       -3.0685  -21.1166  -59.3802 H         1 UNK         0.0600 
    238 H238       -2.7200  -21.1554  -57.6559 H         1 UNK         0.0600 
    239 H239       -3.5674  -22.4999  -58.4202 H         1 UNK         0.0600 
    240 H240       -6.5661  -19.0646  -57.3444 H         1 UNK         0.3000 
    241 H241       -4.8631  -16.7060  -57.1579 H         1 UNK         0.0600 
    242 H242       -6.7377  -16.4343  -60.7047 H         1 UNK         0.3800 
    243 H243       -6.5544  -17.9559  -59.8718 H         1 UNK         0.3800 
    244 H244       -7.8299  -17.0728  -56.5371 H         1 UNK         0.0800 
    245 H245       -6.9294  -15.6166  -56.2216 H         1 UNK         0.0800 
    246 H246       -4.9457  -15.4245  -54.4348 H         1 UNK         0.0800 
    247 H247       -6.5692  -15.1386  -53.8492 H         1 UNK         0.0800 
@<TRIPOS>BOND
     1    1    2 1    
     2    1  127 1    
     3    1  128 1    
     4    1  129 1    
     5    2    3 2    
     6    2    4 am   BACKBONE|DICT|INTERRES
     7    4    5 1    
     8    4  130 1    
     9    5    6 1    
    10    5   65 1    
    11    5  131 1    
    12    6    7 1    
    13    6  132 1    
    14    6  133 1    
    15    7    8 1    
    16    8    9 1    
    17    8  134 1    
    18    8  135 1    
    19    9   10 ar   
    20    9   14 ar   
    21   10   11 ar   
    22   10  136 1    
    23   11   12 ar   
    24   11  126 1    
    25   12   13 ar   
    26   12  137 1    
    27   13   14 ar   
    28   13   15 1    
    29   14  138 1    
    30   15   16 1    
    31   15  139 1    
    32   15  140 1    
    33   16   17 1    
    34   17   18 1    
    35   17  141 1    
    36   17  142 1    
    37   18   19 1    
    38   18   67 1    
    39   18  143 1    
    40   19   20 am   BACKBONE|DICT|INTERRES
    41   19  144 1    
    42   20   21 2    
    43   20   22 1    
    44   22   23 1    
    45   22   24 1    
    46   22  145 1    
    47   23  146 1    
    48   23  147 1    
    49   23  148 1    
    50   24   25 am   BACKBONE|DICT|INTERRES
    51   24  149 1    
    52   25   26 2    
    53   25   27 1    
    54   27   28 1    
    55   27   29 1    
    56   27  150 1    
    57   28  151 1    
    58   28  152 1    
    59   28  153 1    
    60   29   30 am   BACKBONE|DICT|INTERRES
    61   29  154 1    
    62   30   31 2    
    63   30   32 1    
    64   32   33 1    
    65   32   34 1    
    66   32  155 1    
    67   33  156 1    
    68   33  157 1    
    69   33  158 1    
    70   34   35 am   BACKBONE|DICT|INTERRES
    71   34  159 1    
    72   35   36 2    
    73   35   37 1    
    74   37   38 1    
    75   37   39 1    
    76   37  160 1    
    77   38  161 1    
    78   38  162 1    
    79   38  163 1    
    80   39   40 am   BACKBONE|DICT|INTERRES
    81   39  164 1    
    82   40   41 2    
    83   40   42 1    
    84   42   43 1    
    85   42   44 1    
    86   42  165 1    
    87   43  166 1    
    88   43  167 1    
    89   43  168 1    
    90   44   45 am   BACKBONE|DICT|INTERRES
    91   44  169 1    
    92   45   46 2    
    93   45   47 1    
    94   47   48 1    
    95   47   49 1    
    96   47  170 1    
    97   48  171 1    
    98   48  172 1    
    99   48  173 1    
   100   49   50 am   BACKBONE|DICT|INTERRES
   101   49  174 1    
   102   50   51 2    
   103   50   52 1    
   104   52   53 1    
   105   52   54 1    
   106   52  175 1    
   107   53  176 1    
   108   53  177 1    
   109   53  178 1    
   110   54   55 am   BACKBONE|DICT|INTERRES
   111   54  179 1    
   112   55   56 2    
   113   55   57 1    
   114   57   58 1    
   115   57   59 1    
   116   57  180 1    
   117   58  181 1    
   118   58  182 1    
   119   58  183 1    
   120   59   60 am   BACKBONE|DICT|INTERRES
   121   59  184 1    
   122   60   61 2    
   123   60   62 1    
   124   62   63 1    
   125   62   64 1    
   126   62  185 1    
   127   63  186 1    
   128   63  187 1    
   129   63  188 1    
   130   64   65 am   BACKBONE|DICT|INTERRES
   131   64  189 1    
   132   65   66 2    
   133   67   68 2    
   134   67   69 am   BACKBONE|DICT|INTERRES
   135   69   70 1    
   136   69  190 1    
   137   70   71 1    
   138   70   72 1    
   139   70  191 1    
   140   71  192 1    
   141   71  193 1    
   142   71  194 1    
   143   72   73 2    
   144   72   74 am   BACKBONE|DICT|INTERRES
   145   74   75 1    
   146   74  195 1    
   147   75   76 1    
   148   75   77 1    
   149   75  196 1    
   150   76  197 1    
   151   76  198 1    
   152   76  199 1    
   153   77   78 2    
   154   77   79 am   BACKBONE|DICT|INTERRES
   155   79   80 1    
   156   79  200 1    
   157   80   81 1    
   158   80   82 1    
   159   80  201 1    
   160   81  202 1    
   161   81  203 1    
   162   81  204 1    
   163   82   83 2    
   164   82   84 am   BACKBONE|DICT|INTERRES
   165   84   85 1    
   166   84  205 1    
   167   85   86 1    
   168   85   87 1    
   169   85  206 1    
   170   86  207 1    
   171   86  208 1    
   172   86  209 1    
   173   87   88 2    
   174   87   89 am   BACKBONE|DICT|INTERRES
   175   89   90 1    
   176   89  210 1    
   177   90   91 1    
   178   90   92 1    
   179   90  211 1    
   180   91  212 1    
   181   91  213 1    
   182   91  214 1    
   183   92   93 2    
   184   92   94 am   BACKBONE|DICT|INTERRES
   185   94   95 1    
   186   94  215 1    
   187   95   96 1    
   188   95   97 1    
   189   95  216 1    
   190   96  217 1    
   191   96  218 1    
   192   96  219 1    
   193   97   98 2    
   194   97   99 am   BACKBONE|DICT|INTERRES
   195   99  100 1    
   196   99  220 1    
   197  100  101 1    
   198  100  102 1    
   199  100  221 1    
   200  101  222 1    
   201  101  223 1    
   202  101  224 1    
   203  102  103 2    
   204  102  104 am   BACKBONE|DICT|INTERRES
   205  104  105 1    
   206  104  225 1    
   207  105  106 1    
   208  105  107 1    
   209  105  226 1    
   210  106  227 1    
   211  106  228 1    
   212  106  229 1    
   213  107  108 2    
   214  107  109 am   BACKBONE|DICT|INTERRES
   215  109  110 1    
   216  109  230 1    
   217  110  111 1    
   218  110  112 1    
   219  110  231 1    
   220  111  232 1    
   221  111  233 1    
   222  111  234 1    
   223  112  113 2    
   224  112  114 am   BACKBONE|DICT|INTERRES
   225  114  115 1    
   226  114  235 1    
   227  115  116 1    
   228  115  117 1    
   229  115  236 1    
   230  116  237 1    
   231  116  238 1    
   232  116  239 1    
   233  117  118 2    
   234  117  119 am   BACKBONE|DICT|INTERRES
   235  119  120 1    
   236  119  240 1    
   237  120  121 1    
   238  120  124 1    
   239  120  241 1    
   240  121  122 am   BACKBONE|DICT|INTERRES
   241  121  123 2    
   242  122  242 1    
   243  122  243 1    
   244  124  125 1    
   245  124  244 1    
   246  124  245 1    
   247  125  126 1    
   248  126  246 1    
   249  126  247 1    
@<TRIPOS>SUBSTRUCTURE
     1 UNK         1 GROUP             0       ****    0 ROOT    
