@<TRIPOS>MOLECULE
3R540
247   249    1
SMALL
USER_CHARGES


@<TRIPOS>ATOM
      1 CA         -6.1508  -10.8060  -44.8703 C.3       0 UNK        -0.1800 
      2 C          -4.9813  -10.4164  -45.7637 C.2       0 UNK         0.5000 
      3 O          -4.6576   -9.2328  -45.8676 O.2       0 UNK        -0.5000 
      4 N          -4.3535  -11.4041  -46.4137 N.am      1 UNK        -0.5000 
      5 CA         -3.1689  -11.2327  -47.2580 C.3       1 UNK         0.1400 
      6 C6         -2.9400  -12.4793  -48.1455 C.3       23 UNK        -0.0398 
      7 S7         -1.6682  -12.2176  -49.4283 S.3       23 UNK        -0.2404 
      8 C8         -2.2224  -13.3600  -50.7337 C.3       23 UNK        -0.0205 
      9 C9         -2.2072  -14.8168  -50.2884 C.ar      23 UNK        -0.0193 
     10 C10        -3.3782  -15.5782  -50.3341 C.ar      23 UNK        -0.1150 
     11 C11        -3.3596  -16.9274  -49.9721 C.ar      23 UNK        -0.0193 
     12 C12        -2.1625  -17.5072  -49.5465 C.ar      23 UNK        -0.1150 
     13 C13        -0.9802  -16.7590  -49.4820 C.ar      23 UNK        -0.0193 
     14 C14        -1.0165  -15.4147  -49.8636 C.ar      23 UNK        -0.1150 
     15 C15         0.3617  -17.3457  -49.0338 C.3       23 UNK        -0.0205 
     16 S16         0.3471  -19.0668  -48.4203 S.3       23 UNK        -0.2404 
     17 C17        -0.6792  -18.9280  -46.9174 C.3       23 UNK        -0.0398 
     18 CA         -1.6540  -20.1221  -46.8052 C.3       11 UNK         0.1400 
     19 N          -0.9301  -21.3691  -46.5539 N.am      11 UNK        -0.5000 
     20 C          -1.3428  -22.5728  -46.9653 C.2       10 UNK         0.5000 
     21 O          -2.4693  -22.7873  -47.4117 O.2       10 UNK        -0.5000 
     22 CA         -0.3273  -23.7223  -46.8925 C.3       10 UNK         0.1400 
     23 CB          0.6376  -23.6495  -48.0859 C.3       10 UNK        -0.1800 
     24 N           0.4412  -23.6633  -45.6519 N.am      10 UNK        -0.5000 
     25 C           0.3231  -24.5343  -44.6415 C.2       9 UNK         0.5000 
     26 O          -0.3745  -25.5478  -44.6882 O.2       9 UNK        -0.5000 
     27 CA          1.0995  -24.2198  -43.3446 C.3       9 UNK         0.1400 
     28 CB          2.4204  -25.0031  -43.3083 C.3       9 UNK        -0.1800 
     29 N           1.3874  -22.7975  -43.1389 N.am      9 UNK        -0.5000 
     30 C           0.4697  -21.8257  -43.0475 C.2       8 UNK         0.5000 
     31 O          -0.7429  -22.0176  -43.1277 O.2       8 UNK        -0.5000 
     32 CA          0.9874  -20.3837  -42.9055 C.3       8 UNK         0.1400 
     33 CB          1.1516  -20.0413  -41.4175 C.3       8 UNK        -0.1800 
     34 N           2.2362  -20.0925  -43.6211 N.am      8 UNK        -0.5000 
     35 C           2.4899  -20.3441  -44.9167 C.2       7 UNK         0.5000 
     36 O           1.7198  -20.9690  -45.6495 O.2       7 UNK        -0.5000 
     37 CA          3.8218  -19.8108  -45.4761 C.3       7 UNK         0.1400 
     38 CB          3.7958  -19.6174  -47.0023 C.3       7 UNK        -0.1800 
     39 N           4.1643  -18.5393  -44.8426 N.am      7 UNK        -0.5000 
     40 C           5.3495  -18.2302  -44.3000 C.2       6 UNK         0.5000 
     41 O           6.3173  -18.9918  -44.2967 O.2       6 UNK        -0.5000 
     42 CA          5.4851  -16.8414  -43.6374 C.3       6 UNK         0.1400 
     43 CB          6.2644  -15.8856  -44.5533 C.3       6 UNK        -0.1800 
     44 N           4.2007  -16.2264  -43.2929 N.am      6 UNK        -0.5000 
     45 C           3.3557  -16.6932  -42.3607 C.2       5 UNK         0.5000 
     46 O           3.6169  -17.6517  -41.6341 O.2       5 UNK        -0.5000 
     47 CA          1.9728  -16.0166  -42.2451 C.3       5 UNK         0.1400 
     48 CB          1.9377  -15.0708  -41.0357 C.3       5 UNK        -0.1800 
     49 N           1.5655  -15.2740  -43.4394 N.am      5 UNK        -0.5000 
     50 C           1.3983  -15.7869  -44.6671 C.2       4 UNK         0.5000 
     51 O           1.5256  -16.9831  -44.9291 O.2       4 UNK        -0.5000 
     52 CA          1.1030  -14.7860  -45.8008 C.3       4 UNK         0.1400 
     53 CB         -0.3886  -14.7854  -46.1577 C.3       4 UNK        -0.1800 
     54 N           1.5227  -13.4119  -45.5059 N.am      4 UNK        -0.5000 
     55 C           2.7929  -13.0122  -45.3433 C.2       3 UNK         0.5000 
     56 O           3.7457  -13.7926  -45.3661 O.2       3 UNK        -0.5000 
     57 CA          3.0509  -11.5162  -45.0536 C.3       3 UNK         0.1400 
     58 CB          4.2221  -10.9624  -45.8913 C.3       3 UNK        -0.1800 
     59 N           1.8707  -10.6444  -45.1579 N.am      3 UNK        -0.5000 
     60 C           1.1591  -10.3524  -46.2558 C.2       2 UNK         0.5000 
     61 O           1.3913  -10.8079  -47.3771 O.2       2 UNK        -0.5000 
     62 CA         -0.0113   -9.3720  -46.0598 C.3       2 UNK         0.1400 
     63 CB          0.3613   -7.9738  -46.5765 C.3       2 UNK        -0.1800 
     64 N          -1.2199   -9.8293  -46.7429 N.am      2 UNK        -0.5000 
     65 C          -1.9374  -10.9017  -46.3850 C.2       1 UNK         0.5000 
     66 O          -1.6664  -11.6133  -45.4137 O.2       1 UNK        -0.5000 
     67 C          -2.7614  -19.8227  -45.7786 C.2       11 UNK         0.5000 
     68 O          -3.7217  -19.1429  -46.1405 O.2       11 UNK        -0.5000 
     69 N          -2.6241  -20.3068  -44.5377 N.am      12 UNK        -0.5000 
     70 CA         -3.5537  -20.0149  -43.4413 C.3       12 UNK         0.1400 
     71 CB         -2.7915  -19.3300  -42.2948 C.3       12 UNK        -0.1800 
     72 C          -4.2521  -21.2879  -42.9446 C.2       12 UNK         0.5000 
     73 O          -5.4590  -21.2657  -42.7035 O.2       12 UNK        -0.5000 
     74 N          -3.4885  -22.3802  -42.8161 N.am      13 UNK        -0.5000 
     75 CA         -3.9570  -23.6800  -42.3337 C.3       13 UNK         0.1400 
     76 CB         -2.7390  -24.5042  -41.8900 C.3       13 UNK        -0.1800 
     77 C          -4.7907  -24.4624  -43.3673 C.2       13 UNK         0.5000 
     78 O          -5.4517  -25.4313  -42.9900 O.2       13 UNK        -0.5000 
     79 N          -4.7452  -24.0440  -44.6383 N.am      14 UNK        -0.5000 
     80 CA         -5.4810  -24.6588  -45.7415 C.3       14 UNK         0.1400 
     81 CB         -4.5675  -25.6451  -46.4900 C.3       14 UNK        -0.1800 
     82 C          -6.0597  -23.6089  -46.7005 C.2       14 UNK         0.5000 
     83 O          -7.1951  -23.7761  -47.1457 O.2       14 UNK        -0.5000 
     84 N          -5.2687  -22.5686  -47.0126 N.am      15 UNK        -0.5000 
     85 CA         -5.4818  -21.5958  -48.0932 C.3       15 UNK         0.1400 
     86 CB         -6.7513  -20.7475  -47.8748 C.3       15 UNK        -0.1800 
     87 C          -5.4339  -22.3177  -49.4529 C.2       15 UNK         0.5000 
     88 O          -6.4039  -22.3072  -50.2139 O.2       15 UNK        -0.5000 
     89 N          -4.3072  -23.0072  -49.6776 N.am      16 UNK        -0.5000 
     90 CA         -4.0575  -23.9576  -50.7594 C.3       16 UNK         0.1400 
     91 CB         -2.8398  -24.8156  -50.3755 C.3       16 UNK        -0.1800 
     92 C          -3.9127  -23.3078  -52.1522 C.2       16 UNK         0.5000 
     93 O          -2.8834  -23.4631  -52.8138 O.2       16 UNK        -0.5000 
     94 N          -4.9702  -22.6258  -52.6056 N.am      17 UNK        -0.5000 
     95 CA         -5.1018  -22.0463  -53.9446 C.3       17 UNK         0.1400 
     96 CB         -6.4205  -21.2649  -54.0296 C.3       17 UNK        -0.1800 
     97 C          -5.0203  -23.0990  -55.0680 C.2       17 UNK         0.5000 
     98 O          -4.4977  -22.8012  -56.1410 O.2       17 UNK        -0.5000 
     99 N          -5.4722  -24.3282  -54.7786 N.am      18 UNK        -0.5000 
    100 CA        -5.3584  -25.5000  -55.6519 C.3       18 UNK         0.1400 
    101 CB        -6.2080  -26.6390  -55.0682 C.3       18 UNK        -0.1800 
    102 C         -3.9040  -25.9701  -55.8680 C.2       18 UNK         0.5000 
    103 O         -3.6129  -26.5730  -56.9012 O.2       18 UNK        -0.5000 
    104 N         -3.0171  -25.6666  -54.9094 N.am      19 UNK        -0.5000 
    105 CA        -1.5727  -25.9000  -54.9880 C.3       19 UNK         0.1400 
    106 CB        -1.0680  -26.3399  -53.6033 C.3       19 UNK        -0.1800 
    107 C         -0.8141  -24.6457  -55.4714 C.2       19 UNK         0.5000 
    108 O          0.4171  -24.6586  -55.4931 O.2       19 UNK        -0.5000 
    109 N         -1.5555  -23.5853  -55.8288 N.am      20 UNK        -0.5000 
    110 CA        -1.0973  -22.2640  -56.2622 C.3       20 UNK         0.1400 
    111 CB        -0.2720  -22.3565  -57.5629 C.3       20 UNK        -0.1800 
    112 C         -0.3888  -21.4505  -55.1592 C.2       20 UNK         0.5000 
    113 O          0.3145  -20.4913  -55.4822 O.2       20 UNK        -0.5000 
    114 N         -0.6129  -21.7926  -53.8787 N.am      21 UNK        -0.5000 
    115 CA        -0.0488  -21.0775  -52.7259 C.3       21 UNK         0.1400 
    116 CB        -0.3514  -21.8491  -51.4316 C.3       21 UNK        -0.1800 
    117 C         -0.5652  -19.6302  -52.6251 C.2       21 UNK         0.5000 
    118 O          0.1963  -18.7301  -52.2734 O.2       21 UNK        -0.5000 
    119 N         -1.8372  -19.4431  -52.9956 N.am      22 UNK        -0.5000 
    120 CA        -2.5156  -18.1428  -53.0917 C.3       22 UNK         0.1400 
    121 C         -2.2358  -17.3733  -54.4179 C.2       22 UNK         0.5000 
    122 N         -1.3913  -17.8628  -55.3196 N.am      22 UNK        -0.7600 
    123 O         -2.7930  -16.3013  -54.6359 O.2       22 UNK        -0.5000 
    124 C124       -4.0400  -18.2652  -52.8122 C.3       23 UNK        -0.0398 
    125 S125       -4.4312  -19.1488  -51.2581 S.3       23 UNK        -0.2404 
    126 C126       -4.6206  -17.7738  -50.0753 C.3       23 UNK        -0.0205 
    127 H127       -6.3288  -11.8816  -44.8807 H         1 UNK         0.0600 
    128 H128       -7.0608  -10.3076  -45.2045 H         1 UNK         0.0600 
    129 H129       -5.9535  -10.5043  -43.8415 H         1 UNK         0.0600 
    130 H130       -4.6478  -12.3577  -46.2595 H         1 UNK         0.3000 
    131 H131       -3.3642  -10.3859  -47.9202 H         1 UNK         0.0600 
    132 H132       -2.6738  -13.3489  -47.5436 H         1 UNK         0.0800 
    133 H133       -3.8735  -12.7388  -48.6472 H         1 UNK         0.0800 
    134 H134       -3.2172  -13.0625  -51.0690 H         1 UNK         0.0800 
    135 H135       -1.5644  -13.2518  -51.5968 H         1 UNK         0.0800 
    136 H136       -4.2997  -15.1268  -50.6739 H         1 UNK         0.1150 
    137 H137       -2.1644  -18.5567  -49.3016 H         1 UNK         0.1150 
    138 H138       -0.1100  -14.8262  -49.8333 H         1 UNK         0.1150 
    139 H139        0.7901  -16.7118  -48.2579 H         1 UNK         0.0800 
    140 H140        1.0486  -17.3027  -49.8801 H         1 UNK         0.0800 
    141 H141       -1.2261  -17.9855  -46.9476 H         1 UNK         0.0800 
    142 H142       -0.0282  -18.8702  -46.0444 H         1 UNK         0.0800 
    143 H143       -2.1643  -20.2234  -47.7654 H         1 UNK         0.0600 
    144 H144        0.0301  -21.2602  -46.2353 H         1 UNK         0.3000 
    145 H145       -0.8847  -24.6586  -46.9642 H         1 UNK         0.0600 
    146 H146        0.0954  -23.6975  -49.0303 H         1 UNK         0.0600 
    147 H147        1.3410  -24.4821  -48.0730 H         1 UNK         0.0600 
    148 H148        1.2151  -22.7236  -48.0846 H         1 UNK         0.0600 
    149 H149        1.0270  -22.8453  -45.5224 H         1 UNK         0.3000 
    150 H150        0.4812  -24.5526  -42.5085 H         1 UNK         0.0600 
    151 H151        3.0950  -24.6892  -44.1059 H         1 UNK         0.0600 
    152 H152        2.2445  -26.0729  -43.4290 H         1 UNK         0.0600 
    153 H153        2.9356  -24.8658  -42.3574 H         1 UNK         0.0600 
    154 H154        2.3609  -22.5376  -43.0827 H         1 UNK         0.3000 
    155 H155        0.2230  -19.7258  -43.3236 H         1 UNK         0.0600 
    156 H156        1.9873  -20.5812  -40.9708 H         1 UNK         0.0600 
    157 H157        0.2556  -20.2983  -40.8507 H         1 UNK         0.0600 
    158 H158        1.3240  -18.9775  -41.2695 H         1 UNK         0.0600 
    159 H159        2.9337  -19.5799  -43.0986 H         1 UNK         0.3000 
    160 H160        4.5705  -20.5694  -45.2409 H         1 UNK         0.0600 
    161 H161        3.0776  -18.8501  -47.2915 H         1 UNK         0.0600 
    162 H162        3.5238  -20.5392  -47.5182 H         1 UNK         0.0600 
    163 H163        4.7741  -19.3144  -47.3752 H         1 UNK         0.0600 
    164 H164        3.4068  -17.8650  -44.7924 H         1 UNK         0.3000 
    165 H165        6.0548  -16.9724  -42.7152 H         1 UNK         0.0600 
    166 H166        6.4051  -14.9125  -44.0825 H         1 UNK         0.0600 
    167 H167        7.2543  -16.2824  -44.7820 H         1 UNK         0.0600 
    168 H168        5.7472  -15.7279  -45.5007 H         1 UNK         0.0600 
    169 H169        3.9158  -15.4377  -43.8614 H         1 UNK         0.3000 
    170 H170        1.2346  -16.8040  -42.0870 H         1 UNK         0.0600 
    171 H171        0.9418  -14.6519  -40.8901 H         1 UNK         0.0600 
    172 H172        2.6381  -14.2428  -41.1526 H         1 UNK         0.0600 
    173 H173        2.2031  -15.5986  -40.1185 H         1 UNK         0.0600 
    174 H174        1.4433  -14.2785  -43.3285 H         1 UNK         0.3000 
    175 H175        1.6634  -15.1213  -46.6754 H         1 UNK         0.0600 
    176 H176       -0.7452  -15.7914  -46.3750 H         1 UNK         0.0600 
    177 H177       -0.9990  -14.3879  -45.3461 H         1 UNK         0.0600 
    178 H178       -0.5686  -14.1804  -47.0455 H         1 UNK         0.0600 
    179 H179        0.7922  -12.7146  -45.4687 H         1 UNK         0.3000 
    180 H180        3.3555  -11.4727  -44.0070 H         1 UNK         0.0600 
    181 H181        4.0276  -11.0366  -46.9614 H         1 UNK         0.0600 
    182 H182        5.1422  -11.5128  -45.6907 H         1 UNK         0.0600 
    183 H183        4.4155   -9.9158  -45.6564 H         1 UNK         0.0600 
    184 H184        1.5800  -10.2241  -44.2855 H         1 UNK         0.3000 
    185 H185       -0.2366   -9.2934  -44.9939 H         1 UNK         0.0600 
    186 H186        1.2490   -7.5940  -46.0688 H         1 UNK         0.0600 
    187 H187        0.5744   -7.9834  -47.6464 H         1 UNK         0.0600 
    188 H188       -0.4435   -7.2598  -46.4003 H         1 UNK         0.0600 
    189 H189       -1.4837   -9.3182  -47.5725 H         1 UNK         0.3000 
    190 H190       -1.8339  -20.9028  -44.3164 H         1 UNK         0.3000 
    191 H191       -4.3372  -19.3281  -43.7680 H         1 UNK         0.0600 
    192 H192       -2.3022  -18.4178  -42.6366 H         1 UNK         0.0600 
    193 H193       -3.4713  -19.0520  -41.4884 H         1 UNK         0.0600 
    194 H194       -2.0282  -19.9795  -41.8671 H         1 UNK         0.0600 
    195 H195       -2.4874  -22.3020  -42.9862 H         1 UNK         0.3000 
    196 H196       -4.5913  -23.5144  -41.4603 H         1 UNK         0.0600 
    197 H197       -3.0456  -25.4576  -41.4582 H         1 UNK         0.0600 
    198 H198       -2.1565  -23.9763  -41.1347 H         1 UNK         0.0600 
    199 H199       -2.0802  -24.7214  -42.7300 H         1 UNK         0.0600 
    200 H200       -4.2076  -23.2160  -44.8427 H         1 UNK         0.3000 
    201 H201       -6.3331  -25.2182  -45.3487 H         1 UNK         0.0600 
    202 H202       -5.0849  -26.0919  -47.3400 H         1 UNK         0.0600 
    203 H203       -4.2507  -26.4587  -45.8373 H         1 UNK         0.0600 
    204 H204       -3.6705  -25.1568  -46.8709 H         1 UNK         0.0600 
    205 H205       -4.3070  -22.6084  -46.6970 H         1 UNK         0.3000 
    206 H206       -4.6309  -20.9142  -48.0772 H         1 UNK         0.0600 
    207 H207       -6.7301  -20.2560  -46.9022 H         1 UNK         0.0600 
    208 H208       -6.8248  -19.9668  -48.6327 H         1 UNK         0.0600 
    209 H209       -7.6632  -21.3412  -47.9336 H         1 UNK         0.0600 
    210 H210       -3.5775  -22.9465  -48.9729 H         1 UNK         0.3000 
    211 H211       -4.9195  -24.6254  -50.8151 H         1 UNK         0.0600 
    212 H212       -1.9264  -24.2226  -50.3324 H         1 UNK         0.0600 
    213 H213       -2.6836  -25.6166  -51.0978 H         1 UNK         0.0600 
    214 H214       -2.9779  -25.2859  -49.4017 H         1 UNK         0.0600 
    215 H215       -5.7466  -22.4909  -51.9621 H         1 UNK         0.3000 
    216 H216       -4.2758  -21.3471  -54.0867 H         1 UNK         0.0600 
    217 H217       -6.5263  -20.7808  -55.0013 H         1 UNK         0.0600 
    218 H218       -6.4671  -20.4840  -53.2705 H         1 UNK         0.0600 
    219 H219       -7.2836  -21.9168  -53.8897 H         1 UNK         0.0600 
    220 H220       -5.8932  -24.4784  -53.8736 H         1 UNK         0.3000 
    221 H221       -5.7661  -25.2333  -56.6292 H         1 UNK         0.0600 
    222 H222       -5.8582  -26.9360  -54.0787 H         1 UNK         0.0600 
    223 H223       -7.2547  -26.3465  -54.9817 H         1 UNK         0.0600 
    224 H224       -6.1709  -27.5217  -55.7081 H         1 UNK         0.0600 
    225 H225       -3.3255  -25.1285  -54.1095 H         1 UNK         0.3000 
    226 H226       -1.3628  -26.7040  -55.6961 H         1 UNK         0.0600 
    227 H227       -1.6466  -27.1788  -53.2163 H         1 UNK         0.0600 
    228 H228       -0.0266  -26.6599  -53.6521 H         1 UNK         0.0600 
    229 H229       -1.1226  -25.5272  -52.8790 H         1 UNK         0.0600 
    230 H230       -2.5619  -23.6830  -55.7821 H         1 UNK         0.3000 
    231 H231       -2.0023  -21.7029  -56.4979 H         1 UNK         0.0600 
    232 H232        0.6992  -22.8228  -57.3967 H         1 UNK         0.0600 
    233 H233       -0.0887  -21.3661  -57.9811 H         1 UNK         0.0600 
    234 H234       -0.7975  -22.9343  -58.3232 H         1 UNK         0.0600 
    235 H235       -1.2394  -22.5641  -53.6734 H         1 UNK         0.3000 
    236 H236        1.0348  -21.0402  -52.8550 H         1 UNK         0.0600 
    237 H237       -1.4154  -21.8407  -51.1946 H         1 UNK         0.0600 
    238 H238       -0.0288  -22.8878  -51.5042 H         1 UNK         0.0600 
    239 H239        0.1705  -21.4030  -50.5841 H         1 UNK         0.0600 
    240 H240       -2.3768  -20.2497  -53.2670 H         1 UNK         0.3000 
    241 H241       -2.0945  -17.4997  -52.3201 H         1 UNK         0.0600 
    242 H242       -1.2249  -17.3427  -56.1666 H         1 UNK         0.3800 
    243 H243       -0.8787  -18.7188  -55.1533 H         1 UNK         0.3800 
    244 H244       -4.5280  -18.7971  -53.6298 H         1 UNK         0.0800 
    245 H245       -4.5041  -17.2780  -52.7791 H         1 UNK         0.0800 
    246 H246       -5.4781  -17.1662  -50.3682 H         1 UNK         0.0800 
    247 H247       -4.8530  -18.1831  -49.0911 H         1 UNK         0.0800 
@<TRIPOS>BOND
     1    1    2 1    
     2    1  127 1    
     3    1  128 1    
     4    1  129 1    
     5    2    3 2    
     6    2    4 am   BACKBONE|DICT|INTERRES
     7    4    5 1    
     8    4  130 1    
     9    5    6 1    
    10    5   65 1    
    11    5  131 1    
    12    6    7 1    
    13    6  132 1    
    14    6  133 1    
    15    7    8 1    
    16    8    9 1    
    17    8  134 1    
    18    8  135 1    
    19    9   10 ar   
    20    9   14 ar   
    21   10   11 ar   
    22   10  136 1    
    23   11   12 ar   
    24   11  126 1    
    25   12   13 ar   
    26   12  137 1    
    27   13   14 ar   
    28   13   15 1    
    29   14  138 1    
    30   15   16 1    
    31   15  139 1    
    32   15  140 1    
    33   16   17 1    
    34   17   18 1    
    35   17  141 1    
    36   17  142 1    
    37   18   19 1    
    38   18   67 1    
    39   18  143 1    
    40   19   20 am   BACKBONE|DICT|INTERRES
    41   19  144 1    
    42   20   21 2    
    43   20   22 1    
    44   22   23 1    
    45   22   24 1    
    46   22  145 1    
    47   23  146 1    
    48   23  147 1    
    49   23  148 1    
    50   24   25 am   BACKBONE|DICT|INTERRES
    51   24  149 1    
    52   25   26 2    
    53   25   27 1    
    54   27   28 1    
    55   27   29 1    
    56   27  150 1    
    57   28  151 1    
    58   28  152 1    
    59   28  153 1    
    60   29   30 am   BACKBONE|DICT|INTERRES
    61   29  154 1    
    62   30   31 2    
    63   30   32 1    
    64   32   33 1    
    65   32   34 1    
    66   32  155 1    
    67   33  156 1    
    68   33  157 1    
    69   33  158 1    
    70   34   35 am   BACKBONE|DICT|INTERRES
    71   34  159 1    
    72   35   36 2    
    73   35   37 1    
    74   37   38 1    
    75   37   39 1    
    76   37  160 1    
    77   38  161 1    
    78   38  162 1    
    79   38  163 1    
    80   39   40 am   BACKBONE|DICT|INTERRES
    81   39  164 1    
    82   40   41 2    
    83   40   42 1    
    84   42   43 1    
    85   42   44 1    
    86   42  165 1    
    87   43  166 1    
    88   43  167 1    
    89   43  168 1    
    90   44   45 am   BACKBONE|DICT|INTERRES
    91   44  169 1    
    92   45   46 2    
    93   45   47 1    
    94   47   48 1    
    95   47   49 1    
    96   47  170 1    
    97   48  171 1    
    98   48  172 1    
    99   48  173 1    
   100   49   50 am   BACKBONE|DICT|INTERRES
   101   49  174 1    
   102   50   51 2    
   103   50   52 1    
   104   52   53 1    
   105   52   54 1    
   106   52  175 1    
   107   53  176 1    
   108   53  177 1    
   109   53  178 1    
   110   54   55 am   BACKBONE|DICT|INTERRES
   111   54  179 1    
   112   55   56 2    
   113   55   57 1    
   114   57   58 1    
   115   57   59 1    
   116   57  180 1    
   117   58  181 1    
   118   58  182 1    
   119   58  183 1    
   120   59   60 am   BACKBONE|DICT|INTERRES
   121   59  184 1    
   122   60   61 2    
   123   60   62 1    
   124   62   63 1    
   125   62   64 1    
   126   62  185 1    
   127   63  186 1    
   128   63  187 1    
   129   63  188 1    
   130   64   65 am   BACKBONE|DICT|INTERRES
   131   64  189 1    
   132   65   66 2    
   133   67   68 2    
   134   67   69 am   BACKBONE|DICT|INTERRES
   135   69   70 1    
   136   69  190 1    
   137   70   71 1    
   138   70   72 1    
   139   70  191 1    
   140   71  192 1    
   141   71  193 1    
   142   71  194 1    
   143   72   73 2    
   144   72   74 am   BACKBONE|DICT|INTERRES
   145   74   75 1    
   146   74  195 1    
   147   75   76 1    
   148   75   77 1    
   149   75  196 1    
   150   76  197 1    
   151   76  198 1    
   152   76  199 1    
   153   77   78 2    
   154   77   79 am   BACKBONE|DICT|INTERRES
   155   79   80 1    
   156   79  200 1    
   157   80   81 1    
   158   80   82 1    
   159   80  201 1    
   160   81  202 1    
   161   81  203 1    
   162   81  204 1    
   163   82   83 2    
   164   82   84 am   BACKBONE|DICT|INTERRES
   165   84   85 1    
   166   84  205 1    
   167   85   86 1    
   168   85   87 1    
   169   85  206 1    
   170   86  207 1    
   171   86  208 1    
   172   86  209 1    
   173   87   88 2    
   174   87   89 am   BACKBONE|DICT|INTERRES
   175   89   90 1    
   176   89  210 1    
   177   90   91 1    
   178   90   92 1    
   179   90  211 1    
   180   91  212 1    
   181   91  213 1    
   182   91  214 1    
   183   92   93 2    
   184   92   94 am   BACKBONE|DICT|INTERRES
   185   94   95 1    
   186   94  215 1    
   187   95   96 1    
   188   95   97 1    
   189   95  216 1    
   190   96  217 1    
   191   96  218 1    
   192   96  219 1    
   193   97   98 2    
   194   97   99 am   BACKBONE|DICT|INTERRES
   195   99  100 1    
   196   99  220 1    
   197  100  101 1    
   198  100  102 1    
   199  100  221 1    
   200  101  222 1    
   201  101  223 1    
   202  101  224 1    
   203  102  103 2    
   204  102  104 am   BACKBONE|DICT|INTERRES
   205  104  105 1    
   206  104  225 1    
   207  105  106 1    
   208  105  107 1    
   209  105  226 1    
   210  106  227 1    
   211  106  228 1    
   212  106  229 1    
   213  107  108 2    
   214  107  109 am   BACKBONE|DICT|INTERRES
   215  109  110 1    
   216  109  230 1    
   217  110  111 1    
   218  110  112 1    
   219  110  231 1    
   220  111  232 1    
   221  111  233 1    
   222  111  234 1    
   223  112  113 2    
   224  112  114 am   BACKBONE|DICT|INTERRES
   225  114  115 1    
   226  114  235 1    
   227  115  116 1    
   228  115  117 1    
   229  115  236 1    
   230  116  237 1    
   231  116  238 1    
   232  116  239 1    
   233  117  118 2    
   234  117  119 am   BACKBONE|DICT|INTERRES
   235  119  120 1    
   236  119  240 1    
   237  120  121 1    
   238  120  124 1    
   239  120  241 1    
   240  121  122 am   BACKBONE|DICT|INTERRES
   241  121  123 2    
   242  122  242 1    
   243  122  243 1    
   244  124  125 1    
   245  124  244 1    
   246  124  245 1    
   247  125  126 1    
   248  126  246 1    
   249  126  247 1    
@<TRIPOS>SUBSTRUCTURE
     1 UNK         1 GROUP             0       ****    0 ROOT    
