@<TRIPOS>MOLECULE
3R540
247   249    1
SMALL
USER_CHARGES


@<TRIPOS>ATOM
      1 CA         -2.9061  -13.1310  -46.3694 C.3       0 UNK        -0.1800 
      2 C          -1.5549  -12.4359  -46.4620 C.2       0 UNK         0.5000 
      3 O          -1.4234  -11.2938  -46.0234 O.2       0 UNK        -0.5000 
      4 N          -0.5595  -13.1153  -47.0432 N.am      1 UNK        -0.5000 
      5 CA          0.8205  -12.6439  -47.1748 C.3       1 UNK         0.1400 
      6 C6          1.6276  -13.4975  -48.1848 C.3       23 UNK        -0.0398 
      7 S7          1.0229  -13.2655  -49.8887 S.3       23 UNK        -0.2404 
      8 C8          1.8159  -14.6540  -50.7667 C.3       23 UNK        -0.0205 
      9 C9          1.1130  -15.9859  -50.5335 C.ar      23 UNK        -0.0193 
     10 C10        -0.2529  -16.1163  -50.7962 C.ar      23 UNK        -0.1150 
     11 C11        -0.9069  -17.3313  -50.5835 C.ar      23 UNK        -0.0193 
     12 C12        -0.1786  -18.4331  -50.1252 C.ar      23 UNK        -0.1150 
     13 C13         1.1956  -18.3273  -49.8746 C.ar      23 UNK        -0.0193 
     14 C14         1.8300  -17.0959  -50.0773 C.ar      23 UNK        -0.1150 
     15 C15         1.9960  -19.4887  -49.2882 C.3       23 UNK        -0.0205 
     16 S16         1.7937  -21.0760  -50.1568 S.3       23 UNK        -0.2404 
     17 C17         0.4666  -21.8760  -49.1901 C.3       23 UNK        -0.0398 
     18 CA          0.9989  -22.8200  -48.0831 C.3       11 UNK         0.1400 
     19 N           1.7178  -22.0813  -47.0441 N.am      11 UNK        -0.5000 
     20 C           2.7517  -22.5528  -46.3361 C.2       10 UNK         0.5000 
     21 O           3.2972  -23.6337  -46.5628 O.2       10 UNK        -0.5000 
     22 CA          3.2657  -21.6794  -45.1727 C.3       10 UNK         0.1400 
     23 CB          4.5218  -20.9038  -45.5974 C.3       10 UNK        -0.1800 
     24 N           2.2557  -20.7383  -44.6818 N.am      10 UNK        -0.5000 
     25 C           1.2166  -21.0862  -43.9064 C.2       9 UNK         0.5000 
     26 O           1.0750  -22.2168  -43.4390 O.2       9 UNK        -0.5000 
     27 CA          0.1524  -20.0114  -43.5899 C.3       9 UNK         0.1400 
     28 CB          0.2409  -19.5788  -42.1179 C.3       9 UNK        -0.1800 
     29 N           0.2199  -18.8158  -44.4315 N.am      9 UNK        -0.5000 
     30 C           0.0108  -18.7769  -45.7533 C.2       8 UNK         0.5000 
     31 O          -0.2851  -19.7617  -46.4294 O.2       8 UNK        -0.5000 
     32 CA          0.2534  -17.4224  -46.4423 C.3       8 UNK         0.1400 
     33 CB         -1.0131  -16.5593  -46.4620 C.3       8 UNK        -0.1800 
     34 N           1.3779  -16.6829  -45.8606 N.am      8 UNK        -0.5000 
     35 C           2.6528  -17.0964  -45.9334 C.2       7 UNK         0.5000 
     36 O           3.0078  -18.0877  -46.5665 O.2       7 UNK        -0.5000 
     37 CA          3.7034  -16.3212  -45.1260 C.3       7 UNK         0.1400 
     38 CB          4.3569  -15.2170  -45.9680 C.3       7 UNK        -0.1800 
     39 N           3.1327  -15.7662  -43.8981 N.am      7 UNK        -0.5000 
     40 C           3.0320  -16.4672  -42.7599 C.2       6 UNK         0.5000 
     41 O           3.4531  -17.6174  -42.6320 O.2       6 UNK        -0.5000 
     42 CA          2.3451  -15.7924  -41.5579 C.3       6 UNK         0.1400 
     43 CB          3.3871  -15.0837  -40.6805 C.3       6 UNK        -0.1800 
     44 N           1.2736  -14.8523  -41.8951 N.am      6 UNK        -0.5000 
     45 C           0.1466  -15.1731  -42.5499 C.2       5 UNK         0.5000 
     46 O          -0.0501  -16.2841  -43.0443 O.2       5 UNK        -0.5000 
     47 CA         -0.9382  -14.0780  -42.6688 C.3       5 UNK         0.1400 
     48 CB         -2.3570  -14.6565  -42.8569 C.3       5 UNK        -0.1800 
     49 N          -0.9123  -13.1154  -41.5624 N.am      5 UNK        -0.5000 
     50 C          -1.1337  -13.3619  -40.2598 C.2       4 UNK         0.5000 
     51 O          -1.4631  -14.4643  -39.8197 O.2       4 UNK        -0.5000 
     52 CA         -0.9497  -12.1753  -39.2830 C.3       4 UNK         0.1400 
     53 CB         -0.4932  -12.6309  -37.8807 C.3       4 UNK        -0.1800 
     54 N          -0.0677  -11.1152  -39.7915 N.am      4 UNK        -0.5000 
     55 C           1.2161  -11.2473  -40.1524 C.2       3 UNK         0.5000 
     56 O           1.8543  -12.2984  -40.0722 O.2       3 UNK        -0.5000 
     57 CA          1.8846  -10.0031  -40.7618 C.3       3 UNK         0.1400 
     58 CB          2.8944   -9.3925  -39.7785 C.3       3 UNK        -0.1800 
     59 N           2.5654  -10.3219  -42.0180 N.am      3 UNK        -0.5000 
     60 C           1.9769  -10.8358  -43.1071 C.2       2 UNK         0.5000 
     61 O           0.7644  -11.0508  -43.1853 O.2       2 UNK        -0.5000 
     62 CA          2.9162  -11.1268  -44.2955 C.3       2 UNK         0.1400 
     63 CB          3.9910  -12.1714  -43.9315 C.3       2 UNK        -0.1800 
     64 N           2.2074  -11.4911  -45.5289 N.am      2 UNK        -0.5000 
     65 C           1.5185  -12.6091  -45.8000 C.2       1 UNK         0.5000 
     66 O           1.4493  -13.5933  -45.0576 O.2       1 UNK        -0.5000 
     67 C          -0.1608  -23.5980  -47.4262 C.2       11 UNK         0.5000 
     68 O          -0.5455  -23.3050  -46.2901 O.2       11 UNK        -0.5000 
     69 N          -0.7321  -24.5636  -48.1574 N.am      12 UNK        -0.5000 
     70 CA         -1.8679  -25.3861  -47.7294 C.3       12 UNK         0.1400 
     71 CB         -1.8911  -26.6686  -48.5784 C.3       12 UNK        -0.1800 
     72 C          -3.2008  -24.6094  -47.7979 C.2       12 UNK         0.5000 
     73 O          -4.1099  -25.0027  -48.5272 O.2       12 UNK        -0.5000 
     74 N          -3.2828  -23.5047  -47.0451 N.am      13 UNK        -0.5000 
     75 CA         -4.3413  -22.4870  -47.0503 C.3       13 UNK         0.1400 
     76 CB         -3.9603  -21.3902  -46.0433 C.3       13 UNK        -0.1800 
     77 C          -5.7786  -22.9887  -46.7952 C.2       13 UNK         0.5000 
     78 O          -6.7277  -22.2675  -47.1039 O.2       13 UNK        -0.5000 
     79 N          -5.9235  -24.2023  -46.2479 N.am      14 UNK        -0.5000 
     80 CA         -7.2026  -24.8927  -46.0808 C.3       14 UNK         0.1400 
     81 CB         -7.0080  -26.0666  -45.1087 C.3       14 UNK        -0.1800 
     82 C          -7.8071  -25.3905  -47.4115 C.2       14 UNK         0.5000 
     83 O          -9.0265  -25.5463  -47.4938 O.2       14 UNK        -0.5000 
     84 N          -6.9598  -25.6427  -48.4186 N.am      15 UNK        -0.5000 
     85 CA         -7.3606  -26.0666  -49.7585 C.3       15 UNK         0.1400 
     86 CB         -6.2445  -26.9418  -50.3494 C.3       15 UNK        -0.1800 
     87 C          -7.6357  -24.8547  -50.6663 C.2       15 UNK         0.5000 
     88 O          -7.1766  -23.7447  -50.3823 O.2       15 UNK        -0.5000 
     89 N          -8.3578  -25.0996  -51.7686 N.am      16 UNK        -0.5000 
     90 CA         -8.6888  -24.1146  -52.8015 C.3       16 UNK         0.1400 
     91 CB         -9.5686  -24.7787  -53.8710 C.3       16 UNK        -0.1800 
     92 C          -7.4251  -23.5086  -53.4381 C.2       16 UNK         0.5000 
     93 O          -6.5443  -24.2573  -53.8712 O.2       16 UNK        -0.5000 
     94 N          -7.3369  -22.1697  -53.4276 N.am      17 UNK        -0.5000 
     95 CA         -6.1896  -21.3636  -53.8731 C.3       17 UNK         0.1400 
     96 CB         -6.0694  -21.4234  -55.4094 C.3       17 UNK        -0.1800 
     97 C          -4.8717  -21.7228  -53.1460 C.2       17 UNK         0.5000 
     98 O          -3.7931  -21.6253  -53.7332 O.2       17 UNK        -0.5000 
     99 N          -5.0031  -22.1896  -51.8948 N.am      18 UNK        -0.5000 
    100 CA        -3.9650  -22.7577  -51.0338 C.3       18 UNK         0.1400 
    101 CB        -2.9997  -21.6655  -50.5406 C.3       18 UNK        -0.1800 
    102 C         -3.2529  -23.9722  -51.6693 C.2       18 UNK         0.5000 
    103 O         -2.0320  -24.0957  -51.5644 O.2       18 UNK        -0.5000 
    104 N         -4.0461  -24.8251  -52.3370 N.am      19 UNK        -0.5000 
    105 CA        -3.6485  -25.9674  -53.1667 C.3       19 UNK         0.1400 
    106 CB        -2.8461  -27.0178  -52.3700 C.3       19 UNK        -0.1800 
    107 C         -2.9486  -25.5070  -54.4602 C.2       19 UNK         0.5000 
    108 O         -1.9074  -26.0491  -54.8348 O.2       19 UNK        -0.5000 
    109 N         -3.5499  -24.4989  -55.1105 N.am      20 UNK        -0.5000 
    110 CA        -3.1032  -23.8385  -56.3442 C.3       20 UNK         0.1400 
    111 CB        -3.1830  -24.8091  -57.5409 C.3       20 UNK        -0.1800 
    112 C         -1.7295  -23.1408  -56.2251 C.2       20 UNK         0.5000 
    113 O         -1.0223  -23.0004  -57.2248 O.2       20 UNK        -0.5000 
    114 N         -1.3808  -22.7012  -55.0101 N.am      21 UNK        -0.5000 
    115 CA        -0.1658  -21.9432  -54.7162 C.3       21 UNK         0.1400 
    116 CB         0.2779  -22.2495  -53.2798 C.3       21 UNK        -0.1800 
    117 C         -0.3673  -20.4284  -54.9074 C.2       21 UNK         0.5000 
    118 O          0.6101  -19.7161  -55.1418 O.2       21 UNK        -0.5000 
    119 N         -1.6173  -19.9639  -54.8133 N.am      22 UNK        -0.5000 
    120 CA        -2.0183  -18.5599  -54.9400 C.3       22 UNK         0.1400 
    121 C         -3.3811  -18.4510  -55.6784 C.2       22 UNK         0.5000 
    122 N         -4.3671  -17.7359  -55.1528 N.am      22 UNK        -0.7600 
    123 O         -3.5351  -18.9807  -56.7763 O.2       22 UNK        -0.5000 
    124 C124       -1.8907  -17.7818  -53.5989 C.3       23 UNK        -0.0398 
    125 S125       -2.8264  -18.5292  -52.2188 S.3       23 UNK        -0.2404 
    126 C126       -2.4062  -17.4369  -50.8258 C.3       23 UNK        -0.0205 
    127 H127       -3.6431  -12.5972  -46.9693 H         1 UNK         0.0600 
    128 H128       -3.2522  -13.1423  -45.3363 H         1 UNK         0.0600 
    129 H129       -2.8610  -14.1608  -46.7235 H         1 UNK         0.0600 
    130 H130       -0.7341  -14.0422  -47.3986 H         1 UNK         0.3000 
    131 H131        0.7803  -11.6211  -47.5568 H         1 UNK         0.0600 
    132 H132        1.5835  -14.5561  -47.9224 H         1 UNK         0.0800 
    133 H133        2.6824  -13.2169  -48.1748 H         1 UNK         0.0800 
    134 H134        1.8011  -14.4419  -51.8364 H         1 UNK         0.0800 
    135 H135        2.8673  -14.7074  -50.4797 H         1 UNK         0.0800 
    136 H136       -0.8096  -15.2617  -51.1545 H         1 UNK         0.1150 
    137 H137       -0.6953  -19.3650  -49.9585 H         1 UNK         0.1150 
    138 H138        2.8852  -16.9972  -49.8640 H         1 UNK         0.1150 
    139 H139        3.0602  -19.2485  -49.2899 H         1 UNK         0.0800 
    140 H140        1.7243  -19.6108  -48.2422 H         1 UNK         0.0800 
    141 H141       -0.1973  -21.1254  -48.7615 H         1 UNK         0.0800 
    142 H142       -0.1284  -22.4385  -49.9109 H         1 UNK         0.0800 
    143 H143        1.6689  -23.5484  -48.5449 H         1 UNK         0.0600 
    144 H144        1.2660  -21.2311  -46.7295 H         1 UNK         0.3000 
    145 H145        3.5440  -22.3457  -44.3535 H         1 UNK         0.0600 
    146 H146        4.8643  -20.2348  -44.8076 H         1 UNK         0.0600 
    147 H147        4.3443  -20.3079  -46.4927 H         1 UNK         0.0600 
    148 H148        5.3402  -21.5884  -45.8232 H         1 UNK         0.0600 
    149 H149        2.3137  -19.7894  -45.0261 H         1 UNK         0.3000 
    150 H150       -0.8238  -20.4726  -43.7528 H         1 UNK         0.0600 
    151 H151        1.1935  -19.0951  -41.8999 H         1 UNK         0.0600 
    152 H152       -0.5555  -18.8790  -41.8632 H         1 UNK         0.0600 
    153 H153        0.1461  -20.4353  -41.4494 H         1 UNK         0.0600 
    154 H154        0.3908  -17.9362  -43.9512 H         1 UNK         0.3000 
    155 H155        0.5026  -17.6377  -47.4765 H         1 UNK         0.0600 
    156 H156       -1.8939  -17.1539  -46.7085 H         1 UNK         0.0600 
    157 H157       -0.9324  -15.7868  -47.2237 H         1 UNK         0.0600 
    158 H158       -1.1929  -16.0807  -45.5014 H         1 UNK         0.0600 
    159 H159        1.1604  -15.8693  -45.2995 H         1 UNK         0.3000 
    160 H160        4.4945  -17.0284  -44.8666 H         1 UNK         0.0600 
    161 H161        3.6456  -14.4510  -46.2639 H         1 UNK         0.0600 
    162 H162        4.7889  -15.6294  -46.8808 H         1 UNK         0.0600 
    163 H163        5.1642  -14.7334  -45.4185 H         1 UNK         0.0600 
    164 H164        2.6946  -14.8539  -43.9654 H         1 UNK         0.3000 
    165 H165        1.8941  -16.5896  -40.9634 H         1 UNK         0.0600 
    166 H166        2.9475  -14.7520  -39.7398 H         1 UNK         0.0600 
    167 H167        4.2130  -15.7512  -40.4309 H         1 UNK         0.0600 
    168 H168        3.8079  -14.2109  -41.1814 H         1 UNK         0.0600 
    169 H169        1.3547  -13.9231  -41.5000 H         1 UNK         0.3000 
    170 H170       -0.6998  -13.5065  -43.5656 H         1 UNK         0.0600 
    171 H171       -2.4348  -15.2181  -43.7867 H         1 UNK         0.0600 
    172 H172       -2.6299  -15.3344  -42.0479 H         1 UNK         0.0600 
    173 H173       -3.1043  -13.8642  -42.8966 H         1 UNK         0.0600 
    174 H174       -0.6057  -12.1854  -41.8236 H         1 UNK         0.3000 
    175 H175       -1.9365  -11.7229  -39.1758 H         1 UNK         0.0600 
    176 H176        0.4566  -13.1654  -37.9178 H         1 UNK         0.0600 
    177 H177       -0.3738  -11.7809  -37.2090 H         1 UNK         0.0600 
    178 H178       -1.2258  -13.2993  -37.4270 H         1 UNK         0.0600 
    179 H179       -0.5092  -10.2149  -39.9195 H         1 UNK         0.3000 
    180 H180        1.1189   -9.2557  -40.9795 H         1 UNK         0.0600 
    181 H181        3.7018  -10.0887  -39.5471 H         1 UNK         0.0600 
    182 H182        2.4107   -9.1270  -38.8376 H         1 UNK         0.0600 
    183 H183        3.3396   -8.4829  -40.1822 H         1 UNK         0.0600 
    184 H184        3.5659  -10.1896  -42.0234 H         1 UNK         0.3000 
    185 H185        3.4286  -10.1905  -44.5221 H         1 UNK         0.0600 
    186 H186        3.5501  -13.0881  -43.5442 H         1 UNK         0.0600 
    187 H187        4.6040  -12.4244  -44.7959 H         1 UNK         0.0600 
    188 H188        4.6650  -11.7929  -43.1628 H         1 UNK         0.0600 
    189 H189        2.1692  -10.7491  -46.2135 H         1 UNK         0.3000 
    190 H190       -0.4049  -24.7279  -49.0993 H         1 UNK         0.3000 
    191 H191       -1.7190  -25.6811  -46.6886 H         1 UNK         0.0600 
    192 H192       -2.7170  -27.3196  -48.2885 H         1 UNK         0.0600 
    193 H193       -0.9704  -27.2395  -48.4578 H         1 UNK         0.0600 
    194 H194       -2.0076  -26.4398  -49.6373 H         1 UNK         0.0600 
    195 H195       -2.4562  -23.2771  -46.4987 H         1 UNK         0.3000 
    196 H196       -4.3474  -22.0361  -48.0424 H         1 UNK         0.0600 
    197 H197       -3.8975  -21.7838  -45.0281 H         1 UNK         0.0600 
    198 H198       -2.9957  -20.9450  -46.2902 H         1 UNK         0.0600 
    199 H199       -4.6959  -20.5848  -46.0398 H         1 UNK         0.0600 
    200 H200       -5.0898  -24.7259  -46.0269 H         1 UNK         0.3000 
    201 H201       -7.9149  -24.1952  -45.6350 H         1 UNK         0.0600 
    202 H202       -7.9489  -26.5908  -44.9360 H         1 UNK         0.0600 
    203 H203       -6.6472  -25.7213  -44.1397 H         1 UNK         0.0600 
    204 H204       -6.2930  -26.7942  -45.4949 H         1 UNK         0.0600 
    205 H205       -5.9754  -25.4162  -48.3057 H         1 UNK         0.3000 
    206 H206       -8.2714  -26.6659  -49.6965 H         1 UNK         0.0600 
    207 H207       -6.0695  -27.8245  -49.7343 H         1 UNK         0.0600 
    208 H208       -6.4970  -27.2886  -51.3520 H         1 UNK         0.0600 
    209 H209       -5.3052  -26.3952  -50.4181 H         1 UNK         0.0600 
    210 H210       -8.6691  -26.0436  -51.9443 H         1 UNK         0.3000 
    211 H211       -9.2664  -23.3187  -52.3269 H         1 UNK         0.0600 
    212 H212       -9.0528  -25.6071  -54.3588 H         1 UNK         0.0600 
    213 H213       -9.8468  -24.0637  -54.6464 H         1 UNK         0.0600 
    214 H214      -10.4923  -25.1648  -53.4396 H         1 UNK         0.0600 
    215 H215       -8.1034  -21.6441  -53.0301 H         1 UNK         0.3000 
    216 H216       -6.4038  -20.3296  -53.5994 H         1 UNK         0.0600 
    217 H217       -6.9695  -21.0347  -55.8852 H         1 UNK         0.0600 
    218 H218       -5.9220  -22.4416  -55.7666 H         1 UNK         0.0600 
    219 H219       -5.2338  -20.8245  -55.7688 H         1 UNK         0.0600 
    220 H220       -5.9421  -22.2762  -51.5241 H         1 UNK         0.3000 
    221 H221       -4.5011  -23.1359  -50.1663 H         1 UNK         0.0600 
    222 H222       -2.3826  -22.0427  -49.7270 H         1 UNK         0.0600 
    223 H223       -2.3381  -21.3223  -51.3348 H         1 UNK         0.0600 
    224 H224       -3.5408  -20.8004  -50.1578 H         1 UNK         0.0600 
    225 H225       -5.0269  -24.5823  -52.4092 H         1 UNK         0.3000 
    226 H226       -4.5780  -26.4446  -53.4807 H         1 UNK         0.0600 
    227 H227       -3.3716  -27.3177  -51.4644 H         1 UNK         0.0600 
    228 H228       -2.6924  -27.9182  -52.9655 H         1 UNK         0.0600 
    229 H229       -1.8607  -26.6498  -52.0845 H         1 UNK         0.0600 
    230 H230       -4.4062  -24.1366  -54.7094 H         1 UNK         0.3000 
    231 H231       -3.8153  -23.0358  -56.5327 H         1 UNK         0.0600 
    232 H232       -3.0025  -24.2878  -58.4816 H         1 UNK         0.0600 
    233 H233       -4.1695  -25.2674  -57.6112 H         1 UNK         0.0600 
    234 H234       -2.4455  -25.6084  -57.4640 H         1 UNK         0.0600 
    235 H235       -2.0515  -22.7961  -54.2570 H         1 UNK         0.3000 
    236 H236        0.6327  -22.2629  -55.3890 H         1 UNK         0.0600 
    237 H237        0.4159  -23.3198  -53.1253 H         1 UNK         0.0600 
    238 H238        1.2275  -21.7620  -53.0576 H         1 UNK         0.0600 
    239 H239       -0.4501  -21.8975  -52.5495 H         1 UNK         0.0600 
    240 H240       -2.3718  -20.6095  -54.5964 H         1 UNK         0.3000 
    241 H241       -1.3243  -18.0808  -55.6331 H         1 UNK         0.0600 
    242 H242       -4.2746  -17.3111  -54.2437 H         1 UNK         0.3800 
    243 H243       -5.2347  -17.6498  -55.6582 H         1 UNK         0.3800 
    244 H244       -2.1899  -16.7399  -53.7209 H         1 UNK         0.0800 
    245 H245       -0.8379  -17.7527  -53.3155 H         1 UNK         0.0800 
    246 H246       -2.8847  -17.8203  -49.9236 H         1 UNK         0.0800 
    247 H247       -2.8408  -16.4526  -51.0064 H         1 UNK         0.0800 
@<TRIPOS>BOND
     1    1    2 1    
     2    1  127 1    
     3    1  128 1    
     4    1  129 1    
     5    2    3 2    
     6    2    4 am   BACKBONE|DICT|INTERRES
     7    4    5 1    
     8    4  130 1    
     9    5    6 1    
    10    5   65 1    
    11    5  131 1    
    12    6    7 1    
    13    6  132 1    
    14    6  133 1    
    15    7    8 1    
    16    8    9 1    
    17    8  134 1    
    18    8  135 1    
    19    9   10 ar   
    20    9   14 ar   
    21   10   11 ar   
    22   10  136 1    
    23   11   12 ar   
    24   11  126 1    
    25   12   13 ar   
    26   12  137 1    
    27   13   14 ar   
    28   13   15 1    
    29   14  138 1    
    30   15   16 1    
    31   15  139 1    
    32   15  140 1    
    33   16   17 1    
    34   17   18 1    
    35   17  141 1    
    36   17  142 1    
    37   18   19 1    
    38   18   67 1    
    39   18  143 1    
    40   19   20 am   BACKBONE|DICT|INTERRES
    41   19  144 1    
    42   20   21 2    
    43   20   22 1    
    44   22   23 1    
    45   22   24 1    
    46   22  145 1    
    47   23  146 1    
    48   23  147 1    
    49   23  148 1    
    50   24   25 am   BACKBONE|DICT|INTERRES
    51   24  149 1    
    52   25   26 2    
    53   25   27 1    
    54   27   28 1    
    55   27   29 1    
    56   27  150 1    
    57   28  151 1    
    58   28  152 1    
    59   28  153 1    
    60   29   30 am   BACKBONE|DICT|INTERRES
    61   29  154 1    
    62   30   31 2    
    63   30   32 1    
    64   32   33 1    
    65   32   34 1    
    66   32  155 1    
    67   33  156 1    
    68   33  157 1    
    69   33  158 1    
    70   34   35 am   BACKBONE|DICT|INTERRES
    71   34  159 1    
    72   35   36 2    
    73   35   37 1    
    74   37   38 1    
    75   37   39 1    
    76   37  160 1    
    77   38  161 1    
    78   38  162 1    
    79   38  163 1    
    80   39   40 am   BACKBONE|DICT|INTERRES
    81   39  164 1    
    82   40   41 2    
    83   40   42 1    
    84   42   43 1    
    85   42   44 1    
    86   42  165 1    
    87   43  166 1    
    88   43  167 1    
    89   43  168 1    
    90   44   45 am   BACKBONE|DICT|INTERRES
    91   44  169 1    
    92   45   46 2    
    93   45   47 1    
    94   47   48 1    
    95   47   49 1    
    96   47  170 1    
    97   48  171 1    
    98   48  172 1    
    99   48  173 1    
   100   49   50 am   BACKBONE|DICT|INTERRES
   101   49  174 1    
   102   50   51 2    
   103   50   52 1    
   104   52   53 1    
   105   52   54 1    
   106   52  175 1    
   107   53  176 1    
   108   53  177 1    
   109   53  178 1    
   110   54   55 am   BACKBONE|DICT|INTERRES
   111   54  179 1    
   112   55   56 2    
   113   55   57 1    
   114   57   58 1    
   115   57   59 1    
   116   57  180 1    
   117   58  181 1    
   118   58  182 1    
   119   58  183 1    
   120   59   60 am   BACKBONE|DICT|INTERRES
   121   59  184 1    
   122   60   61 2    
   123   60   62 1    
   124   62   63 1    
   125   62   64 1    
   126   62  185 1    
   127   63  186 1    
   128   63  187 1    
   129   63  188 1    
   130   64   65 am   BACKBONE|DICT|INTERRES
   131   64  189 1    
   132   65   66 2    
   133   67   68 2    
   134   67   69 am   BACKBONE|DICT|INTERRES
   135   69   70 1    
   136   69  190 1    
   137   70   71 1    
   138   70   72 1    
   139   70  191 1    
   140   71  192 1    
   141   71  193 1    
   142   71  194 1    
   143   72   73 2    
   144   72   74 am   BACKBONE|DICT|INTERRES
   145   74   75 1    
   146   74  195 1    
   147   75   76 1    
   148   75   77 1    
   149   75  196 1    
   150   76  197 1    
   151   76  198 1    
   152   76  199 1    
   153   77   78 2    
   154   77   79 am   BACKBONE|DICT|INTERRES
   155   79   80 1    
   156   79  200 1    
   157   80   81 1    
   158   80   82 1    
   159   80  201 1    
   160   81  202 1    
   161   81  203 1    
   162   81  204 1    
   163   82   83 2    
   164   82   84 am   BACKBONE|DICT|INTERRES
   165   84   85 1    
   166   84  205 1    
   167   85   86 1    
   168   85   87 1    
   169   85  206 1    
   170   86  207 1    
   171   86  208 1    
   172   86  209 1    
   173   87   88 2    
   174   87   89 am   BACKBONE|DICT|INTERRES
   175   89   90 1    
   176   89  210 1    
   177   90   91 1    
   178   90   92 1    
   179   90  211 1    
   180   91  212 1    
   181   91  213 1    
   182   91  214 1    
   183   92   93 2    
   184   92   94 am   BACKBONE|DICT|INTERRES
   185   94   95 1    
   186   94  215 1    
   187   95   96 1    
   188   95   97 1    
   189   95  216 1    
   190   96  217 1    
   191   96  218 1    
   192   96  219 1    
   193   97   98 2    
   194   97   99 am   BACKBONE|DICT|INTERRES
   195   99  100 1    
   196   99  220 1    
   197  100  101 1    
   198  100  102 1    
   199  100  221 1    
   200  101  222 1    
   201  101  223 1    
   202  101  224 1    
   203  102  103 2    
   204  102  104 am   BACKBONE|DICT|INTERRES
   205  104  105 1    
   206  104  225 1    
   207  105  106 1    
   208  105  107 1    
   209  105  226 1    
   210  106  227 1    
   211  106  228 1    
   212  106  229 1    
   213  107  108 2    
   214  107  109 am   BACKBONE|DICT|INTERRES
   215  109  110 1    
   216  109  230 1    
   217  110  111 1    
   218  110  112 1    
   219  110  231 1    
   220  111  232 1    
   221  111  233 1    
   222  111  234 1    
   223  112  113 2    
   224  112  114 am   BACKBONE|DICT|INTERRES
   225  114  115 1    
   226  114  235 1    
   227  115  116 1    
   228  115  117 1    
   229  115  236 1    
   230  116  237 1    
   231  116  238 1    
   232  116  239 1    
   233  117  118 2    
   234  117  119 am   BACKBONE|DICT|INTERRES
   235  119  120 1    
   236  119  240 1    
   237  120  121 1    
   238  120  124 1    
   239  120  241 1    
   240  121  122 am   BACKBONE|DICT|INTERRES
   241  121  123 2    
   242  122  242 1    
   243  122  243 1    
   244  124  125 1    
   245  124  244 1    
   246  124  245 1    
   247  125  126 1    
   248  126  246 1    
   249  126  247 1    
@<TRIPOS>SUBSTRUCTURE
     1 UNK         1 GROUP             0       ****    0 ROOT    
