@<TRIPOS>MOLECULE
3R540
247   249    1
SMALL
USER_CHARGES


@<TRIPOS>ATOM
      1 CA          4.8075  -18.2761  -42.2908 C.3       0 UNK        -0.1800 
      2 C           4.9765  -16.8859  -42.8869 C.2       0 UNK         0.5000 
      3 O           4.6631  -15.8957  -42.2284 O.2       0 UNK        -0.5000 
      4 N           5.4576  -16.8109  -44.1337 N.am      1 UNK        -0.5000 
      5 CA          5.7152  -15.5656  -44.8650 C.3       1 UNK         0.1400 
      6 C6          5.8566  -15.8430  -46.3894 C.3       23 UNK        -0.0398 
      7 S7          4.9933  -14.6135  -47.4261 S.3       23 UNK        -0.2404 
      8 C8          5.4282  -15.1647  -49.1050 C.3       23 UNK        -0.0205 
      9 C9          4.5122  -16.2720  -49.6086 C.ar      23 UNK        -0.0193 
     10 C10         3.4115  -15.9684  -50.4171 C.ar      23 UNK        -0.1150 
     11 C11         2.5966  -16.9820  -50.9354 C.ar      23 UNK        -0.0193 
     12 C12         2.8960  -18.3142  -50.6238 C.ar      23 UNK        -0.1150 
     13 C13         3.9731  -18.6290  -49.7908 C.ar      23 UNK        -0.0193 
     14 C14         4.7852  -17.6055  -49.2987 C.ar      23 UNK        -0.1150 
     15 C15         4.2662  -20.0740  -49.4219 C.3       23 UNK        -0.0205 
     16 S16         3.2309  -20.6183  -48.0273 S.3       23 UNK        -0.2404 
     17 C17         1.6609  -20.9795  -48.8821 C.3       23 UNK        -0.0398 
     18 CA          0.7843  -21.9532  -48.0655 C.3       11 UNK         0.1400 
     19 N           0.1492  -21.2977  -46.9182 N.am      11 UNK        -0.5000 
     20 C          -0.4935  -21.9467  -45.9388 C.2       10 UNK         0.5000 
     21 O          -0.5699  -23.1738  -45.8724 O.2       10 UNK        -0.5000 
     22 CA         -1.2153  -21.0842  -44.8875 C.3       10 UNK         0.1400 
     23 CB         -0.2250  -20.5478  -43.8431 C.3       10 UNK        -0.1800 
     24 N          -1.9703  -19.9780  -45.4830 N.am      10 UNK        -0.5000 
     25 C          -3.0227  -20.1398  -46.2990 C.2       9 UNK         0.5000 
     26 O          -3.4797  -21.2385  -46.6048 O.2       9 UNK        -0.5000 
     27 CA         -3.6574  -18.8783  -46.9091 C.3       9 UNK         0.1400 
     28 CB         -4.6435  -18.2355  -45.9242 C.3       9 UNK        -0.1800 
     29 N          -2.6678  -17.8914  -47.3382 N.am      9 UNK        -0.5000 
     30 C          -1.7587  -18.0901  -48.3038 C.2       8 UNK         0.5000 
     31 O          -1.6938  -19.1179  -48.9776 O.2       8 UNK        -0.5000 
     32 CA         -0.7101  -16.9799  -48.5049 C.3       8 UNK         0.1400 
     33 CB         -1.2946  -15.7866  -49.2720 C.3       8 UNK        -0.1800 
     34 N          -0.1526  -16.5085  -47.2407 N.am      8 UNK        -0.5000 
     35 C           0.5240  -17.2802  -46.3799 C.2       7 UNK         0.5000 
     36 O           0.7711  -18.4713  -46.5657 O.2       7 UNK        -0.5000 
     37 CA          0.9511  -16.6112  -45.0668 C.3       7 UNK         0.1400 
     38 CB          2.2086  -15.7667  -45.2898 C.3       7 UNK        -0.1800 
     39 N          -0.1164  -15.7831  -44.5051 N.am      7 UNK        -0.5000 
     40 C          -1.2564  -16.2762  -44.0005 C.2       6 UNK         0.5000 
     41 O          -1.4981  -17.4788  -43.9034 O.2       6 UNK        -0.5000 
     42 CA         -2.3280  -15.2541  -43.5856 C.3       6 UNK         0.1400 
     43 CB         -2.0648  -14.7277  -42.1670 C.3       6 UNK        -0.1800 
     44 N          -2.4193  -14.1373  -44.5285 N.am      6 UNK        -0.5000 
     45 C          -2.8891  -14.2601  -45.7793 C.2       5 UNK         0.5000 
     46 O          -3.2989  -15.3203  -46.2482 O.2       5 UNK        -0.5000 
     47 CA         -2.8801  -13.0089  -46.6758 C.3       5 UNK         0.1400 
     48 CB         -4.2272  -12.2771  -46.5864 C.3       5 UNK        -0.1800 
     49 N          -1.8020  -12.0679  -46.3774 N.am      5 UNK        -0.5000 
     50 C          -0.4917  -12.3334  -46.4612 C.2       4 UNK         0.5000 
     51 O          -0.0392  -13.4358  -46.7801 O.2       4 UNK        -0.5000 
     52 CA          0.4800  -11.1826  -46.1134 C.3       4 UNK         0.1400 
     53 CB         -0.2183   -9.8625  -45.7140 C.3       4 UNK        -0.1800 
     54 N           1.4543  -11.5553  -45.0828 N.am      4 UNK        -0.5000 
     55 C           1.1978  -12.0819  -43.8736 C.2       3 UNK         0.5000 
     56 O           0.0646  -12.3548  -43.4754 O.2       3 UNK        -0.5000 
     57 CA          2.4166  -12.3619  -42.9724 C.3       3 UNK         0.1400 
     58 CB          2.1695  -13.5074  -41.9694 C.3       3 UNK        -0.1800 
     59 N           3.6079  -12.6116  -43.7889 N.am      3 UNK        -0.5000 
     60 C           4.8731  -12.4170  -43.4003 C.2       2 UNK         0.5000 
     61 O           5.2096  -12.1072  -42.2559 O.2       2 UNK        -0.5000 
     62 CA          5.9412  -12.5351  -44.5018 C.3       2 UNK         0.1400 
     63 CB          6.6010  -11.1709  -44.7584 C.3       2 UNK        -0.1800 
     64 N           6.9816  -13.5022  -44.1564 N.am      2 UNK        -0.5000 
     65 C           6.9507  -14.8387  -44.2702 C.2       1 UNK         0.5000 
     66 O           7.9182  -15.5182  -43.9224 O.2       1 UNK        -0.5000 
     67 C          -0.2482  -22.6581  -48.9677 C.2       11 UNK         0.5000 
     68 O           0.0052  -23.7776  -49.4134 O.2       11 UNK        -0.5000 
     69 N          -1.4075  -22.0243  -49.1899 N.am      12 UNK        -0.5000 
     70 CA         -2.5262  -22.6149  -49.9222 C.3       12 UNK         0.1400 
     71 CB         -3.5736  -21.5341  -50.2127 C.3       12 UNK        -0.1800 
     72 C          -3.1414  -23.8209  -49.1868 C.2       12 UNK         0.5000 
     73 O          -3.4804  -24.8123  -49.8302 O.2       12 UNK        -0.5000 
     74 N          -3.2412  -23.7451  -47.8526 N.am      13 UNK        -0.5000 
     75 CA         -3.6999  -24.8347  -46.9903 C.3       13 UNK         0.1400 
     76 CB         -3.9462  -24.3146  -45.5669 C.3       13 UNK        -0.1800 
     77 C          -2.7334  -26.0299  -46.9834 C.2       13 UNK         0.5000 
     78 O          -3.1918  -27.1711  -47.0230 O.2       13 UNK        -0.5000 
     79 N          -1.4207  -25.7582  -47.0055 N.am      14 UNK        -0.5000 
     80 CA         -0.3693  -26.7670  -47.1710 C.3       14 UNK         0.1400 
     81 CB          1.0046  -26.1226  -46.9334 C.3       14 UNK        -0.1800 
     82 C          -0.4220  -27.4686  -48.5451 C.2       14 UNK         0.5000 
     83 O          -0.0957  -28.6522  -48.6363 O.2       14 UNK        -0.5000 
     84 N          -0.8798  -26.7424  -49.5740 N.am      15 UNK        -0.5000 
     85 CA         -1.1688  -27.2534  -50.9163 C.3       15 UNK         0.1400 
     86 CB         -1.0155  -26.1025  -51.9251 C.3       15 UNK        -0.1800 
     87 C          -2.5617  -27.9159  -51.0353 C.2       15 UNK         0.5000 
     88 O          -2.9081  -28.3803  -52.1223 O.2       15 UNK        -0.5000 
     89 N          -3.3290  -27.9536  -49.9341 N.am      16 UNK        -0.5000 
     90 CA         -4.6746  -28.5194  -49.7885 C.3       16 UNK         0.1400 
     91 CB         -4.6620  -30.0444  -50.0259 C.3       16 UNK        -0.1800 
     92 C          -5.7517  -27.7823  -50.6135 C.2       16 UNK         0.5000 
     93 O          -6.6950  -28.4120  -51.0965 O.2       16 UNK        -0.5000 
     94 N          -5.6093  -26.4582  -50.7448 N.am      17 UNK        -0.5000 
     95 CA         -6.5178  -25.5809  -51.4797 C.3       17 UNK         0.1400 
     96 CB         -6.0391  -25.4566  -52.9391 C.3       17 UNK        -0.1800 
     97 C          -6.6193  -24.2242  -50.7628 C.2       17 UNK         0.5000 
     98 O          -6.4625  -23.1824  -51.3978 O.2       17 UNK        -0.5000 
     99 N          -6.8609  -24.2614  -49.4422 N.am      18 UNK        -0.5000 
    100 CA        -6.8222  -23.1293  -48.5012 C.3       18 UNK         0.1400 
    101 CB        -7.3394  -23.6010  -47.1330 C.3       18 UNK        -0.1800 
    102 C         -7.5835  -21.8616  -48.9338 C.2       18 UNK         0.5000 
    103 O         -7.1282  -20.7530  -48.6514 O.2       18 UNK        -0.5000 
    104 N         -8.7124  -22.0510  -49.6279 N.am      19 UNK        -0.5000 
    105 CA        -9.5640  -20.9852  -50.1543 C.3       19 UNK         0.1400 
    106 CB       -10.8963  -21.6017  -50.6087 C.3       19 UNK        -0.1800 
    107 C         -8.9299  -20.1708  -51.3012 C.2       19 UNK         0.5000 
    108 O         -9.3978  -19.0625  -51.5661 O.2       19 UNK        -0.5000 
    109 N         -7.9046  -20.7178  -51.9735 N.am      20 UNK        -0.5000 
    110 CA        -7.2233  -20.0652  -53.0927 C.3       20 UNK         0.1400 
    111 CB        -6.3720  -21.0913  -53.8568 C.3       20 UNK        -0.1800 
    112 C         -6.3568  -18.8742  -52.6498 C.2       20 UNK         0.5000 
    113 O         -6.3351  -17.8604  -53.3475 O.2       20 UNK        -0.5000 
    114 N         -5.6572  -19.0277  -51.5129 N.am      21 UNK        -0.5000 
    115 CA        -4.7768  -18.0441  -50.8634 C.3       21 UNK         0.1400 
    116 CB        -5.6222  -17.0357  -50.0618 C.3       21 UNK        -0.1800 
    117 C         -3.7787  -17.3640  -51.8302 C.2       21 UNK         0.5000 
    118 O         -3.6877  -16.1361  -51.8649 O.2       21 UNK        -0.5000 
    119 N         -3.0903  -18.1876  -52.6329 N.am      22 UNK        -0.5000 
    120 CA        -2.1703  -17.7973  -53.7205 C.3       22 UNK         0.1400 
    121 C         -2.8507  -17.1486  -54.9680 C.2       22 UNK         0.5000 
    122 N         -4.1718  -17.0714  -55.0654 N.am      22 UNK        -0.7600 
    123 O         -2.1634  -16.7357  -55.8984 O.2       22 UNK        -0.5000 
    124 C124       -0.9444  -16.9648  -53.2433 C.3       23 UNK        -0.0398 
    125 S125        0.1053  -17.8302  -52.0299 S.3       23 UNK        -0.2404 
    126 C126        1.4433  -16.5947  -51.8631 C.3       23 UNK        -0.0205 
    127 H127        3.7632  -18.4464  -42.0288 H         1 UNK         0.0600 
    128 H128        5.4076  -18.3717  -41.3859 H         1 UNK         0.0600 
    129 H129        5.1146  -19.0568  -42.9873 H         1 UNK         0.0600 
    130 H130        5.7398  -17.6604  -44.6006 H         1 UNK         0.3000 
    131 H131        4.8344  -14.9494  -44.7051 H         1 UNK         0.0600 
    132 H132        5.4126  -16.8081  -46.6333 H         1 UNK         0.0800 
    133 H133        6.9017  -15.9153  -46.6967 H         1 UNK         0.0800 
    134 H134        5.3687  -14.3060  -49.7754 H         1 UNK         0.0800 
    135 H135        6.4683  -15.4928  -49.1326 H         1 UNK         0.0800 
    136 H136        3.2013  -14.9366  -50.6622 H         1 UNK         0.1150 
    137 H137        2.2942  -19.1156  -51.0249 H         1 UNK         0.1150 
    138 H138        5.6350  -17.8501  -48.6780 H         1 UNK         0.1150 
    139 H139        4.1198  -20.7251  -50.2848 H         1 UNK         0.0800 
    140 H140        5.3143  -20.1821  -49.1391 H         1 UNK         0.0800 
    141 H141        1.9010  -21.4046  -49.8585 H         1 UNK         0.0800 
    142 H142        1.1275  -20.0461  -49.0717 H         1 UNK         0.0800 
    143 H143        1.4300  -22.7417  -47.6723 H         1 UNK         0.0600 
    144 H144        0.2183  -20.2835  -46.8762 H         1 UNK         0.3000 
    145 H145       -1.9289  -21.7281  -44.3695 H         1 UNK         0.0600 
    146 H146       -0.7436  -20.0145  -43.0464 H         1 UNK         0.0600 
    147 H147        0.3316  -21.3629  -43.3791 H         1 UNK         0.0600 
    148 H148        0.5009  -19.8657  -44.2850 H         1 UNK         0.0600 
    149 H149       -1.6748  -19.0398  -45.2354 H         1 UNK         0.3000 
    150 H150       -4.2223  -19.1885  -47.7899 H         1 UNK         0.0600 
    151 H151       -5.3953  -18.9555  -45.5982 H         1 UNK         0.0600 
    152 H152       -5.1722  -17.4016  -46.3863 H         1 UNK         0.0600 
    153 H153       -4.1368  -17.8602  -45.0344 H         1 UNK         0.0600 
    154 H154       -2.6894  -16.9959  -46.8565 H         1 UNK         0.3000 
    155 H155        0.1144  -17.3962  -49.0863 H         1 UNK         0.0600 
    156 H156       -2.1832  -15.3860  -48.7856 H         1 UNK         0.0600 
    157 H157       -1.5801  -16.0811  -50.2795 H         1 UNK         0.0600 
    158 H158       -0.5675  -14.9798  -49.3666 H         1 UNK         0.0600 
    159 H159       -0.2814  -15.5279  -47.0170 H         1 UNK         0.3000 
    160 H160        1.1925  -17.3989  -44.3499 H         1 UNK         0.0600 
    161 H161        2.0212  -14.9091  -45.9359 H         1 UNK         0.0600 
    162 H162        2.9888  -16.3654  -45.7603 H         1 UNK         0.0600 
    163 H163        2.6046  -15.4021  -44.3456 H         1 UNK         0.0600 
    164 H164       -0.0236  -14.7811  -44.5981 H         1 UNK         0.3000 
    165 H165       -3.2918  -15.7678  -43.5780 H         1 UNK         0.0600 
    166 H166       -2.8263  -14.0091  -41.8637 H         1 UNK         0.0600 
    167 H167       -2.0806  -15.5434  -41.4432 H         1 UNK         0.0600 
    168 H168       -1.0926  -14.2421  -42.0863 H         1 UNK         0.0600 
    169 H169       -2.0426  -13.2482  -44.2259 H         1 UNK         0.3000 
    170 H170       -2.7454  -13.3443  -47.7055 H         1 UNK         0.0600 
    171 H171       -5.0526  -12.9473  -46.8307 H         1 UNK         0.0600 
    172 H172       -4.4072  -11.8863  -45.5840 H         1 UNK         0.0600 
    173 H173       -4.2710  -11.4424  -47.2863 H         1 UNK         0.0600 
    174 H174       -2.0822  -11.1428  -46.0862 H         1 UNK         0.3000 
    175 H175        1.0506  -10.9913  -47.0233 H         1 UNK         0.0600 
    176 H176       -0.8135   -9.9718  -44.8064 H         1 UNK         0.0600 
    177 H177        0.5151   -9.0772  -45.5301 H         1 UNK         0.0600 
    178 H178       -0.8735   -9.5011  -46.5076 H         1 UNK         0.0600 
    179 H179        2.4139  -11.3421  -45.3102 H         1 UNK         0.3000 
    180 H180        2.5820  -11.4459  -42.4017 H         1 UNK         0.0600 
    181 H181        1.8958  -14.4364  -42.4665 H         1 UNK         0.0600 
    182 H182        1.3574  -13.2564  -41.2864 H         1 UNK         0.0600 
    183 H183        3.0512  -13.7022  -41.3590 H         1 UNK         0.0600 
    184 H184        3.4221  -12.8899  -44.7420 H         1 UNK         0.3000 
    185 H185        5.4632  -12.8259  -45.4330 H         1 UNK         0.0600 
    186 H186        5.8563  -10.4206  -45.0276 H         1 UNK         0.0600 
    187 H187        7.1316  -10.8049  -43.8784 H         1 UNK         0.0600 
    188 H188        7.3150  -11.2271  -45.5805 H         1 UNK         0.0600 
    189 H189        7.7997  -13.0954  -43.7282 H         1 UNK         0.3000 
    190 H190       -1.5334  -21.0769  -48.8451 H         1 UNK         0.3000 
    191 H191       -2.1444  -22.9734  -50.8803 H         1 UNK         0.0600 
    192 H192       -3.1240  -20.6945  -50.7411 H         1 UNK         0.0600 
    193 H193       -4.3654  -21.9231  -50.8484 H         1 UNK         0.0600 
    194 H194       -4.0333  -21.1548  -49.3002 H         1 UNK         0.0600 
    195 H195       -3.0228  -22.8644  -47.3928 H         1 UNK         0.3000 
    196 H196       -4.6497  -25.1934  -47.3898 H         1 UNK         0.0600 
    197 H197       -4.3298  -25.1070  -44.9232 H         1 UNK         0.0600 
    198 H198       -4.6798  -23.5086  -45.5622 H         1 UNK         0.0600 
    199 H199       -3.0320  -23.9353  -45.1112 H         1 UNK         0.0600 
    200 H200       -1.1207  -24.7933  -46.9024 H         1 UNK         0.3000 
    201 H201       -0.5202  -27.5314  -46.4060 H         1 UNK         0.0600 
    202 H202        1.0592  -25.6627  -45.9465 H         1 UNK         0.0600 
    203 H203        1.2245  -25.3533  -47.6730 H         1 UNK         0.0600 
    204 H204        1.7990  -26.8676  -46.9905 H         1 UNK         0.0600 
    205 H205       -1.0794  -25.7621  -49.4167 H         1 UNK         0.3000 
    206 H206       -0.4293  -28.0166  -51.1666 H         1 UNK         0.0600 
    207 H207       -0.0324  -25.6376  -51.8474 H         1 UNK         0.0600 
    208 H208       -1.1242  -26.4617  -52.9490 H         1 UNK         0.0600 
    209 H209       -1.7648  -25.3267  -51.7712 H         1 UNK         0.0600 
    210 H210       -2.9577  -27.5332  -49.0911 H         1 UNK         0.3000 
    211 H211       -4.9503  -28.3617  -48.7453 H         1 UNK         0.0600 
    212 H212       -4.4665  -30.2923  -51.0694 H         1 UNK         0.0600 
    213 H213       -5.6214  -30.4895  -49.7599 H         1 UNK         0.0600 
    214 H214       -3.9008  -30.5315  -49.4164 H         1 UNK         0.0600 
    215 H215       -4.7969  -25.9974  -50.3357 H         1 UNK         0.3000 
    216 H216       -7.5247  -26.0028  -51.4813 H         1 UNK         0.0600 
    217 H217       -5.0388  -25.0250  -52.9942 H         1 UNK         0.0600 
    218 H218       -6.0104  -26.4299  -53.4292 H         1 UNK         0.0600 
    219 H219       -6.7073  -24.8199  -53.5202 H         1 UNK         0.0600 
    220 H220       -6.9940  -25.1711  -49.0256 H         1 UNK         0.3000 
    221 H221       -5.7781  -22.8403  -48.3865 H         1 UNK         0.0600 
    222 H222       -8.3906  -23.8880  -47.1800 H         1 UNK         0.0600 
    223 H223       -6.7797  -24.4580  -46.7617 H         1 UNK         0.0600 
    224 H224       -7.2483  -22.8092  -46.3880 H         1 UNK         0.0600 
    225 H225       -8.9953  -22.9988  -49.8286 H         1 UNK         0.3000 
    226 H226       -9.7714  -20.2881  -49.3397 H         1 UNK         0.0600 
    227 H227      -11.3977  -22.1106  -49.7852 H         1 UNK         0.0600 
    228 H228      -11.5784  -20.8339  -50.9766 H         1 UNK         0.0600 
    229 H229      -10.7508  -22.3240  -51.4129 H         1 UNK         0.0600 
    230 H230       -7.5509  -21.6297  -51.6957 H         1 UNK         0.3000 
    231 H231       -7.9849  -19.6870  -53.7781 H         1 UNK         0.0600 
    232 H232       -6.9748  -21.9367  -54.1890 H         1 UNK         0.0600 
    233 H233       -5.5589  -21.4812  -53.2436 H         1 UNK         0.0600 
    234 H234       -5.9242  -20.6413  -54.7438 H         1 UNK         0.0600 
    235 H235       -5.7779  -19.8993  -51.0164 H         1 UNK         0.3000 
    236 H236       -4.1711  -18.5971  -50.1469 H         1 UNK         0.0600 
    237 H237       -4.9864  -16.3529  -49.4962 H         1 UNK         0.0600 
    238 H238       -6.2571  -16.4357  -50.7146 H         1 UNK         0.0600 
    239 H239       -6.2652  -17.5463  -49.3446 H         1 UNK         0.0600 
    240 H240       -3.2539  -19.1794  -52.5465 H         1 UNK         0.3000 
    241 H241       -1.7785  -18.7414  -54.1002 H         1 UNK         0.0600 
    242 H242       -4.5747  -16.6590  -55.8914 H         1 UNK         0.3800 
    243 H243       -4.7874  -17.3784  -54.3176 H         1 UNK         0.3800 
    244 H244       -1.2631  -16.0106  -52.8228 H         1 UNK         0.0800 
    245 H245       -0.3036  -16.7175  -54.0912 H         1 UNK         0.0800 
    246 H246        0.9992  -15.6614  -51.5132 H         1 UNK         0.0800 
    247 H247        1.8593  -16.3915  -52.8507 H         1 UNK         0.0800 
@<TRIPOS>BOND
     1    1    2 1    
     2    1  127 1    
     3    1  128 1    
     4    1  129 1    
     5    2    3 2    
     6    2    4 am   BACKBONE|DICT|INTERRES
     7    4    5 1    
     8    4  130 1    
     9    5    6 1    
    10    5   65 1    
    11    5  131 1    
    12    6    7 1    
    13    6  132 1    
    14    6  133 1    
    15    7    8 1    
    16    8    9 1    
    17    8  134 1    
    18    8  135 1    
    19    9   10 ar   
    20    9   14 ar   
    21   10   11 ar   
    22   10  136 1    
    23   11   12 ar   
    24   11  126 1    
    25   12   13 ar   
    26   12  137 1    
    27   13   14 ar   
    28   13   15 1    
    29   14  138 1    
    30   15   16 1    
    31   15  139 1    
    32   15  140 1    
    33   16   17 1    
    34   17   18 1    
    35   17  141 1    
    36   17  142 1    
    37   18   19 1    
    38   18   67 1    
    39   18  143 1    
    40   19   20 am   BACKBONE|DICT|INTERRES
    41   19  144 1    
    42   20   21 2    
    43   20   22 1    
    44   22   23 1    
    45   22   24 1    
    46   22  145 1    
    47   23  146 1    
    48   23  147 1    
    49   23  148 1    
    50   24   25 am   BACKBONE|DICT|INTERRES
    51   24  149 1    
    52   25   26 2    
    53   25   27 1    
    54   27   28 1    
    55   27   29 1    
    56   27  150 1    
    57   28  151 1    
    58   28  152 1    
    59   28  153 1    
    60   29   30 am   BACKBONE|DICT|INTERRES
    61   29  154 1    
    62   30   31 2    
    63   30   32 1    
    64   32   33 1    
    65   32   34 1    
    66   32  155 1    
    67   33  156 1    
    68   33  157 1    
    69   33  158 1    
    70   34   35 am   BACKBONE|DICT|INTERRES
    71   34  159 1    
    72   35   36 2    
    73   35   37 1    
    74   37   38 1    
    75   37   39 1    
    76   37  160 1    
    77   38  161 1    
    78   38  162 1    
    79   38  163 1    
    80   39   40 am   BACKBONE|DICT|INTERRES
    81   39  164 1    
    82   40   41 2    
    83   40   42 1    
    84   42   43 1    
    85   42   44 1    
    86   42  165 1    
    87   43  166 1    
    88   43  167 1    
    89   43  168 1    
    90   44   45 am   BACKBONE|DICT|INTERRES
    91   44  169 1    
    92   45   46 2    
    93   45   47 1    
    94   47   48 1    
    95   47   49 1    
    96   47  170 1    
    97   48  171 1    
    98   48  172 1    
    99   48  173 1    
   100   49   50 am   BACKBONE|DICT|INTERRES
   101   49  174 1    
   102   50   51 2    
   103   50   52 1    
   104   52   53 1    
   105   52   54 1    
   106   52  175 1    
   107   53  176 1    
   108   53  177 1    
   109   53  178 1    
   110   54   55 am   BACKBONE|DICT|INTERRES
   111   54  179 1    
   112   55   56 2    
   113   55   57 1    
   114   57   58 1    
   115   57   59 1    
   116   57  180 1    
   117   58  181 1    
   118   58  182 1    
   119   58  183 1    
   120   59   60 am   BACKBONE|DICT|INTERRES
   121   59  184 1    
   122   60   61 2    
   123   60   62 1    
   124   62   63 1    
   125   62   64 1    
   126   62  185 1    
   127   63  186 1    
   128   63  187 1    
   129   63  188 1    
   130   64   65 am   BACKBONE|DICT|INTERRES
   131   64  189 1    
   132   65   66 2    
   133   67   68 2    
   134   67   69 am   BACKBONE|DICT|INTERRES
   135   69   70 1    
   136   69  190 1    
   137   70   71 1    
   138   70   72 1    
   139   70  191 1    
   140   71  192 1    
   141   71  193 1    
   142   71  194 1    
   143   72   73 2    
   144   72   74 am   BACKBONE|DICT|INTERRES
   145   74   75 1    
   146   74  195 1    
   147   75   76 1    
   148   75   77 1    
   149   75  196 1    
   150   76  197 1    
   151   76  198 1    
   152   76  199 1    
   153   77   78 2    
   154   77   79 am   BACKBONE|DICT|INTERRES
   155   79   80 1    
   156   79  200 1    
   157   80   81 1    
   158   80   82 1    
   159   80  201 1    
   160   81  202 1    
   161   81  203 1    
   162   81  204 1    
   163   82   83 2    
   164   82   84 am   BACKBONE|DICT|INTERRES
   165   84   85 1    
   166   84  205 1    
   167   85   86 1    
   168   85   87 1    
   169   85  206 1    
   170   86  207 1    
   171   86  208 1    
   172   86  209 1    
   173   87   88 2    
   174   87   89 am   BACKBONE|DICT|INTERRES
   175   89   90 1    
   176   89  210 1    
   177   90   91 1    
   178   90   92 1    
   179   90  211 1    
   180   91  212 1    
   181   91  213 1    
   182   91  214 1    
   183   92   93 2    
   184   92   94 am   BACKBONE|DICT|INTERRES
   185   94   95 1    
   186   94  215 1    
   187   95   96 1    
   188   95   97 1    
   189   95  216 1    
   190   96  217 1    
   191   96  218 1    
   192   96  219 1    
   193   97   98 2    
   194   97   99 am   BACKBONE|DICT|INTERRES
   195   99  100 1    
   196   99  220 1    
   197  100  101 1    
   198  100  102 1    
   199  100  221 1    
   200  101  222 1    
   201  101  223 1    
   202  101  224 1    
   203  102  103 2    
   204  102  104 am   BACKBONE|DICT|INTERRES
   205  104  105 1    
   206  104  225 1    
   207  105  106 1    
   208  105  107 1    
   209  105  226 1    
   210  106  227 1    
   211  106  228 1    
   212  106  229 1    
   213  107  108 2    
   214  107  109 am   BACKBONE|DICT|INTERRES
   215  109  110 1    
   216  109  230 1    
   217  110  111 1    
   218  110  112 1    
   219  110  231 1    
   220  111  232 1    
   221  111  233 1    
   222  111  234 1    
   223  112  113 2    
   224  112  114 am   BACKBONE|DICT|INTERRES
   225  114  115 1    
   226  114  235 1    
   227  115  116 1    
   228  115  117 1    
   229  115  236 1    
   230  116  237 1    
   231  116  238 1    
   232  116  239 1    
   233  117  118 2    
   234  117  119 am   BACKBONE|DICT|INTERRES
   235  119  120 1    
   236  119  240 1    
   237  120  121 1    
   238  120  124 1    
   239  120  241 1    
   240  121  122 am   BACKBONE|DICT|INTERRES
   241  121  123 2    
   242  122  242 1    
   243  122  243 1    
   244  124  125 1    
   245  124  244 1    
   246  124  245 1    
   247  125  126 1    
   248  126  246 1    
   249  126  247 1    
@<TRIPOS>SUBSTRUCTURE
     1 UNK         1 GROUP             0       ****    0 ROOT    
