@<TRIPOS>MOLECULE
3R540
247   249    1
SMALL
USER_CHARGES


@<TRIPOS>ATOM
      1 CA         -4.0277  -15.2946  -48.7122 C.3       0 UNK        -0.1800 
      2 C          -3.0884  -14.6974  -49.7493 C.2       0 UNK         0.5000 
      3 O          -3.5325  -13.9434  -50.6152 O.2       0 UNK        -0.5000 
      4 N          -1.7934  -15.0227  -49.6598 N.am      1 UNK        -0.5000 
      5 CA         -0.7363  -14.5244  -50.5487 C.3       1 UNK         0.1400 
      6 C6          0.5425  -15.3944  -50.4632 C.3       23 UNK        -0.0398 
      7 S7          1.2264  -15.5602  -48.7718 S.3       23 UNK        -0.2404 
      8 C8          2.9038  -16.1735  -49.1164 C.3       23 UNK        -0.0205 
      9 C9          2.8913  -17.6382  -49.5247 C.ar      23 UNK        -0.0193 
     10 C10         2.7711  -17.9959  -50.8704 C.ar      23 UNK        -0.1150 
     11 C11         2.7337  -19.3417  -51.2418 C.ar      23 UNK        -0.0193 
     12 C12         2.8475  -20.3304  -50.2614 C.ar      23 UNK        -0.1150 
     13 C13         2.9697  -19.9908  -48.9073 C.ar      23 UNK        -0.0193 
     14 C14         2.9913  -18.6383  -48.5527 C.ar      23 UNK        -0.1150 
     15 C15         3.1012  -21.0360  -47.7968 C.3       23 UNK        -0.0205 
     16 S16         2.7227  -22.7598  -48.2739 S.3       23 UNK        -0.2404 
     17 C17         0.8990  -22.7193  -48.3374 C.3       23 UNK        -0.0398 
     18 CA          0.2622  -23.4536  -47.1312 C.3       11 UNK         0.1400 
     19 N           0.6277  -22.8334  -45.8589 N.am      11 UNK        -0.5000 
     20 C           1.3245  -23.4174  -44.8750 C.2       10 UNK         0.5000 
     21 O           1.7220  -24.5820  -44.9178 O.2       10 UNK        -0.5000 
     22 CA          1.6194  -22.5700  -43.6193 C.3       10 UNK         0.1400 
     23 CB          3.0568  -22.0303  -43.6624 C.3       10 UNK        -0.1800 
     24 N           0.6920  -21.4504  -43.4508 N.am      10 UNK        -0.5000 
     25 C          -0.6120  -21.5855  -43.1713 C.2       9 UNK         0.5000 
     26 O          -1.1401  -22.6686  -42.9185 O.2       9 UNK        -0.5000 
     27 CA         -1.4872  -20.3175  -43.2044 C.3       9 UNK         0.1400 
     28 CB         -1.8158  -19.8655  -41.7734 C.3       9 UNK        -0.1800 
     29 N          -0.9270  -19.1841  -43.9488 N.am      9 UNK        -0.5000 
     30 C          -0.5632  -19.1753  -45.2407 C.2       8 UNK         0.5000 
     31 O          -0.6017  -20.1645  -45.9722 O.2       8 UNK        -0.5000 
     32 CA         -0.0055  -17.8463  -45.7833 C.3       8 UNK         0.1400 
     33 CB         -1.1466  -16.8605  -46.0776 C.3       8 UNK        -0.1800 
     34 N           0.9575  -17.2269  -44.8715 N.am      8 UNK        -0.5000 
     35 C           2.1206  -17.7834  -44.5008 C.2       7 UNK         0.5000 
     36 O           2.5256  -18.8686  -44.9150 O.2       7 UNK        -0.5000 
     37 CA          2.9511  -17.0176  -43.4598 C.3       7 UNK         0.1400 
     38 CB          3.7855  -15.9123  -44.1264 C.3       7 UNK        -0.1800 
     39 N           2.0928  -16.4445  -42.4231 N.am      7 UNK        -0.5000 
     40 C           1.5756  -17.1504  -41.4063 C.2       6 UNK         0.5000 
     41 O           1.8372  -18.3350  -41.1956 O.2       6 UNK        -0.5000 
     42 CA          0.5868  -16.4220  -40.4741 C.3       6 UNK         0.1400 
     43 CB          1.3318  -15.7902  -39.2887 C.3       6 UNK        -0.1800 
     44 N          -0.1977  -15.3885  -41.1516 N.am      6 UNK        -0.5000 
     45 C          -1.1096  -15.6260  -42.1046 C.2       5 UNK         0.5000 
     46 O          -1.4107  -16.7521  -42.4946 O.2       5 UNK        -0.5000 
     47 CA         -1.7519  -14.3973  -42.7750 C.3       5 UNK         0.1400 
     48 CB         -3.0144  -13.9655  -42.0156 C.3       5 UNK        -0.1800 
     49 N          -0.8479  -13.2514  -42.8997 N.am      5 UNK        -0.5000 
     50 C           0.3288  -13.2539  -43.5381 C.2       4 UNK         0.5000 
     51 O           0.8064  -14.2573  -44.0719 O.2       4 UNK        -0.5000 
     52 CA          1.0804  -11.9073  -43.5842 C.3       4 UNK         0.1400 
     53 CB          2.5326  -12.0659  -44.0693 C.3       4 UNK        -0.1800 
     54 N           0.3982  -10.9506  -44.4536 N.am      4 UNK        -0.5000 
     55 C          -0.7523  -10.3152  -44.1874 C.2       3 UNK         0.5000 
     56 O          -1.3275  -10.3806  -43.0995 O.2       3 UNK        -0.5000 
     57 CA         -1.3769   -9.4835  -45.3292 C.3       3 UNK         0.1400 
     58 CB         -1.1503   -7.9833  -45.0872 C.3       3 UNK        -0.1800 
     59 N          -0.8672   -9.8324  -46.6607 N.am      3 UNK        -0.5000 
     60 C          -1.0680  -11.0060  -47.2753 C.2       2 UNK         0.5000 
     61 O          -1.7711  -11.9089  -46.8115 O.2       2 UNK        -0.5000 
     62 CA         -0.3219  -11.2166  -48.6027 C.3       2 UNK         0.1400 
     63 CB          1.2050  -11.0792  -48.4156 C.3       2 UNK        -0.1800 
     64 N          -0.6382  -12.5504  -49.0942 N.am      2 UNK        -0.5000 
     65 C          -0.4057  -13.0332  -50.3186 C.2       1 UNK         0.5000 
     66 O           0.0604  -12.3633  -51.2417 O.2       1 UNK        -0.5000 
     67 C          -1.2740  -23.5227  -47.2132 C.2       11 UNK         0.5000 
     68 O          -1.8698  -23.0188  -48.1665 O.2       11 UNK        -0.5000 
     69 N          -1.8880  -24.1257  -46.1839 N.am      12 UNK        -0.5000 
     70 CA         -3.3295  -24.3286  -46.0410 C.3       12 UNK         0.1400 
     71 CB         -3.6422  -24.7800  -44.6033 C.3       12 UNK        -0.1800 
     72 C          -3.8873  -25.2812  -47.1126 C.2       12 UNK         0.5000 
     73 O          -4.2600  -24.8263  -48.1942 O.2       12 UNK        -0.5000 
     74 N          -3.9131  -26.5875  -46.8187 N.am      13 UNK        -0.5000 
     75 CA         -4.3842  -27.6331  -47.7349 C.3       13 UNK         0.1400 
     76 CB         -4.4379  -28.9713  -46.9829 C.3       13 UNK        -0.1800 
     77 C          -3.5265  -27.7624  -49.0102 C.2       13 UNK         0.5000 
     78 O          -4.0271  -28.2146  -50.0400 O.2       13 UNK        -0.5000 
     79 N          -2.2590  -27.3386  -48.9185 N.am      14 UNK        -0.5000 
     80 CA         -1.2931  -27.3099  -50.0131 C.3       14 UNK         0.1400 
     81 CB          0.1058  -27.0605  -49.4278 C.3       14 UNK        -0.1800 
     82 C          -1.6056  -26.2629  -51.1002 C.2       14 UNK         0.5000 
     83 O          -1.1351  -26.4312  -52.2261 O.2       14 UNK        -0.5000 
     84 N          -2.3619  -25.2055  -50.7658 N.am      15 UNK        -0.5000 
     85 CA         -2.6387  -24.0952  -51.6772 C.3       15 UNK         0.1400 
     86 CB         -1.4703  -23.0932  -51.6749 C.3       15 UNK        -0.1800 
     87 C          -4.0128  -23.4515  -51.4270 C.2       15 UNK         0.5000 
     88 O          -4.1422  -22.2277  -51.4986 O.2       15 UNK        -0.5000 
     89 N          -5.0240  -24.3023  -51.2114 N.am      16 UNK        -0.5000 
     90 CA         -6.4584  -23.9918  -51.2394 C.3       16 UNK         0.1400 
     91 CB         -6.8842  -23.5511  -52.6571 C.3       16 UNK        -0.1800 
     92 C          -6.9551  -23.0261  -50.1409 C.2       16 UNK         0.5000 
     93 O          -7.8762  -22.2481  -50.3933 O.2       16 UNK        -0.5000 
     94 N          -6.3816  -23.1415  -48.9342 N.am      17 UNK        -0.5000 
     95 CA         -6.7941  -22.4968  -47.6793 C.3       17 UNK         0.1400 
     96 CB         -8.1192  -23.1150  -47.1873 C.3       17 UNK        -0.1800 
     97 C          -6.8614  -20.9519  -47.7683 C.2       17 UNK         0.5000 
     98 O          -7.9550  -20.3920  -47.8487 O.2       17 UNK        -0.5000 
     99 N          -5.7276  -20.2429  -47.7592 N.am      18 UNK        -0.5000 
    100 CA        -4.3577  -20.7260  -47.6347 C.3       18 UNK         0.1400 
    101 CB        -3.9468  -20.6918  -46.1539 C.3       18 UNK        -0.1800 
    102 C         -3.4740  -19.7974  -48.4700 C.2       18 UNK         0.5000 
    103 O         -3.7132  -18.5876  -48.4701 O.2       18 UNK        -0.5000 
    104 N         -2.4961  -20.3794  -49.1763 N.am      19 UNK        -0.5000 
    105 CA        -1.5877  -19.7136  -50.1199 C.3       19 UNK         0.1400 
    106 CB        -0.5880  -18.8338  -49.3558 C.3       19 UNK        -0.1800 
    107 C         -2.3210  -18.9465  -51.2459 C.2       19 UNK         0.5000 
    108 O         -1.8425  -17.9095  -51.7067 O.2       19 UNK        -0.5000 
    109 N         -3.4906  -19.4610  -51.6439 N.am      20 UNK        -0.5000 
    110 CA        -4.4099  -18.8275  -52.5829 C.3       20 UNK         0.1400 
    111 CB        -5.8471  -19.0575  -52.0884 C.3       20 UNK        -0.1800 
    112 C         -4.2373  -19.3773  -54.0058 C.2       20 UNK         0.5000 
    113 O         -4.3988  -18.6238  -54.9664 O.2       20 UNK        -0.5000 
    114 N         -3.9273  -20.6766  -54.1222 N.am      21 UNK        -0.5000 
    115 CA        -3.7403  -21.3563  -55.4066 C.3       21 UNK         0.1400 
    116 CB        -3.8515  -22.8736  -55.2009 C.3       21 UNK        -0.1800 
    117 C         -2.3995  -21.0117  -56.0808 C.2       21 UNK         0.5000 
    118 O         -2.3276  -20.9882  -57.3104 O.2       21 UNK        -0.5000 
    119 N         -1.3640  -20.7773  -55.2675 N.am      22 UNK        -0.5000 
    120 CA        -0.0092  -20.4193  -55.7065 C.3       22 UNK         0.1400 
    121 C          0.1629  -18.9010  -56.0015 C.2       22 UNK         0.5000 
    122 N          1.2459  -18.5149  -56.6637 N.am      22 UNK        -0.7600 
    123 O         -0.6619  -18.0658  -55.6377 O.2       22 UNK        -0.5000 
    124 C124        1.0584  -20.9715  -54.7265 C.3       23 UNK        -0.0398 
    125 S125        0.8872  -20.3810  -53.0062 S.3       23 UNK        -0.2404 
    126 C126        2.5620  -19.7400  -52.6980 C.3       23 UNK        -0.0205 
    127 H127       -4.6058  -14.5073  -48.2286 H         1 UNK         0.0600 
    128 H128       -3.4845  -15.8380  -47.9393 H         1 UNK         0.0600 
    129 H129       -4.7210  -15.9870  -49.1900 H         1 UNK         0.0600 
    130 H130       -1.4837  -15.6553  -48.9368 H         1 UNK         0.3000 
    131 H131       -1.1101  -14.6043  -51.5719 H         1 UNK         0.0600 
    132 H132        0.3190  -16.3894  -50.8452 H         1 UNK         0.0800 
    133 H133        1.3143  -14.9973  -51.1250 H         1 UNK         0.0800 
    134 H134        3.3735  -15.5630  -49.8889 H         1 UNK         0.0800 
    135 H135        3.5115  -16.0473  -48.2191 H         1 UNK         0.0800 
    136 H136        2.6854  -17.2274  -51.6253 H         1 UNK         0.1150 
    137 H137        2.8276  -21.3642  -50.5720 H         1 UNK         0.1150 
    138 H138        3.0825  -18.3611  -47.5119 H         1 UNK         0.1150 
    139 H139        4.1246  -21.0049  -47.4215 H         1 UNK         0.0800 
    140 H140        2.4594  -20.7571  -46.9592 H         1 UNK         0.0800 
    141 H141        0.5981  -23.1939  -49.2723 H         1 UNK         0.0800 
    142 H142        0.5510  -21.6867  -48.3915 H         1 UNK         0.0800 
    143 H143        0.6089  -24.4881  -47.1590 H         1 UNK         0.0600 
    144 H144        0.2963  -21.8801  -45.7345 H         1 UNK         0.3000 
    145 H145        1.5247  -23.2221  -42.7486 H         1 UNK         0.0600 
    146 H146        3.2815  -21.4263  -42.7831 H         1 UNK         0.0600 
    147 H147        3.7783  -22.8478  -43.6902 H         1 UNK         0.0600 
    148 H148        3.2284  -21.4154  -44.5462 H         1 UNK         0.0600 
    149 H149        1.0487  -20.5284  -43.6632 H         1 UNK         0.3000 
    150 H150       -2.4229  -20.5946  -43.6914 H         1 UNK         0.0600 
    151 H151       -2.2181  -20.6881  -41.1806 H         1 UNK         0.0600 
    152 H152       -2.5657  -19.0745  -41.7726 H         1 UNK         0.0600 
    153 H153       -0.9299  -19.4907  -41.2592 H         1 UNK         0.0600 
    154 H154       -0.8911  -18.3042  -43.4395 H         1 UNK         0.3000 
    155 H155        0.5186  -18.0550  -46.7172 H         1 UNK         0.0600 
    156 H156       -1.7138  -16.6193  -45.1797 H         1 UNK         0.0600 
    157 H157       -1.8485  -17.2847  -46.7954 H         1 UNK         0.0600 
    158 H158       -0.7698  -15.9269  -46.4948 H         1 UNK         0.0600 
    159 H159        0.7251  -16.3089  -44.5094 H         1 UNK         0.3000 
    160 H160        3.6431  -17.7230  -42.9945 H         1 UNK         0.0600 
    161 H161        3.1643  -15.1988  -44.6675 H         1 UNK         0.0600 
    162 H162        4.4867  -16.3392  -44.8445 H         1 UNK         0.0600 
    163 H163        4.3694  -15.3594  -43.3905 H         1 UNK         0.0600 
    164 H164        1.7755  -15.4962  -42.5757 H         1 UNK         0.3000 
    165 H165       -0.1075  -17.1689  -40.0830 H         1 UNK         0.0600 
    166 H166        0.6363  -15.3409  -38.5796 H         1 UNK         0.0600 
    167 H167        1.9083  -16.5403  -38.7455 H         1 UNK         0.0600 
    168 H168        2.0266  -15.0157  -39.6160 H         1 UNK         0.0600 
    169 H169       -0.0101  -14.4304  -40.8957 H         1 UNK         0.3000 
    170 H170       -2.0457  -14.6894  -43.7846 H         1 UNK         0.0600 
    171 H171       -3.7203  -14.7926  -41.9287 H         1 UNK         0.0600 
    172 H172       -2.7803  -13.6247  -41.0063 H         1 UNK         0.0600 
    173 H173       -3.5274  -13.1545  -42.5332 H         1 UNK         0.0600 
    174 H174       -1.1885  -12.3608  -42.5536 H         1 UNK         0.3000 
    175 H175        1.1069  -11.5053  -42.5693 H         1 UNK         0.0600 
    176 H176        2.5789  -12.4475  -45.0903 H         1 UNK         0.0600 
    177 H177        3.0633  -11.1141  -44.0431 H         1 UNK         0.0600 
    178 H178        3.0829  -12.7609  -43.4339 H         1 UNK         0.0600 
    179 H179        0.7830  -10.8442  -45.3795 H         1 UNK         0.3000 
    180 H180       -2.4520   -9.6741  -45.3179 H         1 UNK         0.0600 
    181 H181       -0.0898   -7.7287  -45.1028 H         1 UNK         0.0600 
    182 H182       -1.5464   -7.6792  -44.1173 H         1 UNK         0.0600 
    183 H183       -1.6527   -7.3807  -45.8441 H         1 UNK         0.0600 
    184 H184       -0.2867   -9.1387  -47.1101 H         1 UNK         0.3000 
    185 H185       -0.6801  -10.4754  -49.3196 H         1 UNK         0.0600 
    186 H186        1.4800  -10.0844  -48.0644 H         1 UNK         0.0600 
    187 H187        1.5853  -11.8027  -47.6930 H         1 UNK         0.0600 
    188 H188        1.7384  -11.2382  -49.3526 H         1 UNK         0.0600 
    189 H189       -1.0826  -13.1445  -48.4047 H         1 UNK         0.3000 
    190 H190       -1.3132  -24.4728  -45.4295 H         1 UNK         0.3000 
    191 H191       -3.8248  -23.3739  -46.1970 H         1 UNK         0.0600 
    192 H192       -3.3958  -23.9936  -43.8896 H         1 UNK         0.0600 
    193 H193       -4.7035  -25.0009  -44.4809 H         1 UNK         0.0600 
    194 H194       -3.0799  -25.6696  -44.3177 H         1 UNK         0.0600 
    195 H195       -3.5927  -26.8912  -45.9107 H         1 UNK         0.3000 
    196 H196       -5.3978  -27.3740  -48.0482 H         1 UNK         0.0600 
    197 H197       -4.8102  -29.7679  -47.6286 H         1 UNK         0.0600 
    198 H198       -5.1053  -28.9144  -46.1227 H         1 UNK         0.0600 
    199 H199       -3.4524  -29.2721  -46.6253 H         1 UNK         0.0600 
    200 H200       -1.9419  -26.9930  -48.0256 H         1 UNK         0.3000 
    201 H201       -1.2949  -28.2917  -50.4914 H         1 UNK         0.0600 
    202 H202        0.3710  -27.8223  -48.6945 H         1 UNK         0.0600 
    203 H203        0.1700  -26.0868  -48.9423 H         1 UNK         0.0600 
    204 H204        0.8664  -27.0859  -50.2094 H         1 UNK         0.0600 
    205 H205       -2.7407  -25.1226  -49.8289 H         1 UNK         0.3000 
    206 H206       -2.7160  -24.4975  -52.6884 H         1 UNK         0.0600 
    207 H207       -0.5482  -23.5584  -52.0232 H         1 UNK         0.0600 
    208 H208       -1.6655  -22.2449  -52.3312 H         1 UNK         0.0600 
    209 H209       -1.2885  -22.7116  -50.6738 H         1 UNK         0.0600 
    210 H210       -4.7962  -25.2831  -51.1263 H         1 UNK         0.3000 
    211 H211       -6.9635  -24.9371  -51.0363 H         1 UNK         0.0600 
    212 H212       -6.4654  -22.5797  -52.9220 H         1 UNK         0.0600 
    213 H213       -7.9689  -23.4702  -52.7355 H         1 UNK         0.0600 
    214 H214       -6.5637  -24.2738  -53.4072 H         1 UNK         0.0600 
    215 H215       -5.6028  -23.7923  -48.8458 H         1 UNK         0.3000 
    216 H216       -6.0462  -22.7516  -46.9297 H         1 UNK         0.0600 
    217 H217       -8.4152  -22.6891  -46.2279 H         1 UNK         0.0600 
    218 H218       -8.0220  -24.1918  -47.0479 H         1 UNK         0.0600 
    219 H219       -8.9365  -22.9417  -47.8881 H         1 UNK         0.0600 
    220 H220       -5.7769  -19.2412  -47.8907 H         1 UNK         0.3000 
    221 H221       -4.2624  -21.7380  -48.0290 H         1 UNK         0.0600 
    222 H222       -3.8757  -19.6701  -45.7778 H         1 UNK         0.0600 
    223 H223       -4.6552  -21.2268  -45.5220 H         1 UNK         0.0600 
    224 H224       -2.9729  -21.1596  -46.0189 H         1 UNK         0.0600 
    225 H225       -2.3501  -21.3781  -49.0507 H         1 UNK         0.3000 
    226 H226       -1.0096  -20.4942  -50.6093 H         1 UNK         0.0600 
    227 H227       -0.1037  -19.3894  -48.5550 H         1 UNK         0.0600 
    228 H228        0.1969  -18.4923  -50.0249 H         1 UNK         0.0600 
    229 H229       -1.0638  -17.9534  -48.9267 H         1 UNK         0.0600 
    230 H230       -3.7836  -20.3565  -51.2637 H         1 UNK         0.3000 
    231 H231       -4.2305  -17.7505  -52.6120 H         1 UNK         0.0600 
    232 H232       -6.0895  -20.1196  -52.0273 H         1 UNK         0.0600 
    233 H233       -6.5712  -18.5918  -52.7580 H         1 UNK         0.0600 
    234 H234       -5.9944  -18.6263  -51.0978 H         1 UNK         0.0600 
    235 H235       -3.8609  -21.2353  -53.2793 H         1 UNK         0.3000 
    236 H236       -4.5431  -21.0482  -56.0800 H         1 UNK         0.0600 
    237 H237       -4.7913  -23.1434  -54.7213 H         1 UNK         0.0600 
    238 H238       -3.8130  -23.3981  -56.1565 H         1 UNK         0.0600 
    239 H239       -3.0340  -23.2534  -54.5898 H         1 UNK         0.0600 
    240 H240       -1.5233  -20.7504  -54.2721 H         1 UNK         0.3000 
    241 H241        0.1626  -20.9217  -56.6606 H         1 UNK         0.0600 
    242 H242        1.9359  -19.1738  -56.9895 H         1 UNK         0.3800 
    243 H243        1.3712  -17.5340  -56.8602 H         1 UNK         0.3800 
    244 H244        0.9930  -22.0601  -54.7034 H         1 UNK         0.0800 
    245 H245        2.0610  -20.7538  -55.0973 H         1 UNK         0.0800 
    246 H246        2.7510  -18.8916  -53.3578 H         1 UNK         0.0800 
    247 H247        3.2991  -20.5040  -52.9495 H         1 UNK         0.0800 
@<TRIPOS>BOND
     1    1    2 1    
     2    1  127 1    
     3    1  128 1    
     4    1  129 1    
     5    2    3 2    
     6    2    4 am   BACKBONE|DICT|INTERRES
     7    4    5 1    
     8    4  130 1    
     9    5    6 1    
    10    5   65 1    
    11    5  131 1    
    12    6    7 1    
    13    6  132 1    
    14    6  133 1    
    15    7    8 1    
    16    8    9 1    
    17    8  134 1    
    18    8  135 1    
    19    9   10 ar   
    20    9   14 ar   
    21   10   11 ar   
    22   10  136 1    
    23   11   12 ar   
    24   11  126 1    
    25   12   13 ar   
    26   12  137 1    
    27   13   14 ar   
    28   13   15 1    
    29   14  138 1    
    30   15   16 1    
    31   15  139 1    
    32   15  140 1    
    33   16   17 1    
    34   17   18 1    
    35   17  141 1    
    36   17  142 1    
    37   18   19 1    
    38   18   67 1    
    39   18  143 1    
    40   19   20 am   BACKBONE|DICT|INTERRES
    41   19  144 1    
    42   20   21 2    
    43   20   22 1    
    44   22   23 1    
    45   22   24 1    
    46   22  145 1    
    47   23  146 1    
    48   23  147 1    
    49   23  148 1    
    50   24   25 am   BACKBONE|DICT|INTERRES
    51   24  149 1    
    52   25   26 2    
    53   25   27 1    
    54   27   28 1    
    55   27   29 1    
    56   27  150 1    
    57   28  151 1    
    58   28  152 1    
    59   28  153 1    
    60   29   30 am   BACKBONE|DICT|INTERRES
    61   29  154 1    
    62   30   31 2    
    63   30   32 1    
    64   32   33 1    
    65   32   34 1    
    66   32  155 1    
    67   33  156 1    
    68   33  157 1    
    69   33  158 1    
    70   34   35 am   BACKBONE|DICT|INTERRES
    71   34  159 1    
    72   35   36 2    
    73   35   37 1    
    74   37   38 1    
    75   37   39 1    
    76   37  160 1    
    77   38  161 1    
    78   38  162 1    
    79   38  163 1    
    80   39   40 am   BACKBONE|DICT|INTERRES
    81   39  164 1    
    82   40   41 2    
    83   40   42 1    
    84   42   43 1    
    85   42   44 1    
    86   42  165 1    
    87   43  166 1    
    88   43  167 1    
    89   43  168 1    
    90   44   45 am   BACKBONE|DICT|INTERRES
    91   44  169 1    
    92   45   46 2    
    93   45   47 1    
    94   47   48 1    
    95   47   49 1    
    96   47  170 1    
    97   48  171 1    
    98   48  172 1    
    99   48  173 1    
   100   49   50 am   BACKBONE|DICT|INTERRES
   101   49  174 1    
   102   50   51 2    
   103   50   52 1    
   104   52   53 1    
   105   52   54 1    
   106   52  175 1    
   107   53  176 1    
   108   53  177 1    
   109   53  178 1    
   110   54   55 am   BACKBONE|DICT|INTERRES
   111   54  179 1    
   112   55   56 2    
   113   55   57 1    
   114   57   58 1    
   115   57   59 1    
   116   57  180 1    
   117   58  181 1    
   118   58  182 1    
   119   58  183 1    
   120   59   60 am   BACKBONE|DICT|INTERRES
   121   59  184 1    
   122   60   61 2    
   123   60   62 1    
   124   62   63 1    
   125   62   64 1    
   126   62  185 1    
   127   63  186 1    
   128   63  187 1    
   129   63  188 1    
   130   64   65 am   BACKBONE|DICT|INTERRES
   131   64  189 1    
   132   65   66 2    
   133   67   68 2    
   134   67   69 am   BACKBONE|DICT|INTERRES
   135   69   70 1    
   136   69  190 1    
   137   70   71 1    
   138   70   72 1    
   139   70  191 1    
   140   71  192 1    
   141   71  193 1    
   142   71  194 1    
   143   72   73 2    
   144   72   74 am   BACKBONE|DICT|INTERRES
   145   74   75 1    
   146   74  195 1    
   147   75   76 1    
   148   75   77 1    
   149   75  196 1    
   150   76  197 1    
   151   76  198 1    
   152   76  199 1    
   153   77   78 2    
   154   77   79 am   BACKBONE|DICT|INTERRES
   155   79   80 1    
   156   79  200 1    
   157   80   81 1    
   158   80   82 1    
   159   80  201 1    
   160   81  202 1    
   161   81  203 1    
   162   81  204 1    
   163   82   83 2    
   164   82   84 am   BACKBONE|DICT|INTERRES
   165   84   85 1    
   166   84  205 1    
   167   85   86 1    
   168   85   87 1    
   169   85  206 1    
   170   86  207 1    
   171   86  208 1    
   172   86  209 1    
   173   87   88 2    
   174   87   89 am   BACKBONE|DICT|INTERRES
   175   89   90 1    
   176   89  210 1    
   177   90   91 1    
   178   90   92 1    
   179   90  211 1    
   180   91  212 1    
   181   91  213 1    
   182   91  214 1    
   183   92   93 2    
   184   92   94 am   BACKBONE|DICT|INTERRES
   185   94   95 1    
   186   94  215 1    
   187   95   96 1    
   188   95   97 1    
   189   95  216 1    
   190   96  217 1    
   191   96  218 1    
   192   96  219 1    
   193   97   98 2    
   194   97   99 am   BACKBONE|DICT|INTERRES
   195   99  100 1    
   196   99  220 1    
   197  100  101 1    
   198  100  102 1    
   199  100  221 1    
   200  101  222 1    
   201  101  223 1    
   202  101  224 1    
   203  102  103 2    
   204  102  104 am   BACKBONE|DICT|INTERRES
   205  104  105 1    
   206  104  225 1    
   207  105  106 1    
   208  105  107 1    
   209  105  226 1    
   210  106  227 1    
   211  106  228 1    
   212  106  229 1    
   213  107  108 2    
   214  107  109 am   BACKBONE|DICT|INTERRES
   215  109  110 1    
   216  109  230 1    
   217  110  111 1    
   218  110  112 1    
   219  110  231 1    
   220  111  232 1    
   221  111  233 1    
   222  111  234 1    
   223  112  113 2    
   224  112  114 am   BACKBONE|DICT|INTERRES
   225  114  115 1    
   226  114  235 1    
   227  115  116 1    
   228  115  117 1    
   229  115  236 1    
   230  116  237 1    
   231  116  238 1    
   232  116  239 1    
   233  117  118 2    
   234  117  119 am   BACKBONE|DICT|INTERRES
   235  119  120 1    
   236  119  240 1    
   237  120  121 1    
   238  120  124 1    
   239  120  241 1    
   240  121  122 am   BACKBONE|DICT|INTERRES
   241  121  123 2    
   242  122  242 1    
   243  122  243 1    
   244  124  125 1    
   245  124  244 1    
   246  124  245 1    
   247  125  126 1    
   248  126  246 1    
   249  126  247 1    
@<TRIPOS>SUBSTRUCTURE
     1 UNK         1 GROUP             0       ****    0 ROOT    
