@<TRIPOS>MOLECULE
3R540
247   249    1
SMALL
USER_CHARGES


@<TRIPOS>ATOM
      1 CA          1.4482  -12.6146  -49.7559 C.3       0 UNK        -0.1800 
      2 C           1.9321  -14.0377  -49.9947 C.2       0 UNK         0.5000 
      3 O           2.0244  -14.4711  -51.1432 O.2       0 UNK        -0.5000 
      4 N           2.2369  -14.7647  -48.9172 N.am      1 UNK        -0.5000 
      5 CA          2.7300  -16.1389  -48.9214 C.3       1 UNK         0.1400 
      6 C6          1.6188  -17.1812  -49.2652 C.3       23 UNK        -0.0398 
      7 S7          0.4190  -17.5533  -47.9316 S.3       23 UNK        -0.2404 
      8 C8         -0.8172  -16.2369  -48.1561 C.3       23 UNK        -0.0205 
      9 C9         -2.0555  -16.7375  -48.8792 C.ar      23 UNK        -0.0193 
     10 C10        -2.1031  -16.7669  -50.2751 C.ar      23 UNK        -0.1150 
     11 C11        -3.2602  -17.1904  -50.9358 C.ar      23 UNK        -0.0193 
     12 C12        -4.3667  -17.6009  -50.1843 C.ar      23 UNK        -0.1150 
     13 C13        -4.3267  -17.6033  -48.7860 C.ar      23 UNK        -0.0193 
     14 C14        -3.1699  -17.1468  -48.1437 C.ar      23 UNK        -0.1150 
     15 C15        -5.5615  -18.0769  -48.0164 C.3       23 UNK        -0.0205 
     16 S16        -5.2772  -18.5940  -46.2844 S.3       23 UNK        -0.2404 
     17 C17        -4.2660  -20.1041  -46.4841 C.3       23 UNK        -0.0398 
     18 CA         -2.8798  -20.0126  -45.7825 C.3       11 UNK         0.1400 
     19 N          -2.9612  -19.6655  -44.3581 N.am      11 UNK        -0.5000 
     20 C          -3.5270  -20.3919  -43.3816 C.2       10 UNK         0.5000 
     21 O          -4.1099  -21.4596  -43.5745 O.2       10 UNK        -0.5000 
     22 CA         -3.4071  -19.8616  -41.9374 C.3       10 UNK         0.1400 
     23 CB         -2.4483  -20.7452  -41.1233 C.3       10 UNK        -0.1800 
     24 N          -2.9469  -18.4746  -41.8626 N.am      10 UNK        -0.5000 
     25 C          -3.7005  -17.4025  -42.1401 C.2       9 UNK         0.5000 
     26 O          -4.9028  -17.4600  -42.3990 O.2       9 UNK        -0.5000 
     27 CA         -2.9834  -16.0391  -42.1598 C.3       9 UNK         0.1400 
     28 CB         -3.0131  -15.3947  -40.7658 C.3       9 UNK        -0.1800 
     29 N          -1.5972  -16.1182  -42.6295 N.am      9 UNK        -0.5000 
     30 C          -1.2242  -16.4902  -43.8630 C.2       8 UNK         0.5000 
     31 O          -2.0168  -16.8021  -44.7489 O.2       8 UNK        -0.5000 
     32 CA          0.2875  -16.5858  -44.1335 C.3       8 UNK         0.1400 
     33 CB          0.9022  -15.1892  -44.3062 C.3       8 UNK        -0.1800 
     34 N           0.9872  -17.3111  -43.0751 N.am      8 UNK        -0.5000 
     35 C           0.7935  -18.6052  -42.7839 C.2       7 UNK         0.5000 
     36 O           0.0492  -19.3490  -43.4247 O.2       7 UNK        -0.5000 
     37 CA          1.5140  -19.1455  -41.5358 C.3       7 UNK         0.1400 
     38 CB          2.9401  -19.6087  -41.8656 C.3       7 UNK        -0.1800 
     39 N           1.5659  -18.1552  -40.4611 N.am      7 UNK        -0.5000 
     40 C           0.5037  -17.7508  -39.7514 C.2       6 UNK         0.5000 
     41 O          -0.6315  -18.2018  -39.8997 O.2       6 UNK        -0.5000 
     42 CA          0.7502  -16.6180  -38.7386 C.3       6 UNK         0.1400 
     43 CB          1.3430  -17.1724  -37.4346 C.3       6 UNK        -0.1800 
     44 N           1.6327  -15.5781  -39.2720 N.am      6 UNK        -0.5000 
     45 C           1.3084  -14.7644  -40.2867 C.2       5 UNK         0.5000 
     46 O           0.2161  -14.7829  -40.8510 O.2       5 UNK        -0.5000 
     47 CA          2.3958  -13.7939  -40.7816 C.3       5 UNK         0.1400 
     48 CB          2.3268  -12.4694  -40.0073 C.3       5 UNK        -0.1800 
     49 N           3.7537  -14.3371  -40.6939 N.am      5 UNK        -0.5000 
     50 C           4.1958  -15.4055  -41.3693 C.2       4 UNK         0.5000 
     51 O           3.4890  -16.0987  -42.1053 O.2       4 UNK        -0.5000 
     52 CA          5.6622  -15.7874  -41.1461 C.3       4 UNK         0.1400 
     53 CB          5.7975  -16.7355  -39.9423 C.3       4 UNK        -0.1800 
     54 N           6.1763  -16.4436  -42.3436 N.am      4 UNK        -0.5000 
     55 C           7.4406  -16.3725  -42.7781 C.2       3 UNK         0.5000 
     56 O           8.3162  -15.7213  -42.2058 O.2       3 UNK        -0.5000 
     57 CA          7.8122  -17.1678  -44.0457 C.3       3 UNK         0.1400 
     58 CB          8.7945  -18.2985  -43.6964 C.3       3 UNK        -0.1800 
     59 N           6.6501  -17.7596  -44.7123 N.am      3 UNK        -0.5000 
     60 C           5.9931  -17.2149  -45.7438 C.2       2 UNK         0.5000 
     61 O           6.3074  -16.1418  -46.2636 O.2       2 UNK        -0.5000 
     62 CA          4.8202  -18.0557  -46.2915 C.3       2 UNK         0.1400 
     63 CB          3.7733  -18.3579  -45.1961 C.3       2 UNK        -0.1800 
     64 N           4.1736  -17.4984  -47.4862 N.am      2 UNK        -0.5000 
     65 C           3.4275  -16.3889  -47.5686 C.2       1 UNK         0.5000 
     66 O           3.2495  -15.5973  -46.6385 O.2       1 UNK        -0.5000 
     67 C          -2.0128  -21.2758  -45.9985 C.2       11 UNK         0.5000 
     68 O          -2.3077  -22.0910  -46.8729 O.2       11 UNK        -0.5000 
     69 N          -0.9601  -21.4326  -45.1809 N.am      12 UNK        -0.5000 
     70 CA         -0.1283  -22.6369  -45.1186 C.3       12 UNK         0.1400 
     71 CB          0.7400  -22.5783  -43.8530 C.3       12 UNK        -0.1800 
     72 C           0.7520  -22.8501  -46.3635 C.2       12 UNK         0.5000 
     73 O           1.0647  -23.9943  -46.6940 O.2       12 UNK        -0.5000 
     74 N           1.1304  -21.7497  -47.0240 N.am      13 UNK        -0.5000 
     75 CA          1.9642  -21.7330  -48.2278 C.3       13 UNK         0.1400 
     76 CB          3.1317  -20.7674  -47.9864 C.3       13 UNK        -0.1800 
     77 C           1.1669  -21.3337  -49.4849 C.2       13 UNK         0.5000 
     78 O           1.7678  -21.1232  -50.5397 O.2       13 UNK        -0.5000 
     79 N          -0.1610  -21.2197  -49.3606 N.am      14 UNK        -0.5000 
     80 CA         -1.0747  -20.9238  -50.4605 C.3       14 UNK         0.1400 
     81 CB         -2.4242  -20.5220  -49.8638 C.3       14 UNK        -0.1800 
     82 C          -1.2491  -22.1388  -51.3872 C.2       14 UNK         0.5000 
     83 O          -1.0991  -23.2796  -50.9393 O.2       14 UNK        -0.5000 
     84 N          -1.5965  -21.8725  -52.6526 N.am      15 UNK        -0.5000 
     85 CA         -1.8716  -22.8731  -53.6837 C.3       15 UNK         0.1400 
     86 CB         -2.0893  -22.1621  -55.0297 C.3       15 UNK        -0.1800 
     87 C          -3.0774  -23.7502  -53.2991 C.2       15 UNK         0.5000 
     88 O          -4.2155  -23.2851  -53.3701 O.2       15 UNK        -0.5000 
     89 N          -2.7861  -24.9739  -52.8285 N.am      16 UNK        -0.5000 
     90 CA         -3.7258  -25.9829  -52.3202 C.3       16 UNK         0.1400 
     91 CB         -4.4316  -26.6801  -53.4967 C.3       16 UNK        -0.1800 
     92 C          -4.7080  -25.4217  -51.2675 C.2       16 UNK         0.5000 
     93 O          -5.9068  -25.7041  -51.3175 O.2       16 UNK        -0.5000 
     94 N          -4.1733  -24.5792  -50.3719 N.am      17 UNK        -0.5000 
     95 CA         -4.8503  -23.7534  -49.3660 C.3       17 UNK         0.1400 
     96 CB         -5.6668  -24.6007  -48.3715 C.3       17 UNK        -0.1800 
     97 C          -5.6956  -22.6069  -49.9590 C.2       17 UNK         0.5000 
     98 O          -5.5723  -21.4779  -49.4871 O.2       17 UNK        -0.5000 
     99 N          -6.5261  -22.8925  -50.9692 N.am      18 UNK        -0.5000 
    100 CA        -7.4006  -21.9280  -51.6325 C.3       18 UNK         0.1400 
    101 CB        -8.5199  -21.4551  -50.6759 C.3       18 UNK        -0.1800 
    102 C         -7.9589  -22.5107  -52.9430 C.2       18 UNK         0.5000 
    103 O         -9.1765  -22.6500  -53.0813 O.2       18 UNK        -0.5000 
    104 N         -7.0763  -22.8476  -53.8899 N.am      19 UNK        -0.5000 
    105 CA        -7.4488  -23.2222  -55.2547 C.3       19 UNK         0.1400 
    106 CB        -7.6282  -24.7467  -55.3575 C.3       19 UNK        -0.1800 
    107 C         -6.3987  -22.7011  -56.2472 C.2       19 UNK         0.5000 
    108 O         -5.3632  -22.1756  -55.8335 O.2       19 UNK        -0.5000 
    109 N         -6.6941  -22.8329  -57.5487 N.am      20 UNK        -0.5000 
    110 CA        -5.8695  -22.3902  -58.6793 C.3       20 UNK         0.1400 
    111 CB        -4.6312  -23.3045  -58.8257 C.3       20 UNK        -0.1800 
    112 C         -5.5366  -20.8858  -58.5747 C.2       20 UNK         0.5000 
    113 O         -6.4549  -20.0647  -58.6231 O.2       20 UNK        -0.5000 
    114 N         -4.2544  -20.5531  -58.3719 N.am      21 UNK        -0.5000 
    115 CA        -3.7483  -19.1966  -58.1450 C.3       21 UNK         0.1400 
    116 CB        -2.2138  -19.2463  -58.0858 C.3       21 UNK        -0.1800 
    117 C         -4.3102  -18.5131  -56.8801 C.2       21 UNK         0.5000 
    118 O         -4.3435  -17.2827  -56.8311 O.2       21 UNK        -0.5000 
    119 N         -4.7528  -19.3118  -55.9015 N.am      22 UNK        -0.5000 
    120 CA        -5.4200  -18.8655  -54.6703 C.3       22 UNK         0.1400 
    121 C         -6.9521  -19.1453  -54.6803 C.2       22 UNK         0.5000 
    122 N         -7.5679  -19.4768  -55.8103 N.am      22 UNK        -0.7600 
    123 O         -7.6078  -19.0354  -53.6486 O.2       22 UNK        -0.5000 
    124 C124       -4.7177  -19.4279  -53.4042 C.3       23 UNK        -0.0398 
    125 S125       -3.0164  -18.7880  -53.2161 S.3       23 UNK        -0.2404 
    126 C126       -3.3220  -17.1581  -52.4570 C.3       23 UNK        -0.0205 
    127 H127        1.4150  -12.3712  -48.6935 H         1 UNK         0.0600 
    128 H128        0.4462  -12.4860  -50.1652 H         1 UNK         0.0600 
    129 H129        2.1129  -11.9042  -50.2473 H         1 UNK         0.0600 
    130 H130        2.1995  -14.3646  -47.9868 H         1 UNK         0.3000 
    131 H131        3.5056  -16.2020  -49.6878 H         1 UNK         0.0600 
    132 H132        2.0903  -18.1257  -49.5380 H         1 UNK         0.0800 
    133 H133        1.0739  -16.8778  -50.1593 H         1 UNK         0.0800 
    134 H134       -0.3930  -15.3920  -48.6964 H         1 UNK         0.0800 
    135 H135       -1.0918  -15.8515  -47.1735 H         1 UNK         0.0800 
    136 H136       -1.2452  -16.4420  -50.8465 H         1 UNK         0.1150 
    137 H137       -5.2685  -17.9188  -50.6857 H         1 UNK         0.1150 
    138 H138       -3.1273  -17.1045  -47.0660 H         1 UNK         0.1150 
    139 H139       -6.2905  -17.2659  -48.0140 H         1 UNK         0.0800 
    140 H140       -6.0278  -18.9081  -48.5481 H         1 UNK         0.0800 
    141 H141       -4.1354  -20.2928  -47.5491 H         1 UNK         0.0800 
    142 H142       -4.8385  -20.9503  -46.1023 H         1 UNK         0.0800 
    143 H143       -2.3246  -19.2015  -46.2542 H         1 UNK         0.0600 
    144 H144       -2.5219  -18.7879  -44.1086 H         1 UNK         0.3000 
    145 H145       -4.3975  -19.9245  -41.4821 H         1 UNK         0.0600 
    146 H146       -2.3936  -20.4167  -40.0853 H         1 UNK         0.0600 
    147 H147       -2.7807  -21.7840  -41.1174 H         1 UNK         0.0600 
    148 H148       -1.4390  -20.7269  -41.5346 H         1 UNK         0.0600 
    149 H149       -1.9820  -18.3315  -41.5885 H         1 UNK         0.3000 
    150 H150       -3.5298  -15.3906  -42.8476 H         1 UNK         0.0600 
    151 H151       -4.0351  -15.3114  -40.3939 H         1 UNK         0.0600 
    152 H152       -2.5922  -14.3894  -40.7876 H         1 UNK         0.0600 
    153 H153       -2.4451  -15.9796  -40.0415 H         1 UNK         0.0600 
    154 H154       -0.8808  -15.8305  -41.9673 H         1 UNK         0.3000 
    155 H155        0.4369  -17.1417  -45.0598 H         1 UNK         0.0600 
    156 H156        0.6535  -14.5269  -43.4779 H         1 UNK         0.0600 
    157 H157        0.5391  -14.7198  -45.2209 H         1 UNK         0.0600 
    158 H158        1.9884  -15.2395  -44.3735 H         1 UNK         0.0600 
    159 H159        1.6741  -16.7897  -42.5404 H         1 UNK         0.3000 
    160 H160        0.9518  -20.0114  -41.1801 H         1 UNK         0.0600 
    161 H161        3.5795  -18.7743  -42.1520 H         1 UNK         0.0600 
    162 H162        2.9419  -20.3252  -42.6871 H         1 UNK         0.0600 
    163 H163        3.4002  -20.0993  -41.0078 H         1 UNK         0.0600 
    164 H164        2.4511  -17.6953  -40.3112 H         1 UNK         0.3000 
    165 H165       -0.2148  -16.1613  -38.5083 H         1 UNK         0.0600 
    166 H166        1.4484  -16.3878  -36.6851 H         1 UNK         0.0600 
    167 H167        0.6971  -17.9419  -37.0094 H         1 UNK         0.0600 
    168 H168        2.3252  -17.6191  -37.5938 H         1 UNK         0.0600 
    169 H169        2.5497  -15.4946  -38.8592 H         1 UNK         0.3000 
    170 H170        2.1925  -13.5825  -41.8332 H         1 UNK         0.0600 
    171 H171        1.3306  -12.0298  -40.0741 H         1 UNK         0.0600 
    172 H172        2.5542  -12.6080  -38.9496 H         1 UNK         0.0600 
    173 H173        3.0294  -11.7396  -40.4099 H         1 UNK         0.0600 
    174 H174        4.3969  -13.8353  -40.0985 H         1 UNK         0.3000 
    175 H175        6.2266  -14.8723  -40.9539 H         1 UNK         0.0600 
    176 H176        5.2484  -17.6650  -40.0992 H         1 UNK         0.0600 
    177 H177        6.8410  -16.9920  -39.7587 H         1 UNK         0.0600 
    178 H178        5.4129  -16.2743  -39.0319 H         1 UNK         0.0600 
    179 H179        5.4815  -16.9275  -42.8957 H         1 UNK         0.3000 
    180 H180        8.3201  -16.4786  -44.7236 H         1 UNK         0.0600 
    181 H181        8.3550  -19.0138  -43.0001 H         1 UNK         0.0600 
    182 H182        9.6997  -17.9037  -43.2331 H         1 UNK         0.0600 
    183 H183        9.1015  -18.8436  -44.5892 H         1 UNK         0.0600 
    184 H184        6.3471  -18.6549  -44.3568 H         1 UNK         0.3000 
    185 H185        5.2484  -19.0062  -46.6126 H         1 UNK         0.0600 
    186 H186        4.1829  -19.0304  -44.4442 H         1 UNK         0.0600 
    187 H187        3.4482  -17.4508  -44.6851 H         1 UNK         0.0600 
    188 H188        2.8859  -18.8412  -45.6041 H         1 UNK         0.0600 
    189 H189        4.3084  -18.0401  -48.3273 H         1 UNK         0.3000 
    190 H190       -0.7494  -20.7014  -44.5049 H         1 UNK         0.3000 
    191 H191       -0.7938  -23.4986  -45.0343 H         1 UNK         0.0600 
    192 H192        0.1289  -22.4625  -42.9576 H         1 UNK         0.0600 
    193 H193        1.4417  -21.7451  -43.8909 H         1 UNK         0.0600 
    194 H194        1.3224  -23.4928  -43.7350 H         1 UNK         0.0600 
    195 H195        0.8164  -20.8537  -46.6789 H         1 UNK         0.3000 
    196 H196        2.3807  -22.7234  -48.4211 H         1 UNK         0.0600 
    197 H197        3.8151  -20.7452  -48.8361 H         1 UNK         0.0600 
    198 H198        3.7108  -21.0596  -47.1102 H         1 UNK         0.0600 
    199 H199        2.7637  -19.7560  -47.8269 H         1 UNK         0.0600 
    200 H200       -0.5867  -21.4860  -48.4842 H         1 UNK         0.3000 
    201 H201       -0.6780  -20.0837  -51.0350 H         1 UNK         0.0600 
    202 H202       -2.3156  -19.6753  -49.1884 H         1 UNK         0.0600 
    203 H203       -2.8665  -21.3424  -49.3037 H         1 UNK         0.0600 
    204 H204       -3.1374  -20.2404  -50.6378 H         1 UNK         0.0600 
    205 H205       -1.7577  -20.9105  -52.9189 H         1 UNK         0.3000 
    206 H206       -0.9906  -23.5106  -53.7818 H         1 UNK         0.0600 
    207 H207       -1.1910  -21.6323  -55.3465 H         1 UNK         0.0600 
    208 H208       -2.3421  -22.8768  -55.8138 H         1 UNK         0.0600 
    209 H209       -2.9013  -21.4374  -54.9763 H         1 UNK         0.0600 
    210 H210       -1.8093  -25.2193  -52.7437 H         1 UNK         0.3000 
    211 H211       -3.1281  -26.7343  -51.8023 H         1 UNK         0.0600 
    212 H212       -5.0181  -25.9698  -54.0740 H         1 UNK         0.0600 
    213 H213       -5.1042  -27.4657  -53.1503 H         1 UNK         0.0600 
    214 H214       -3.7106  -27.1430  -54.1703 H         1 UNK         0.0600 
    215 H215       -3.1839  -24.3872  -50.4718 H         1 UNK         0.3000 
    216 H216       -4.0475  -23.2866  -48.7940 H         1 UNK         0.0600 
    217 H217       -6.0468  -23.9793  -47.5598 H         1 UNK         0.0600 
    218 H218       -5.0534  -25.3819  -47.9227 H         1 UNK         0.0600 
    219 H219       -6.5267  -25.0760  -48.8435 H         1 UNK         0.0600 
    220 H220       -6.5482  -23.8469  -51.3183 H         1 UNK         0.3000 
    221 H221       -6.8010  -21.0593  -51.9077 H         1 UNK         0.0600 
    222 H222       -9.1147  -22.2931  -50.3112 H         1 UNK         0.0600 
    223 H223       -8.1200  -20.9271  -49.8107 H         1 UNK         0.0600 
    224 H224       -9.1959  -20.7628  -51.1794 H         1 UNK         0.0600 
    225 H225       -6.0737  -22.7491  -53.7340 H         1 UNK         0.3000 
    226 H226       -8.3920  -22.7370  -55.5152 H         1 UNK         0.0600 
    227 H227       -8.2690  -25.1297  -54.5630 H         1 UNK         0.0600 
    228 H228       -8.0904  -25.0227  -56.3055 H         1 UNK         0.0600 
    229 H229       -6.6746  -25.2665  -55.3023 H         1 UNK         0.0600 
    230 H230       -7.5843  -23.2396  -57.7987 H         1 UNK         0.3000 
    231 H231       -6.4764  -22.5072  -59.5782 H         1 UNK         0.0600 
    232 H232       -3.9874  -23.2767  -57.9458 H         1 UNK         0.0600 
    233 H233       -4.0306  -23.0204  -59.6907 H         1 UNK         0.0600 
    234 H234       -4.9329  -24.3412  -58.9748 H         1 UNK         0.0600 
    235 H235       -3.5775  -21.2990  -58.3070 H         1 UNK         0.3000 
    236 H236       -4.0404  -18.5866  -59.0022 H         1 UNK         0.0600 
    237 H237       -1.7951  -18.2481  -57.9511 H         1 UNK         0.0600 
    238 H238       -1.8645  -19.8625  -57.2563 H         1 UNK         0.0600 
    239 H239       -1.7947  -19.6514  -59.0070 H         1 UNK         0.0600 
    240 H240       -4.7315  -20.3190  -56.0350 H         1 UNK         0.3000 
    241 H241       -5.3619  -17.7784  -54.6092 H         1 UNK         0.0600 
    242 H242       -8.5642  -19.6238  -55.7981 H         1 UNK         0.3800 
    243 H243       -7.0622  -19.5473  -56.6850 H         1 UNK         0.3800 
    244 H244       -5.2768  -19.1890  -52.5010 H         1 UNK         0.0800 
    245 H245       -4.6766  -20.5174  -53.4488 H         1 UNK         0.0800 
    246 H246       -2.5764  -16.4605  -52.8413 H         1 UNK         0.0800 
    247 H247       -4.2863  -16.7625  -52.7771 H         1 UNK         0.0800 
@<TRIPOS>BOND
     1    1    2 1    
     2    1  127 1    
     3    1  128 1    
     4    1  129 1    
     5    2    3 2    
     6    2    4 am   BACKBONE|DICT|INTERRES
     7    4    5 1    
     8    4  130 1    
     9    5    6 1    
    10    5   65 1    
    11    5  131 1    
    12    6    7 1    
    13    6  132 1    
    14    6  133 1    
    15    7    8 1    
    16    8    9 1    
    17    8  134 1    
    18    8  135 1    
    19    9   10 ar   
    20    9   14 ar   
    21   10   11 ar   
    22   10  136 1    
    23   11   12 ar   
    24   11  126 1    
    25   12   13 ar   
    26   12  137 1    
    27   13   14 ar   
    28   13   15 1    
    29   14  138 1    
    30   15   16 1    
    31   15  139 1    
    32   15  140 1    
    33   16   17 1    
    34   17   18 1    
    35   17  141 1    
    36   17  142 1    
    37   18   19 1    
    38   18   67 1    
    39   18  143 1    
    40   19   20 am   BACKBONE|DICT|INTERRES
    41   19  144 1    
    42   20   21 2    
    43   20   22 1    
    44   22   23 1    
    45   22   24 1    
    46   22  145 1    
    47   23  146 1    
    48   23  147 1    
    49   23  148 1    
    50   24   25 am   BACKBONE|DICT|INTERRES
    51   24  149 1    
    52   25   26 2    
    53   25   27 1    
    54   27   28 1    
    55   27   29 1    
    56   27  150 1    
    57   28  151 1    
    58   28  152 1    
    59   28  153 1    
    60   29   30 am   BACKBONE|DICT|INTERRES
    61   29  154 1    
    62   30   31 2    
    63   30   32 1    
    64   32   33 1    
    65   32   34 1    
    66   32  155 1    
    67   33  156 1    
    68   33  157 1    
    69   33  158 1    
    70   34   35 am   BACKBONE|DICT|INTERRES
    71   34  159 1    
    72   35   36 2    
    73   35   37 1    
    74   37   38 1    
    75   37   39 1    
    76   37  160 1    
    77   38  161 1    
    78   38  162 1    
    79   38  163 1    
    80   39   40 am   BACKBONE|DICT|INTERRES
    81   39  164 1    
    82   40   41 2    
    83   40   42 1    
    84   42   43 1    
    85   42   44 1    
    86   42  165 1    
    87   43  166 1    
    88   43  167 1    
    89   43  168 1    
    90   44   45 am   BACKBONE|DICT|INTERRES
    91   44  169 1    
    92   45   46 2    
    93   45   47 1    
    94   47   48 1    
    95   47   49 1    
    96   47  170 1    
    97   48  171 1    
    98   48  172 1    
    99   48  173 1    
   100   49   50 am   BACKBONE|DICT|INTERRES
   101   49  174 1    
   102   50   51 2    
   103   50   52 1    
   104   52   53 1    
   105   52   54 1    
   106   52  175 1    
   107   53  176 1    
   108   53  177 1    
   109   53  178 1    
   110   54   55 am   BACKBONE|DICT|INTERRES
   111   54  179 1    
   112   55   56 2    
   113   55   57 1    
   114   57   58 1    
   115   57   59 1    
   116   57  180 1    
   117   58  181 1    
   118   58  182 1    
   119   58  183 1    
   120   59   60 am   BACKBONE|DICT|INTERRES
   121   59  184 1    
   122   60   61 2    
   123   60   62 1    
   124   62   63 1    
   125   62   64 1    
   126   62  185 1    
   127   63  186 1    
   128   63  187 1    
   129   63  188 1    
   130   64   65 am   BACKBONE|DICT|INTERRES
   131   64  189 1    
   132   65   66 2    
   133   67   68 2    
   134   67   69 am   BACKBONE|DICT|INTERRES
   135   69   70 1    
   136   69  190 1    
   137   70   71 1    
   138   70   72 1    
   139   70  191 1    
   140   71  192 1    
   141   71  193 1    
   142   71  194 1    
   143   72   73 2    
   144   72   74 am   BACKBONE|DICT|INTERRES
   145   74   75 1    
   146   74  195 1    
   147   75   76 1    
   148   75   77 1    
   149   75  196 1    
   150   76  197 1    
   151   76  198 1    
   152   76  199 1    
   153   77   78 2    
   154   77   79 am   BACKBONE|DICT|INTERRES
   155   79   80 1    
   156   79  200 1    
   157   80   81 1    
   158   80   82 1    
   159   80  201 1    
   160   81  202 1    
   161   81  203 1    
   162   81  204 1    
   163   82   83 2    
   164   82   84 am   BACKBONE|DICT|INTERRES
   165   84   85 1    
   166   84  205 1    
   167   85   86 1    
   168   85   87 1    
   169   85  206 1    
   170   86  207 1    
   171   86  208 1    
   172   86  209 1    
   173   87   88 2    
   174   87   89 am   BACKBONE|DICT|INTERRES
   175   89   90 1    
   176   89  210 1    
   177   90   91 1    
   178   90   92 1    
   179   90  211 1    
   180   91  212 1    
   181   91  213 1    
   182   91  214 1    
   183   92   93 2    
   184   92   94 am   BACKBONE|DICT|INTERRES
   185   94   95 1    
   186   94  215 1    
   187   95   96 1    
   188   95   97 1    
   189   95  216 1    
   190   96  217 1    
   191   96  218 1    
   192   96  219 1    
   193   97   98 2    
   194   97   99 am   BACKBONE|DICT|INTERRES
   195   99  100 1    
   196   99  220 1    
   197  100  101 1    
   198  100  102 1    
   199  100  221 1    
   200  101  222 1    
   201  101  223 1    
   202  101  224 1    
   203  102  103 2    
   204  102  104 am   BACKBONE|DICT|INTERRES
   205  104  105 1    
   206  104  225 1    
   207  105  106 1    
   208  105  107 1    
   209  105  226 1    
   210  106  227 1    
   211  106  228 1    
   212  106  229 1    
   213  107  108 2    
   214  107  109 am   BACKBONE|DICT|INTERRES
   215  109  110 1    
   216  109  230 1    
   217  110  111 1    
   218  110  112 1    
   219  110  231 1    
   220  111  232 1    
   221  111  233 1    
   222  111  234 1    
   223  112  113 2    
   224  112  114 am   BACKBONE|DICT|INTERRES
   225  114  115 1    
   226  114  235 1    
   227  115  116 1    
   228  115  117 1    
   229  115  236 1    
   230  116  237 1    
   231  116  238 1    
   232  116  239 1    
   233  117  118 2    
   234  117  119 am   BACKBONE|DICT|INTERRES
   235  119  120 1    
   236  119  240 1    
   237  120  121 1    
   238  120  124 1    
   239  120  241 1    
   240  121  122 am   BACKBONE|DICT|INTERRES
   241  121  123 2    
   242  122  242 1    
   243  122  243 1    
   244  124  125 1    
   245  124  244 1    
   246  124  245 1    
   247  125  126 1    
   248  126  246 1    
   249  126  247 1    
@<TRIPOS>SUBSTRUCTURE
     1 UNK         1 GROUP             0       ****    0 ROOT    
