@<TRIPOS>MOLECULE
3R540
247   249    1
SMALL
USER_CHARGES


@<TRIPOS>ATOM
      1 CA         -2.8741  -12.9993  -47.5858 C.3       0 UNK        -0.1800 
      2 C          -1.6027  -13.2419  -46.7872 C.2       0 UNK         0.5000 
      3 O          -1.4876  -12.7771  -45.6529 O.2       0 UNK        -0.5000 
      4 N          -0.6495  -13.9889  -47.3586 N.am      1 UNK        -0.5000 
      5 CA          0.6571  -14.2958  -46.7586 C.3       1 UNK         0.1400 
      6 C6          1.6278  -14.9829  -47.7489 C.3       23 UNK        -0.0398 
      7 S7          1.8473  -14.0105  -49.2822 S.3       23 UNK        -0.2404 
      8 C8          2.1743  -15.3011  -50.5374 C.3       23 UNK        -0.0205 
      9 C9          1.0845  -16.3617  -50.7032 C.ar      23 UNK        -0.0193 
     10 C10         1.4436  -17.6276  -51.1740 C.ar      23 UNK        -0.1150 
     11 C11         0.4903  -18.6412  -51.3073 C.ar      23 UNK        -0.0193 
     12 C12        -0.8394  -18.3855  -50.9617 C.ar      23 UNK        -0.1150 
     13 C13        -1.2157  -17.1247  -50.4889 C.ar      23 UNK        -0.0193 
     14 C14        -0.2575  -16.1122  -50.3944 C.ar      23 UNK        -0.1150 
     15 C15        -2.6451  -16.8433  -50.0528 C.3       23 UNK        -0.0205 
     16 S16        -2.7563  -16.7265  -48.2356 S.3       23 UNK        -0.2404 
     17 C17        -3.6177  -18.2696  -47.7824 C.3       23 UNK        -0.0398 
     18 CA         -2.8162  -19.5623  -48.0651 C.3       11 UNK         0.1400 
     19 N          -1.4364  -19.5276  -47.5687 N.am      11 UNK        -0.5000 
     20 C          -0.4864  -20.3910  -47.9517 C.2       10 UNK         0.5000 
     21 O          -0.6789  -21.2943  -48.7641 O.2       10 UNK        -0.5000 
     22 CA          0.8921  -20.2546  -47.2822 C.3       10 UNK         0.1400 
     23 CB          1.7549  -19.2133  -48.0046 C.3       10 UNK        -0.1800 
     24 N           0.8363  -19.9223  -45.8572 N.am      10 UNK        -0.5000 
     25 C           0.3007  -20.7085  -44.9126 C.2       9 UNK         0.5000 
     26 O          -0.3937  -21.6929  -45.1711 O.2       9 UNK        -0.5000 
     27 CA          0.6065  -20.3363  -43.4420 C.3       9 UNK         0.1400 
     28 CB          0.4847  -21.5467  -42.4950 C.3       9 UNK        -0.1800 
     29 N           1.9052  -19.6733  -43.2442 N.am      9 UNK        -0.5000 
     30 C           3.1157  -20.1283  -43.6165 C.2       8 UNK         0.5000 
     31 O           3.3052  -21.1809  -44.2263 O.2       8 UNK        -0.5000 
     32 CA          4.3276  -19.2519  -43.2453 C.3       8 UNK         0.1400 
     33 CB          4.5711  -18.1964  -44.3359 C.3       8 UNK        -0.1800 
     34 N           4.1802  -18.5866  -41.9498 N.am      8 UNK        -0.5000 
     35 C           4.0855  -19.2194  -40.7720 C.2       7 UNK         0.5000 
     36 O           4.1986  -20.4393  -40.6451 O.2       7 UNK        -0.5000 
     37 CA          3.8179  -18.3612  -39.5186 C.3       7 UNK         0.1400 
     38 CB          5.0852  -18.2722  -38.6535 C.3       7 UNK        -0.1800 
     39 N           3.3261  -16.9996  -39.7600 N.am      7 UNK        -0.5000 
     40 C           2.1912  -16.6523  -40.3861 C.2       6 UNK         0.5000 
     41 O           1.4838  -17.4491  -41.0027 O.2       6 UNK        -0.5000 
     42 CA          1.7930  -15.1615  -40.3260 C.3       6 UNK         0.1400 
     43 CB          0.6563  -14.9787  -39.3079 C.3       6 UNK        -0.1800 
     44 N           2.9066  -14.3053  -39.9000 N.am      6 UNK        -0.5000 
     45 C           3.8712  -13.7229  -40.6305 C.2       5 UNK         0.5000 
     46 O           4.8357  -13.1991  -40.0760 O.2       5 UNK        -0.5000 
     47 CA          3.7891  -13.6469  -42.1728 C.3       5 UNK         0.1400 
     48 CB          4.0489  -14.9974  -42.8587 C.3       5 UNK        -0.1800 
     49 N           2.5682  -13.0178  -42.6846 N.am      5 UNK        -0.5000 
     50 C           2.2499  -11.7283  -42.4883 C.2       4 UNK         0.5000 
     51 O           2.9404  -10.9460  -41.8338 O.2       4 UNK        -0.5000 
     52 CA          0.9650  -11.2009  -43.1526 C.3       4 UNK         0.1400 
     53 CB          1.2479  -10.7670  -44.5985 C.3       4 UNK        -0.1800 
     54 N          -0.1422  -12.1556  -43.1382 N.am      4 UNK        -0.5000 
     55 C          -0.8488  -12.4722  -42.0437 C.2       3 UNK         0.5000 
     56 O          -0.6053  -12.0266  -40.9225 O.2       3 UNK        -0.5000 
     57 CA         -2.0300  -13.4388  -42.2289 C.3       3 UNK         0.1400 
     58 CB         -3.2921  -12.6742  -42.6583 C.3       3 UNK        -0.1800 
     59 N          -1.7178  -14.4582  -43.2294 N.am      3 UNK        -0.5000 
     60 C          -1.3487  -15.7123  -42.9384 C.2       2 UNK         0.5000 
     61 O          -1.3566  -16.1738  -41.7994 O.2       2 UNK        -0.5000 
     62 CA         -0.9060  -16.6229  -44.1015 C.3       2 UNK         0.1400 
     63 CB         -2.0190  -17.6288  -44.4288 C.3       2 UNK        -0.1800 
     64 N          -0.5368  -15.9022  -45.3228 N.am      2 UNK        -0.5000 
     65 C           0.5339  -15.1031  -45.4483 C.2       1 UNK         0.5000 
     66 O           1.3641  -14.9365  -44.5565 O.2       1 UNK        -0.5000 
     67 C          -3.5836  -20.7921  -47.5424 C.2       11 UNK         0.5000 
     68 O          -4.4001  -21.3468  -48.2770 O.2       11 UNK        -0.5000 
     69 N          -3.2924  -21.2163  -46.3035 N.am      12 UNK        -0.5000 
     70 CA         -3.8590  -22.4195  -45.6926 C.3       12 UNK         0.1400 
     71 CB         -3.6196  -22.4037  -44.1755 C.3       12 UNK        -0.1800 
     72 C          -3.2957  -23.6978  -46.3361 C.2       12 UNK         0.5000 
     73 O          -4.0599  -24.6240  -46.6072 O.2       12 UNK        -0.5000 
     74 N          -1.9887  -23.6964  -46.6392 N.am      13 UNK        -0.5000 
     75 CA         -1.3082  -24.7418  -47.4107 C.3       13 UNK         0.1400 
     76 CB          0.2049  -24.4778  -47.4073 C.3       13 UNK        -0.1800 
     77 C          -1.8463  -24.8645  -48.8522 C.2       13 UNK         0.5000 
     78 O          -1.9327  -25.9733  -49.3791 O.2       13 UNK        -0.5000 
     79 N          -2.2617  -23.7307  -49.4322 N.am      14 UNK        -0.5000 
     80 CA         -2.9697  -23.6211  -50.7089 C.3       14 UNK         0.1400 
     81 CB         -2.7079  -22.2249  -51.2979 C.3       14 UNK        -0.1800 
     82 C          -4.4848  -23.9189  -50.6107 C.2       14 UNK         0.5000 
     83 O          -5.2125  -23.6188  -51.5576 O.2       14 UNK        -0.5000 
     84 N          -4.9454  -24.4917  -49.4875 N.am      15 UNK        -0.5000 
     85 CA         -6.3202  -24.9185  -49.2051 C.3       15 UNK         0.1400 
     86 CB         -6.7362  -26.0719  -50.1429 C.3       15 UNK        -0.1800 
     87 C          -7.3152  -23.7417  -49.2090 C.2       15 UNK         0.5000 
     88 O          -8.3267  -23.7837  -49.9091 O.2       15 UNK        -0.5000 
     89 N          -6.9777  -22.6952  -48.4425 N.am      16 UNK        -0.5000 
     90 CA         -7.6678  -21.4021  -48.3534 C.3       16 UNK         0.1400 
     91 CB         -9.0996  -21.5588  -47.7992 C.3       16 UNK        -0.1800 
     92 C          -7.6018  -20.6310  -49.6877 C.2       16 UNK         0.5000 
     93 O          -8.5935  -20.0445  -50.1236 O.2       16 UNK        -0.5000 
     94 N          -6.4146  -20.6750  -50.3104 N.am      17 UNK        -0.5000 
     95 CA         -6.0483  -20.0837  -51.6018 C.3       17 UNK         0.1400 
     96 CB         -6.1259  -18.5445  -51.5360 C.3       17 UNK        -0.1800 
     97 C          -6.8163  -20.6607  -52.8129 C.2       17 UNK         0.5000 
     98 O          -6.8398  -20.0267  -53.8689 O.2       17 UNK        -0.5000 
     99 N          -7.4135  -21.8522  -52.6626 N.am      18 UNK        -0.5000 
    100 CA        -8.0996  -22.5762  -53.7340 C.3       18 UNK         0.1400 
    101 CB        -8.9488  -23.7053  -53.1339 C.3       18 UNK        -0.1800 
    102 C         -7.1120  -23.1332  -54.7737 C.2       18 UNK         0.5000 
    103 O         -7.3800  -23.0583  -55.9735 O.2       18 UNK        -0.5000 
    104 N         -5.9658  -23.6355  -54.2983 N.am      19 UNK        -0.5000 
    105 CA        -4.8262  -24.0462  -55.1107 C.3       19 UNK         0.1400 
    106 CB        -4.1565  -25.2686  -54.4579 C.3       19 UNK        -0.1800 
    107 C         -3.8732  -22.8476  -55.2495 C.2       19 UNK         0.5000 
    108 O         -2.7688  -22.8640  -54.7059 O.2       19 UNK        -0.5000 
    109 N         -4.3365  -21.8077  -55.9567 N.am      20 UNK        -0.5000 
    110 CA        -3.6909  -20.4964  -56.1029 C.3       20 UNK         0.1400 
    111 CB        -4.6273  -19.5767  -56.9015 C.3       20 UNK        -0.1800 
    112 C         -2.2817  -20.5137  -56.7342 C.2       20 UNK         0.5000 
    113 O         -1.5477  -19.5348  -56.5977 O.2       20 UNK        -0.5000 
    114 N         -1.9203  -21.6216  -57.3953 N.am      21 UNK        -0.5000 
    115 CA        -0.5718  -21.9052  -57.8892 C.3       21 UNK         0.1400 
    116 CB        -0.6540  -23.0623  -58.8975 C.3       21 UNK        -0.1800 
    117 C          0.4383  -22.2371  -56.7674 C.2       21 UNK         0.5000 
    118 O          1.6420  -22.2156  -57.0272 O.2       21 UNK        -0.5000 
    119 N         -0.0581  -22.5469  -55.5597 N.am      22 UNK        -0.5000 
    120 CA         0.7058  -22.8885  -54.3458 C.3       22 UNK         0.1400 
    121 C          1.4085  -24.2805  -54.3942 C.2       22 UNK         0.5000 
    122 N          1.0585  -25.1682  -55.3174 N.am      22 UNK        -0.7600 
    123 O          2.2640  -24.5794  -53.5653 O.2       22 UNK        -0.5000 
    124 C124        1.6607  -21.7548  -53.8723 C.3       23 UNK        -0.0398 
    125 S125        0.8120  -20.1600  -53.5938 S.3       23 UNK        -0.2404 
    126 C126        0.9148  -20.0208  -51.7844 C.3       23 UNK        -0.0205 
    127 H127       -3.7297  -13.4283  -47.0645 H         1 UNK         0.0600 
    128 H128       -3.0445  -11.9293  -47.7031 H         1 UNK         0.0600 
    129 H129       -2.8202  -13.4476  -48.5782 H         1 UNK         0.0600 
    130 H130       -0.7969  -14.3485  -48.2894 H         1 UNK         0.3000 
    131 H131        1.1047  -13.3393  -46.4890 H         1 UNK         0.0600 
    132 H132        1.2648  -15.9791  -47.9956 H         1 UNK         0.0800 
    133 H133        2.6100  -15.1182  -47.2922 H         1 UNK         0.0800 
    134 H134        3.1197  -15.7829  -50.2826 H         1 UNK         0.0800 
    135 H135        2.3271  -14.8139  -51.5010 H         1 UNK         0.0800 
    136 H136        2.4747  -17.8319  -51.4268 H         1 UNK         0.1150 
    137 H137       -1.5720  -19.1743  -51.0513 H         1 UNK         0.1150 
    138 H138       -0.5623  -15.1359  -50.0508 H         1 UNK         0.1150 
    139 H139       -3.3233  -17.6069  -50.4333 H         1 UNK         0.0800 
    140 H140       -2.9751  -15.8990  -50.4881 H         1 UNK         0.0800 
    141 H141       -3.8708  -18.2010  -46.7238 H         1 UNK         0.0800 
    142 H142       -4.5718  -18.2941  -48.3124 H         1 UNK         0.0800 
    143 H143       -2.7650  -19.6721  -49.1478 H         1 UNK         0.0600 
    144 H144       -1.1966  -18.7924  -46.9227 H         1 UNK         0.3000 
    145 H145        1.3934  -21.2211  -47.3657 H         1 UNK         0.0600 
    146 H146        2.7130  -19.0684  -47.5051 H         1 UNK         0.0600 
    147 H147        1.9716  -19.5362  -49.0219 H         1 UNK         0.0600 
    148 H148        1.2523  -18.2489  -48.0639 H         1 UNK         0.0600 
    149 H149        1.3941  -19.1379  -45.5562 H         1 UNK         0.3000 
    150 H150       -0.1542  -19.6138  -43.1460 H         1 UNK         0.0600 
    151 H151       -0.5208  -21.9678  -42.5193 H         1 UNK         0.0600 
    152 H152        0.6897  -21.2608  -41.4632 H         1 UNK         0.0600 
    153 H153        1.1801  -22.3416  -42.7666 H         1 UNK         0.0600 
    154 H154        1.8740  -18.8190  -42.6989 H         1 UNK         0.3000 
    155 H155        5.2052  -19.8997  -43.1920 H         1 UNK         0.0600 
    156 H156        4.7357  -18.6695  -45.3050 H         1 UNK         0.0600 
    157 H157        5.4539  -17.5959  -44.1159 H         1 UNK         0.0600 
    158 H158        3.7213  -17.5212  -44.4435 H         1 UNK         0.0600 
    159 H159        4.0806  -17.5840  -41.9569 H         1 UNK         0.3000 
    160 H160        3.0500  -18.8816  -38.9429 H         1 UNK         0.0600 
    161 H161        5.8808  -17.7272  -39.1632 H         1 UNK         0.0600 
    162 H162        4.8844  -17.7687  -37.7077 H         1 UNK         0.0600 
    163 H163        5.4691  -19.2648  -38.4135 H         1 UNK         0.0600 
    164 H164        3.8539  -16.2622  -39.3165 H         1 UNK         0.3000 
    165 H165        1.4200  -14.8707  -41.3071 H         1 UNK         0.0600 
    166 H166        0.3153  -13.9444  -39.2783 H         1 UNK         0.0600 
    167 H167       -0.2057  -15.5969  -39.5572 H         1 UNK         0.0600 
    168 H168        0.9690  -15.2544  -38.3000 H         1 UNK         0.0600 
    169 H169        2.9962  -14.2227  -38.8981 H         1 UNK         0.3000 
    170 H170        4.6142  -12.9997  -42.4790 H         1 UNK         0.0600 
    171 H171        4.9018  -15.5094  -42.4116 H         1 UNK         0.0600 
    172 H172        3.1901  -15.6625  -42.8051 H         1 UNK         0.0600 
    173 H173        4.2771  -14.8543  -43.9151 H         1 UNK         0.0600 
    174 H174        1.9690  -13.5970  -43.2651 H         1 UNK         0.3000 
    175 H175        0.6467  -10.3149  -42.5987 H         1 UNK         0.0600 
    176 H176        1.6516  -11.5857  -45.1920 H         1 UNK         0.0600 
    177 H177        0.3446  -10.4054  -45.0904 H         1 UNK         0.0600 
    178 H178        1.9788   -9.9579  -44.6237 H         1 UNK         0.0600 
    179 H179       -0.4584  -12.5005  -44.0387 H         1 UNK         0.3000 
    180 H180       -2.2347  -13.9005  -41.2606 H         1 UNK         0.0600 
    181 H181       -3.5609  -11.9199  -41.9177 H         1 UNK         0.0600 
    182 H182       -3.1545  -12.1628  -43.6114 H         1 UNK         0.0600 
    183 H183       -4.1432  -13.3476  -42.7602 H         1 UNK         0.0600 
    184 H184       -1.6892  -14.1427  -44.1922 H         1 UNK         0.3000 
    185 H185       -0.0287  -17.1754  -43.7589 H         1 UNK         0.0600 
    186 H186       -2.3095  -18.1964  -43.5436 H         1 UNK         0.0600 
    187 H187       -2.9122  -17.1259  -44.8009 H         1 UNK         0.0600 
    188 H188       -1.6948  -18.3469  -45.1767 H         1 UNK         0.0600 
    189 H189       -1.1917  -15.9407  -46.0913 H         1 UNK         0.3000 
    190 H190       -2.5576  -20.7542  -45.7886 H         1 UNK         0.3000 
    191 H191       -4.9384  -22.4095  -45.8591 H         1 UNK         0.0600 
    192 H192       -4.0996  -23.2596  -43.6997 H         1 UNK         0.0600 
    193 H193       -4.0339  -21.5043  -43.7198 H         1 UNK         0.0600 
    194 H194       -2.5597  -22.4478  -43.9279 H         1 UNK         0.0600 
    195 H195       -1.4213  -22.9127  -46.3294 H         1 UNK         0.3000 
    196 H196       -1.4884  -25.6942  -46.9080 H         1 UNK         0.0600 
    197 H197        0.7407  -25.2795  -47.9168 H         1 UNK         0.0600 
    198 H198        0.5934  -24.4201  -46.3902 H         1 UNK         0.0600 
    199 H199        0.4541  -23.5455  -47.9131 H         1 UNK         0.0600 
    200 H200       -2.0770  -22.8582  -48.9507 H         1 UNK         0.3000 
    201 H201       -2.5526  -24.3547  -51.4011 H         1 UNK         0.0600 
    202 H202       -1.6446  -22.0702  -51.4745 H         1 UNK         0.0600 
    203 H203       -3.0567  -21.4371  -50.6336 H         1 UNK         0.0600 
    204 H204       -3.2125  -22.0908  -52.2538 H         1 UNK         0.0600 
    205 H205       -4.2883  -24.6548  -48.7346 H         1 UNK         0.3000 
    206 H206       -6.3177  -25.3116  -48.1875 H         1 UNK         0.0600 
    207 H207       -6.0350  -26.9036  -50.0768 H         1 UNK         0.0600 
    208 H208       -7.7212  -26.4560  -49.8755 H         1 UNK         0.0600 
    209 H209       -6.7817  -25.7561  -51.1853 H         1 UNK         0.0600 
    210 H210       -6.0722  -22.7228  -47.9910 H         1 UNK         0.3000 
    211 H211       -7.1052  -20.8068  -47.6327 H         1 UNK         0.0600 
    212 H212       -9.7555  -22.0770  -48.4990 H         1 UNK         0.0600 
    213 H213       -9.5461  -20.5844  -47.5984 H         1 UNK         0.0600 
    214 H214       -9.1008  -22.1153  -46.8621 H         1 UNK         0.0600 
    215 H215       -5.6715  -21.1724  -49.8302 H         1 UNK         0.3000 
    216 H216       -5.0035  -20.3495  -51.7626 H         1 UNK         0.0600 
    217 H217       -5.6489  -18.0908  -52.4054 H         1 UNK         0.0600 
    218 H218       -5.6228  -18.1587  -50.6504 H         1 UNK         0.0600 
    219 H219       -7.1581  -18.1941  -51.5105 H         1 UNK         0.0600 
    220 H220       -7.3205  -22.3313  -51.7766 H         1 UNK         0.3000 
    221 H221       -8.7698  -21.8808  -54.2436 H         1 UNK         0.0600 
    222 H222       -8.3323  -24.4386  -52.6131 H         1 UNK         0.0600 
    223 H223       -9.6772  -23.3154  -52.4227 H         1 UNK         0.0600 
    224 H224       -9.5019  -24.2337  -53.9113 H         1 UNK         0.0600 
    225 H225       -5.8036  -23.6109  -53.2925 H         1 UNK         0.3000 
    226 H226       -5.1538  -24.3375  -56.1107 H         1 UNK         0.0600 
    227 H227       -4.8545  -26.1019  -54.3766 H         1 UNK         0.0600 
    228 H228       -3.3073  -25.6105  -55.0506 H         1 UNK         0.0600 
    229 H229       -3.7882  -25.0446  -53.4571 H         1 UNK         0.0600 
    230 H230       -5.2645  -21.8877  -56.3506 H         1 UNK         0.3000 
    231 H231       -3.5810  -20.0802  -55.0993 H         1 UNK         0.0600 
    232 H232       -4.8044  -19.9605  -57.9070 H         1 UNK         0.0600 
    233 H233       -5.5929  -19.4711  -56.4063 H         1 UNK         0.0600 
    234 H234       -4.2049  -18.5759  -57.0007 H         1 UNK         0.0600 
    235 H235       -2.5946  -22.3687  -57.4662 H         1 UNK         0.3000 
    236 H236       -0.2017  -21.0206  -58.4115 H         1 UNK         0.0600 
    237 H237       -1.0305  -23.9748  -58.4336 H         1 UNK         0.0600 
    238 H238       -1.3107  -22.8131  -59.7313 H         1 UNK         0.0600 
    239 H239        0.3278  -23.2877  -59.3161 H         1 UNK         0.0600 
    240 H240       -1.0667  -22.5558  -55.4323 H         1 UNK         0.3000 
    241 H241       -0.0502  -23.0033  -53.5680 H         1 UNK         0.0600 
    242 H242        1.5096  -26.0693  -55.3368 H         1 UNK         0.3800 
    243 H243        0.3495  -24.9455  -55.9969 H         1 UNK         0.3800 
    244 H244        2.4562  -21.5951  -54.6007 H         1 UNK         0.0800 
    245 H245        2.1650  -22.0468  -52.9502 H         1 UNK         0.0800 
    246 H246        0.2958  -20.7891  -51.3206 H         1 UNK         0.0800 
    247 H247        1.9383  -20.2171  -51.4618 H         1 UNK         0.0800 
@<TRIPOS>BOND
     1    1    2 1    
     2    1  127 1    
     3    1  128 1    
     4    1  129 1    
     5    2    3 2    
     6    2    4 am   BACKBONE|DICT|INTERRES
     7    4    5 1    
     8    4  130 1    
     9    5    6 1    
    10    5   65 1    
    11    5  131 1    
    12    6    7 1    
    13    6  132 1    
    14    6  133 1    
    15    7    8 1    
    16    8    9 1    
    17    8  134 1    
    18    8  135 1    
    19    9   10 ar   
    20    9   14 ar   
    21   10   11 ar   
    22   10  136 1    
    23   11   12 ar   
    24   11  126 1    
    25   12   13 ar   
    26   12  137 1    
    27   13   14 ar   
    28   13   15 1    
    29   14  138 1    
    30   15   16 1    
    31   15  139 1    
    32   15  140 1    
    33   16   17 1    
    34   17   18 1    
    35   17  141 1    
    36   17  142 1    
    37   18   19 1    
    38   18   67 1    
    39   18  143 1    
    40   19   20 am   BACKBONE|DICT|INTERRES
    41   19  144 1    
    42   20   21 2    
    43   20   22 1    
    44   22   23 1    
    45   22   24 1    
    46   22  145 1    
    47   23  146 1    
    48   23  147 1    
    49   23  148 1    
    50   24   25 am   BACKBONE|DICT|INTERRES
    51   24  149 1    
    52   25   26 2    
    53   25   27 1    
    54   27   28 1    
    55   27   29 1    
    56   27  150 1    
    57   28  151 1    
    58   28  152 1    
    59   28  153 1    
    60   29   30 am   BACKBONE|DICT|INTERRES
    61   29  154 1    
    62   30   31 2    
    63   30   32 1    
    64   32   33 1    
    65   32   34 1    
    66   32  155 1    
    67   33  156 1    
    68   33  157 1    
    69   33  158 1    
    70   34   35 am   BACKBONE|DICT|INTERRES
    71   34  159 1    
    72   35   36 2    
    73   35   37 1    
    74   37   38 1    
    75   37   39 1    
    76   37  160 1    
    77   38  161 1    
    78   38  162 1    
    79   38  163 1    
    80   39   40 am   BACKBONE|DICT|INTERRES
    81   39  164 1    
    82   40   41 2    
    83   40   42 1    
    84   42   43 1    
    85   42   44 1    
    86   42  165 1    
    87   43  166 1    
    88   43  167 1    
    89   43  168 1    
    90   44   45 am   BACKBONE|DICT|INTERRES
    91   44  169 1    
    92   45   46 2    
    93   45   47 1    
    94   47   48 1    
    95   47   49 1    
    96   47  170 1    
    97   48  171 1    
    98   48  172 1    
    99   48  173 1    
   100   49   50 am   BACKBONE|DICT|INTERRES
   101   49  174 1    
   102   50   51 2    
   103   50   52 1    
   104   52   53 1    
   105   52   54 1    
   106   52  175 1    
   107   53  176 1    
   108   53  177 1    
   109   53  178 1    
   110   54   55 am   BACKBONE|DICT|INTERRES
   111   54  179 1    
   112   55   56 2    
   113   55   57 1    
   114   57   58 1    
   115   57   59 1    
   116   57  180 1    
   117   58  181 1    
   118   58  182 1    
   119   58  183 1    
   120   59   60 am   BACKBONE|DICT|INTERRES
   121   59  184 1    
   122   60   61 2    
   123   60   62 1    
   124   62   63 1    
   125   62   64 1    
   126   62  185 1    
   127   63  186 1    
   128   63  187 1    
   129   63  188 1    
   130   64   65 am   BACKBONE|DICT|INTERRES
   131   64  189 1    
   132   65   66 2    
   133   67   68 2    
   134   67   69 am   BACKBONE|DICT|INTERRES
   135   69   70 1    
   136   69  190 1    
   137   70   71 1    
   138   70   72 1    
   139   70  191 1    
   140   71  192 1    
   141   71  193 1    
   142   71  194 1    
   143   72   73 2    
   144   72   74 am   BACKBONE|DICT|INTERRES
   145   74   75 1    
   146   74  195 1    
   147   75   76 1    
   148   75   77 1    
   149   75  196 1    
   150   76  197 1    
   151   76  198 1    
   152   76  199 1    
   153   77   78 2    
   154   77   79 am   BACKBONE|DICT|INTERRES
   155   79   80 1    
   156   79  200 1    
   157   80   81 1    
   158   80   82 1    
   159   80  201 1    
   160   81  202 1    
   161   81  203 1    
   162   81  204 1    
   163   82   83 2    
   164   82   84 am   BACKBONE|DICT|INTERRES
   165   84   85 1    
   166   84  205 1    
   167   85   86 1    
   168   85   87 1    
   169   85  206 1    
   170   86  207 1    
   171   86  208 1    
   172   86  209 1    
   173   87   88 2    
   174   87   89 am   BACKBONE|DICT|INTERRES
   175   89   90 1    
   176   89  210 1    
   177   90   91 1    
   178   90   92 1    
   179   90  211 1    
   180   91  212 1    
   181   91  213 1    
   182   91  214 1    
   183   92   93 2    
   184   92   94 am   BACKBONE|DICT|INTERRES
   185   94   95 1    
   186   94  215 1    
   187   95   96 1    
   188   95   97 1    
   189   95  216 1    
   190   96  217 1    
   191   96  218 1    
   192   96  219 1    
   193   97   98 2    
   194   97   99 am   BACKBONE|DICT|INTERRES
   195   99  100 1    
   196   99  220 1    
   197  100  101 1    
   198  100  102 1    
   199  100  221 1    
   200  101  222 1    
   201  101  223 1    
   202  101  224 1    
   203  102  103 2    
   204  102  104 am   BACKBONE|DICT|INTERRES
   205  104  105 1    
   206  104  225 1    
   207  105  106 1    
   208  105  107 1    
   209  105  226 1    
   210  106  227 1    
   211  106  228 1    
   212  106  229 1    
   213  107  108 2    
   214  107  109 am   BACKBONE|DICT|INTERRES
   215  109  110 1    
   216  109  230 1    
   217  110  111 1    
   218  110  112 1    
   219  110  231 1    
   220  111  232 1    
   221  111  233 1    
   222  111  234 1    
   223  112  113 2    
   224  112  114 am   BACKBONE|DICT|INTERRES
   225  114  115 1    
   226  114  235 1    
   227  115  116 1    
   228  115  117 1    
   229  115  236 1    
   230  116  237 1    
   231  116  238 1    
   232  116  239 1    
   233  117  118 2    
   234  117  119 am   BACKBONE|DICT|INTERRES
   235  119  120 1    
   236  119  240 1    
   237  120  121 1    
   238  120  124 1    
   239  120  241 1    
   240  121  122 am   BACKBONE|DICT|INTERRES
   241  121  123 2    
   242  122  242 1    
   243  122  243 1    
   244  124  125 1    
   245  124  244 1    
   246  124  245 1    
   247  125  126 1    
   248  126  246 1    
   249  126  247 1    
@<TRIPOS>SUBSTRUCTURE
     1 UNK         1 GROUP             0       ****    0 ROOT    
