@<TRIPOS>MOLECULE
3R540
247   249    1
SMALL
USER_CHARGES


@<TRIPOS>ATOM
      1 CA          6.4434  -11.9522  -45.6924 C.3       0 UNK        -0.1800 
      2 C           4.9990  -12.4162  -45.7882 C.2       0 UNK         0.5000 
      3 O           4.2407  -12.2551  -44.8318 O.2       0 UNK        -0.5000 
      4 N           4.6090  -12.9962  -46.9309 N.am      1 UNK        -0.5000 
      5 CA          3.2660  -13.5382  -47.1790 C.3       1 UNK         0.1400 
      6 C6          3.1814  -14.3532  -48.4910 C.3       23 UNK        -0.0398 
      7 S7          4.3580  -15.7460  -48.5423 S.3       23 UNK        -0.2404 
      8 C8          3.9301  -16.5178  -50.1346 C.3       23 UNK        -0.0205 
      9 C9          2.7457  -17.4652  -50.0102 C.ar      23 UNK        -0.0193 
     10 C10         1.4398  -16.9881  -50.1508 C.ar      23 UNK        -0.1150 
     11 C11         0.3505  -17.8562  -50.0446 C.ar      23 UNK        -0.0193 
     12 C12         0.5727  -19.2162  -49.8116 C.ar      23 UNK        -0.1150 
     13 C13         1.8755  -19.7098  -49.6855 C.ar      23 UNK        -0.0193 
     14 C14         2.9567  -18.8281  -49.7796 C.ar      23 UNK        -0.1150 
     15 C15         2.1154  -21.1993  -49.4769 C.3       23 UNK        -0.0205 
     16 S16         2.7664  -21.5929  -47.8195 S.3       23 UNK        -0.2404 
     17 C17         1.4330  -21.0012  -46.7252 C.3       23 UNK        -0.0398 
     18 CA          0.4843  -22.1193  -46.2328 C.3       11 UNK         0.1400 
     19 N          -0.1460  -21.7503  -44.9597 N.am      11 UNK        -0.5000 
     20 C          -1.0027  -22.4961  -44.2459 C.2       10 UNK         0.5000 
     21 O          -1.3610  -23.6286  -44.5677 O.2       10 UNK        -0.5000 
     22 CA         -1.6005  -21.8358  -42.9930 C.3       10 UNK         0.1400 
     23 CB         -0.6333  -21.9377  -41.8034 C.3       10 UNK        -0.1800 
     24 N          -1.9192  -20.4313  -43.2551 N.am      10 UNK        -0.5000 
     25 C          -3.0578  -20.0137  -43.8266 C.2       9 UNK         0.5000 
     26 O          -4.0022  -20.7594  -44.0850 O.2       9 UNK        -0.5000 
     27 CA         -3.1630  -18.5174  -44.1855 C.3       9 UNK         0.1400 
     28 CB         -3.8247  -17.7358  -43.0406 C.3       9 UNK        -0.1800 
     29 N          -1.8747  -17.8978  -44.5023 N.am      9 UNK        -0.5000 
     30 C          -1.1339  -18.1799  -45.5833 C.2       8 UNK         0.5000 
     31 O          -1.4679  -18.9881  -46.4491 O.2       8 UNK        -0.5000 
     32 CA          0.2392  -17.4829  -45.6796 C.3       8 UNK         0.1400 
     33 CB          0.1107  -16.1315  -46.3958 C.3       8 UNK        -0.1800 
     34 N           0.9084  -17.2815  -44.3887 N.am      8 UNK        -0.5000 
     35 C           1.1848  -18.2394  -43.4912 C.2       7 UNK         0.5000 
     36 O           0.8512  -19.4169  -43.6307 O.2       7 UNK        -0.5000 
     37 CA          1.9497  -17.7873  -42.2324 C.3       7 UNK         0.1400 
     38 CB          2.3368  -18.9561  -41.3024 C.3       7 UNK        -0.1800 
     39 N           3.1154  -16.9613  -42.5624 N.am      7 UNK        -0.5000 
     40 C           4.2029  -17.3235  -43.2648 C.2       6 UNK         0.5000 
     41 O           4.3786  -18.4564  -43.7138 O.2       6 UNK        -0.5000 
     42 CA          5.2738  -16.2421  -43.5345 C.3       6 UNK         0.1400 
     43 CB          5.5200  -16.0842  -45.0423 C.3       6 UNK        -0.1800 
     44 N           4.9215  -14.9320  -42.9848 N.am      6 UNK        -0.5000 
     45 C           5.0892  -14.5573  -41.7098 C.2       5 UNK         0.5000 
     46 O           5.6441  -15.2500  -40.8569 O.2       5 UNK        -0.5000 
     47 CA          4.4882  -13.1957  -41.3183 C.3       5 UNK         0.1400 
     48 CB          5.5406  -12.0831  -41.4390 C.3       5 UNK        -0.1800 
     49 N           3.3287  -12.8407  -42.1381 N.am      5 UNK        -0.5000 
     50 C           2.1258  -13.4303  -42.0960 C.2       4 UNK         0.5000 
     51 O           1.8696  -14.3816  -41.3575 O.2       4 UNK        -0.5000 
     52 CA          1.0515  -12.9167  -43.0812 C.3       4 UNK         0.1400 
     53 CB         -0.3596  -12.8930  -42.4608 C.3       4 UNK        -0.1800 
     54 N           1.3887  -11.6307  -43.7025 N.am      4 UNK        -0.5000 
     55 C           1.5260  -10.4318  -43.1133 C.2       3 UNK         0.5000 
     56 O           1.2590  -10.2123  -41.9317 O.2       3 UNK        -0.5000 
     57 CA          2.1169   -9.2954  -43.9728 C.3       3 UNK         0.1400 
     58 CB          3.5063   -8.8984  -43.4456 C.3       3 UNK        -0.1800 
     59 N           2.2542   -9.6729  -45.3804 N.am      3 UNK        -0.5000 
     60 C           1.3099   -9.5086  -46.3158 C.2       2 UNK         0.5000 
     61 O           0.2312   -8.9515  -46.1111 O.2       2 UNK        -0.5000 
     62 CA          1.6165  -10.0860  -47.7120 C.3       2 UNK         0.1400 
     63 CB          2.2398   -9.0099  -48.6138 C.3       2 UNK        -0.1800 
     64 N           2.5042  -11.2529  -47.6763 N.am      2 UNK        -0.5000 
     65 C           2.1768  -12.4470  -47.1606 C.2       1 UNK         0.5000 
     66 O           1.0868  -12.6920  -46.6453 O.2       1 UNK        -0.5000 
     67 C          -0.5459  -22.4976  -47.3200 C.2       11 UNK         0.5000 
     68 O          -0.2948  -23.4115  -48.1042 O.2       11 UNK        -0.5000 
     69 N          -1.7140  -21.8385  -47.3041 N.am      12 UNK        -0.5000 
     70 CA         -2.8726  -22.1027  -48.1599 C.3       12 UNK         0.1400 
     71 CB         -4.0082  -21.1503  -47.7615 C.3       12 UNK        -0.1800 
     72 C          -3.3821  -23.5592  -48.1476 C.2       12 UNK         0.5000 
     73 O          -3.9984  -23.9800  -49.1281 O.2       12 UNK        -0.5000 
     74 N          -3.0951  -24.3194  -47.0794 N.am      13 UNK        -0.5000 
     75 CA         -3.3747  -25.7538  -46.9848 C.3       13 UNK         0.1400 
     76 CB         -3.1009  -26.2397  -45.5551 C.3       13 UNK        -0.1800 
     77 C          -2.5751  -26.5923  -48.0021 C.2       13 UNK         0.5000 
     78 O          -3.0928  -27.5979  -48.4881 O.2       13 UNK        -0.5000 
     79 N          -1.3588  -26.1436  -48.3522 N.am      14 UNK        -0.5000 
     80 CA         -0.5190  -26.7516  -49.3896 C.3       14 UNK         0.1400 
     81 CB          0.9303  -26.2662  -49.2324 C.3       14 UNK        -0.1800 
     82 C          -1.0392  -26.4634  -50.8118 C.2       14 UNK         0.5000 
     83 O          -0.7287  -27.2162  -51.7347 O.2       14 UNK        -0.5000 
     84 N          -1.8622  -25.4152  -50.9528 N.am      15 UNK        -0.5000 
     85 CA         -2.6131  -25.0687  -52.1595 C.3       15 UNK         0.1400 
     86 CB         -2.6480  -23.5363  -52.3012 C.3       15 UNK        -0.1800 
     87 C          -4.0297  -25.6849  -52.1337 C.2       15 UNK         0.5000 
     88 O          -4.9547  -25.1116  -52.7102 O.2       15 UNK        -0.5000 
     89 N          -4.1784  -26.8266  -51.4420 N.am      16 UNK        -0.5000 
     90 CA         -5.3953  -27.6263  -51.2687 C.3       16 UNK         0.1400 
     91 CB         -5.7755  -28.3237  -52.5900 C.3       16 UNK        -0.1800 
     92 C          -6.5571  -26.8352  -50.6334 C.2       16 UNK         0.5000 
     93 O          -7.7048  -26.9682  -51.0605 O.2       16 UNK        -0.5000 
     94 N          -6.2170  -26.0235  -49.6215 N.am      17 UNK        -0.5000 
     95 CA         -7.0877  -25.0958  -48.8946 C.3       17 UNK         0.1400 
     96 CB         -8.2110  -25.8420  -48.1438 C.3       17 UNK        -0.1800 
     97 C          -7.5942  -23.9652  -49.8107 C.2       17 UNK         0.5000 
     98 O          -8.8005  -23.7293  -49.9016 O.2       17 UNK        -0.5000 
     99 N          -6.6369  -23.2911  -50.4665 N.am      18 UNK        -0.5000 
    100 CA        -6.8191  -22.1506  -51.3716 C.3       18 UNK         0.1400 
    101 CB        -7.3658  -20.9333  -50.5936 C.3       18 UNK        -0.1800 
    102 C         -7.6628  -22.4914  -52.6199 C.2       18 UNK         0.5000 
    103 O         -8.5554  -21.7278  -52.9949 O.2       18 UNK        -0.5000 
    104 N         -7.3722  -23.6377  -53.2489 N.am      19 UNK        -0.5000 
    105 CA        -8.0371  -24.1114  -54.4619 C.3       19 UNK         0.1400 
    106 CB        -7.8029  -25.6235  -54.6070 C.3       19 UNK        -0.1800 
    107 C         -7.5330  -23.3312  -55.6902 C.2       19 UNK         0.5000 
    108 O         -6.5213  -23.7106  -56.2832 O.2       19 UNK        -0.5000 
    109 N         -8.2321  -22.2338  -56.0183 N.am      20 UNK        -0.5000 
    110 CA        -7.9108  -21.2628  -57.0744 C.3       20 UNK         0.1400 
    111 CB        -8.0554  -21.9001  -58.4726 C.3       20 UNK        -0.1800 
    112 C         -6.5392  -20.5888  -56.8496 C.2       20 UNK         0.5000 
    113 O         -5.7577  -20.4197  -57.7879 O.2       20 UNK        -0.5000 
    114 N         -6.2722  -20.2367  -55.5888 N.am      21 UNK        -0.5000 
    115 CA        -5.0252  -19.6693  -55.0920 C.3       21 UNK         0.1400 
    116 CB        -4.0311  -20.8122  -54.8124 C.3       21 UNK        -0.1800 
    117 C         -5.3266  -18.8685  -53.8165 C.2       21 UNK         0.5000 
    118 O         -6.4691  -18.8641  -53.3516 O.2       21 UNK        -0.5000 
    119 N         -4.2984  -18.2188  -53.2607 N.am      22 UNK        -0.5000 
    120 CA        -4.3688  -17.5122  -51.9703 C.3       22 UNK         0.1400 
    121 C         -4.4875  -18.4401  -50.7257 C.2       22 UNK         0.5000 
    122 N         -4.1186  -19.7128  -50.8145 N.am      22 UNK        -0.7600 
    123 O         -4.9216  -17.9969  -49.6670 O.2       22 UNK        -0.5000 
    124 C124       -3.2125  -16.4930  -51.8083 C.3       23 UNK        -0.0398 
    125 S125       -1.5450  -17.2312  -51.9440 S.3       23 UNK        -0.2404 
    126 C126       -1.0629  -17.3205  -50.1922 C.3       23 UNK        -0.0205 
    127 H127        6.9550  -12.4922  -44.8958 H         1 UNK         0.0600 
    128 H128        6.4795  -10.8875  -45.4625 H         1 UNK         0.0600 
    129 H129        6.9856  -12.1206  -46.6229 H         1 UNK         0.0600 
    130 H130        5.2780  -13.1260  -47.6767 H         1 UNK         0.3000 
    131 H131        3.0380  -14.2146  -46.3532 H         1 UNK         0.0600 
    132 H132        2.1746  -14.7538  -48.6096 H         1 UNK         0.0800 
    133 H133        3.3654  -13.7129  -49.3557 H         1 UNK         0.0800 
    134 H134        3.7253  -15.7483  -50.8805 H         1 UNK         0.0800 
    135 H135        4.8007  -17.0648  -50.4996 H         1 UNK         0.0800 
    136 H136        1.2668  -15.9409  -50.3527 H         1 UNK         0.1150 
    137 H137       -0.2697  -19.8902  -49.7386 H         1 UNK         0.1150 
    138 H138        3.9642  -19.2070  -49.6791 H         1 UNK         0.1150 
    139 H139        1.2012  -21.7669  -49.6535 H         1 UNK         0.0800 
    140 H140        2.8311  -21.5484  -50.2224 H         1 UNK         0.0800 
    141 H141        0.8748  -20.1972  -47.2018 H         1 UNK         0.0800 
    142 H142        1.9356  -20.5416  -45.8730 H         1 UNK         0.0800 
    143 H143        1.0781  -23.0121  -46.0262 H         1 UNK         0.0600 
    144 H144        0.1239  -20.8488  -44.5748 H         1 UNK         0.3000 
    145 H145       -2.5139  -22.3731  -42.7287 H         1 UNK         0.0600 
    146 H146       -1.0510  -21.4659  -40.9140 H         1 UNK         0.0600 
    147 H147       -0.4343  -22.9810  -41.5554 H         1 UNK         0.0600 
    148 H148        0.3260  -21.4654  -42.0146 H         1 UNK         0.0600 
    149 H149       -1.1641  -19.7697  -43.1272 H         1 UNK         0.3000 
    150 H150       -3.8010  -18.4368  -45.0683 H         1 UNK         0.0600 
    151 H151       -4.8018  -18.1544  -42.7957 H         1 UNK         0.0600 
    152 H152       -3.9796  -16.6916  -43.3132 H         1 UNK         0.0600 
    153 H153       -3.2200  -17.7610  -42.1332 H         1 UNK         0.0600 
    154 H154       -1.5190  -17.2255  -43.8393 H         1 UNK         0.3000 
    155 H155        0.8900  -18.1152  -46.2837 H         1 UNK         0.0600 
    156 H156       -0.3750  -16.2469  -47.3650 H         1 UNK         0.0600 
    157 H157        1.0900  -15.6918  -46.5779 H         1 UNK         0.0600 
    158 H158       -0.4762  -15.4180  -45.8161 H         1 UNK         0.0600 
    159 H159        1.2256  -16.3452  -44.1919 H         1 UNK         0.3000 
    160 H160        1.2667  -17.1439  -41.6762 H         1 UNK         0.0600 
    161 H161        2.9606  -19.6930  -41.8091 H         1 UNK         0.0600 
    162 H162        1.4484  -19.4753  -40.9415 H         1 UNK         0.0600 
    163 H163        2.8809  -18.6000  -40.4277 H         1 UNK         0.0600 
    164 H164        3.0716  -16.0109  -42.2170 H         1 UNK         0.3000 
    165 H165        6.2030  -16.5826  -43.0730 H         1 UNK         0.0600 
    166 H166        6.2787  -15.3286  -45.2460 H         1 UNK         0.0600 
    167 H167        5.8674  -17.0180  -45.4862 H         1 UNK         0.0600 
    168 H168        4.6077  -15.7967  -45.5627 H         1 UNK         0.0600 
    169 H169        4.4734  -14.2775  -43.6122 H         1 UNK         0.3000 
    170 H170        4.1662  -13.2580  -40.2768 H         1 UNK         0.0600 
    171 H171        5.8874  -11.9663  -42.4665 H         1 UNK         0.0600 
    172 H172        5.1390  -11.1242  -41.1108 H         1 UNK         0.0600 
    173 H173        6.4120  -12.3001  -40.8199 H         1 UNK         0.0600 
    174 H174        3.4873  -12.1493  -42.8612 H         1 UNK         0.3000 
    175 H175        1.0332  -13.6387  -43.8986 H         1 UNK         0.0600 
    176 H176       -1.0984  -12.5339  -43.1772 H         1 UNK         0.0600 
    177 H177       -0.4062  -12.2532  -41.5794 H         1 UNK         0.0600 
    178 H178       -0.6681  -13.8926  -42.1524 H         1 UNK         0.0600 
    179 H179        1.6220  -11.6886  -44.6851 H         1 UNK         0.3000 
    180 H180        1.4549   -8.4317  -43.8825 H         1 UNK         0.0600 
    181 H181        3.9235   -8.0708  -44.0195 H         1 UNK         0.0600 
    182 H182        4.2105   -9.7301  -43.4966 H         1 UNK         0.0600 
    183 H183        3.4548   -8.5761  -42.4049 H         1 UNK         0.0600 
    184 H184        3.1028  -10.1603  -45.6317 H         1 UNK         0.3000 
    185 H185        0.6677  -10.3962  -48.1550 H         1 UNK         0.0600 
    186 H186        1.5918   -8.1351  -48.6832 H         1 UNK         0.0600 
    187 H187        3.2049   -8.6740  -48.2324 H         1 UNK         0.0600 
    188 H188        2.3895   -9.3824  -49.6273 H         1 UNK         0.0600 
    189 H189        3.4297  -11.1316  -48.0619 H         1 UNK         0.3000 
    190 H190       -1.8004  -21.0513  -46.6709 H         1 UNK         0.3000 
    191 H191       -2.5722  -21.8773  -49.1847 H         1 UNK         0.0600 
    192 H192       -4.8891  -21.3021  -48.3851 H         1 UNK         0.0600 
    193 H193       -4.3152  -21.3102  -46.7277 H         1 UNK         0.0600 
    194 H194       -3.7071  -20.1067  -47.8598 H         1 UNK         0.0600 
    195 H195       -2.5701  -23.9124  -46.3131 H         1 UNK         0.3000 
    196 H196       -4.4360  -25.9021  -47.1922 H         1 UNK         0.0600 
    197 H197       -3.3778  -27.2884  -45.4402 H         1 UNK         0.0600 
    198 H198       -3.6761  -25.6689  -44.8258 H         1 UNK         0.0600 
    199 H199       -2.0455  -26.1496  -45.2951 H         1 UNK         0.0600 
    200 H200       -1.0209  -25.2683  -47.9638 H         1 UNK         0.3000 
    201 H201       -0.5292  -27.8341  -49.2462 H         1 UNK         0.0600 
    202 H202        1.2987  -26.4362  -48.2207 H         1 UNK         0.0600 
    203 H203        1.0290  -25.2032  -49.4529 H         1 UNK         0.0600 
    204 H204        1.5931  -26.8005  -49.9142 H         1 UNK         0.0600 
    205 H205       -2.0923  -24.8796  -50.1272 H         1 UNK         0.3000 
    206 H206       -2.1044  -25.4726  -53.0369 H         1 UNK         0.0600 
    207 H207       -1.6449  -23.1115  -52.2602 H         1 UNK         0.0600 
    208 H208       -3.0793  -23.2506  -53.2602 H         1 UNK         0.0600 
    209 H209       -3.2441  -23.0672  -51.5187 H         1 UNK         0.0600 
    210 H210       -3.3622  -27.1883  -50.9691 H         1 UNK         0.3000 
    211 H211       -5.1435  -28.4081  -50.5506 H         1 UNK         0.0600 
    212 H212       -6.0388  -27.6056  -53.3643 H         1 UNK         0.0600 
    213 H213       -6.6292  -28.9885  -52.4538 H         1 UNK         0.0600 
    214 H214       -4.9510  -28.9300  -52.9649 H         1 UNK         0.0600 
    215 H215       -5.2318  -25.9403  -49.4098 H         1 UNK         0.3000 
    216 H216       -6.4648  -24.6170  -48.1381 H         1 UNK         0.0600 
    217 H217       -8.7705  -25.1569  -47.5060 H         1 UNK         0.0600 
    218 H218       -7.8039  -26.6233  -47.5021 H         1 UNK         0.0600 
    219 H219       -8.9250  -26.3049  -48.8252 H         1 UNK         0.0600 
    220 H220       -5.6787  -23.5877  -50.3161 H         1 UNK         0.3000 
    221 H221       -5.8265  -21.8896  -51.7402 H         1 UNK         0.0600 
    222 H222       -8.3849  -21.0975  -50.2434 H         1 UNK         0.0600 
    223 H223       -6.7488  -20.7034  -49.7264 H         1 UNK         0.0600 
    224 H224       -7.3813  -20.0417  -51.2190 H         1 UNK         0.0600 
    225 H225       -6.5827  -24.1937  -52.9264 H         1 UNK         0.3000 
    226 H226       -9.1131  -23.9532  -54.3619 H         1 UNK         0.0600 
    227 H227       -8.1772  -26.1658  -53.7386 H         1 UNK         0.0600 
    228 H228       -8.3181  -26.0150  -55.4847 H         1 UNK         0.0600 
    229 H229       -6.7436  -25.8563  -54.7177 H         1 UNK         0.0600 
    230 H230       -9.0091  -21.9825  -55.4209 H         1 UNK         0.3000 
    231 H231       -8.6547  -20.4686  -56.9984 H         1 UNK         0.0600 
    232 H232       -7.3048  -22.6711  -58.6485 H         1 UNK         0.0600 
    233 H233       -7.9419  -21.1502  -59.2562 H         1 UNK         0.0600 
    234 H234       -9.0383  -22.3539  -58.5991 H         1 UNK         0.0600 
    235 H235       -6.9898  -20.3367  -54.8806 H         1 UNK         0.3000 
    236 H236       -4.6094  -18.9844  -55.8337 H         1 UNK         0.0600 
    237 H237       -3.8252  -21.3873  -55.7154 H         1 UNK         0.0600 
    238 H238       -3.0752  -20.4354  -54.4475 H         1 UNK         0.0600 
    239 H239       -4.4259  -21.5010  -54.0651 H         1 UNK         0.0600 
    240 H240       -3.3847  -18.2617  -53.6887 H         1 UNK         0.3000 
    241 H241       -5.2922  -16.9295  -51.9815 H         1 UNK         0.0600 
    242 H242       -3.7217  -20.0708  -51.6667 H         1 UNK         0.3800 
    243 H243       -4.2010  -20.2938  -49.9997 H         1 UNK         0.3800 
    244 H244       -3.3052  -15.9496  -50.8662 H         1 UNK         0.0800 
    245 H245       -3.2964  -15.7332  -52.5863 H         1 UNK         0.0800 
    246 H246       -1.7627  -17.9540  -49.6445 H         1 UNK         0.0800 
    247 H247       -1.1291  -16.3274  -49.7457 H         1 UNK         0.0800 
@<TRIPOS>BOND
     1    1    2 1    
     2    1  127 1    
     3    1  128 1    
     4    1  129 1    
     5    2    3 2    
     6    2    4 am   BACKBONE|DICT|INTERRES
     7    4    5 1    
     8    4  130 1    
     9    5    6 1    
    10    5   65 1    
    11    5  131 1    
    12    6    7 1    
    13    6  132 1    
    14    6  133 1    
    15    7    8 1    
    16    8    9 1    
    17    8  134 1    
    18    8  135 1    
    19    9   10 ar   
    20    9   14 ar   
    21   10   11 ar   
    22   10  136 1    
    23   11   12 ar   
    24   11  126 1    
    25   12   13 ar   
    26   12  137 1    
    27   13   14 ar   
    28   13   15 1    
    29   14  138 1    
    30   15   16 1    
    31   15  139 1    
    32   15  140 1    
    33   16   17 1    
    34   17   18 1    
    35   17  141 1    
    36   17  142 1    
    37   18   19 1    
    38   18   67 1    
    39   18  143 1    
    40   19   20 am   BACKBONE|DICT|INTERRES
    41   19  144 1    
    42   20   21 2    
    43   20   22 1    
    44   22   23 1    
    45   22   24 1    
    46   22  145 1    
    47   23  146 1    
    48   23  147 1    
    49   23  148 1    
    50   24   25 am   BACKBONE|DICT|INTERRES
    51   24  149 1    
    52   25   26 2    
    53   25   27 1    
    54   27   28 1    
    55   27   29 1    
    56   27  150 1    
    57   28  151 1    
    58   28  152 1    
    59   28  153 1    
    60   29   30 am   BACKBONE|DICT|INTERRES
    61   29  154 1    
    62   30   31 2    
    63   30   32 1    
    64   32   33 1    
    65   32   34 1    
    66   32  155 1    
    67   33  156 1    
    68   33  157 1    
    69   33  158 1    
    70   34   35 am   BACKBONE|DICT|INTERRES
    71   34  159 1    
    72   35   36 2    
    73   35   37 1    
    74   37   38 1    
    75   37   39 1    
    76   37  160 1    
    77   38  161 1    
    78   38  162 1    
    79   38  163 1    
    80   39   40 am   BACKBONE|DICT|INTERRES
    81   39  164 1    
    82   40   41 2    
    83   40   42 1    
    84   42   43 1    
    85   42   44 1    
    86   42  165 1    
    87   43  166 1    
    88   43  167 1    
    89   43  168 1    
    90   44   45 am   BACKBONE|DICT|INTERRES
    91   44  169 1    
    92   45   46 2    
    93   45   47 1    
    94   47   48 1    
    95   47   49 1    
    96   47  170 1    
    97   48  171 1    
    98   48  172 1    
    99   48  173 1    
   100   49   50 am   BACKBONE|DICT|INTERRES
   101   49  174 1    
   102   50   51 2    
   103   50   52 1    
   104   52   53 1    
   105   52   54 1    
   106   52  175 1    
   107   53  176 1    
   108   53  177 1    
   109   53  178 1    
   110   54   55 am   BACKBONE|DICT|INTERRES
   111   54  179 1    
   112   55   56 2    
   113   55   57 1    
   114   57   58 1    
   115   57   59 1    
   116   57  180 1    
   117   58  181 1    
   118   58  182 1    
   119   58  183 1    
   120   59   60 am   BACKBONE|DICT|INTERRES
   121   59  184 1    
   122   60   61 2    
   123   60   62 1    
   124   62   63 1    
   125   62   64 1    
   126   62  185 1    
   127   63  186 1    
   128   63  187 1    
   129   63  188 1    
   130   64   65 am   BACKBONE|DICT|INTERRES
   131   64  189 1    
   132   65   66 2    
   133   67   68 2    
   134   67   69 am   BACKBONE|DICT|INTERRES
   135   69   70 1    
   136   69  190 1    
   137   70   71 1    
   138   70   72 1    
   139   70  191 1    
   140   71  192 1    
   141   71  193 1    
   142   71  194 1    
   143   72   73 2    
   144   72   74 am   BACKBONE|DICT|INTERRES
   145   74   75 1    
   146   74  195 1    
   147   75   76 1    
   148   75   77 1    
   149   75  196 1    
   150   76  197 1    
   151   76  198 1    
   152   76  199 1    
   153   77   78 2    
   154   77   79 am   BACKBONE|DICT|INTERRES
   155   79   80 1    
   156   79  200 1    
   157   80   81 1    
   158   80   82 1    
   159   80  201 1    
   160   81  202 1    
   161   81  203 1    
   162   81  204 1    
   163   82   83 2    
   164   82   84 am   BACKBONE|DICT|INTERRES
   165   84   85 1    
   166   84  205 1    
   167   85   86 1    
   168   85   87 1    
   169   85  206 1    
   170   86  207 1    
   171   86  208 1    
   172   86  209 1    
   173   87   88 2    
   174   87   89 am   BACKBONE|DICT|INTERRES
   175   89   90 1    
   176   89  210 1    
   177   90   91 1    
   178   90   92 1    
   179   90  211 1    
   180   91  212 1    
   181   91  213 1    
   182   91  214 1    
   183   92   93 2    
   184   92   94 am   BACKBONE|DICT|INTERRES
   185   94   95 1    
   186   94  215 1    
   187   95   96 1    
   188   95   97 1    
   189   95  216 1    
   190   96  217 1    
   191   96  218 1    
   192   96  219 1    
   193   97   98 2    
   194   97   99 am   BACKBONE|DICT|INTERRES
   195   99  100 1    
   196   99  220 1    
   197  100  101 1    
   198  100  102 1    
   199  100  221 1    
   200  101  222 1    
   201  101  223 1    
   202  101  224 1    
   203  102  103 2    
   204  102  104 am   BACKBONE|DICT|INTERRES
   205  104  105 1    
   206  104  225 1    
   207  105  106 1    
   208  105  107 1    
   209  105  226 1    
   210  106  227 1    
   211  106  228 1    
   212  106  229 1    
   213  107  108 2    
   214  107  109 am   BACKBONE|DICT|INTERRES
   215  109  110 1    
   216  109  230 1    
   217  110  111 1    
   218  110  112 1    
   219  110  231 1    
   220  111  232 1    
   221  111  233 1    
   222  111  234 1    
   223  112  113 2    
   224  112  114 am   BACKBONE|DICT|INTERRES
   225  114  115 1    
   226  114  235 1    
   227  115  116 1    
   228  115  117 1    
   229  115  236 1    
   230  116  237 1    
   231  116  238 1    
   232  116  239 1    
   233  117  118 2    
   234  117  119 am   BACKBONE|DICT|INTERRES
   235  119  120 1    
   236  119  240 1    
   237  120  121 1    
   238  120  124 1    
   239  120  241 1    
   240  121  122 am   BACKBONE|DICT|INTERRES
   241  121  123 2    
   242  122  242 1    
   243  122  243 1    
   244  124  125 1    
   245  124  244 1    
   246  124  245 1    
   247  125  126 1    
   248  126  246 1    
   249  126  247 1    
@<TRIPOS>SUBSTRUCTURE
     1 UNK         1 GROUP             0       ****    0 ROOT    
