@<TRIPOS>MOLECULE
3R540
247   249    1
SMALL
USER_CHARGES


@<TRIPOS>ATOM
      1 CA         -1.2704  -16.0040  -46.5381 C.3       0 UNK        -0.1800 
      2 C          -0.9285  -15.2987  -47.8411 C.2       0 UNK         0.5000 
      3 O          -1.5925  -15.5278  -48.8515 O.2       0 UNK        -0.5000 
      4 N           0.1148  -14.4617  -47.8272 N.am      1 UNK        -0.5000 
      5 CA          0.5941  -13.7180  -48.9931 C.3       1 UNK         0.1400 
      6 C6          1.4020  -14.5783  -50.0090 C.3       23 UNK        -0.0398 
      7 S7          2.9677  -15.3126  -49.3978 S.3       23 UNK        -0.2404 
      8 C8          2.4454  -16.8590  -48.5879 C.3       23 UNK        -0.0205 
      9 C9          2.1602  -17.9899  -49.5645 C.ar      23 UNK        -0.0193 
     10 C10         0.8933  -18.1317  -50.1336 C.ar      23 UNK        -0.1150 
     11 C11         0.6096  -19.2000  -50.9873 C.ar      23 UNK        -0.0193 
     12 C12         1.6004  -20.1472  -51.2589 C.ar      23 UNK        -0.1150 
     13 C13         2.8709  -20.0223  -50.6890 C.ar      23 UNK        -0.0193 
     14 C14         3.1483  -18.9339  -49.8551 C.ar      23 UNK        -0.1150 
     15 C15         3.9439  -21.0672  -50.9623 C.3       23 UNK        -0.0205 
     16 S16         3.5914  -22.6690  -50.1625 S.3       23 UNK        -0.2404 
     17 C17         3.4841  -22.2164  -48.3931 C.3       23 UNK        -0.0398 
     18 CA          2.3283  -22.9024  -47.6235 C.3       11 UNK         0.1400 
     19 N           2.3759  -22.5474  -46.2026 N.am      11 UNK        -0.5000 
     20 C           1.6416  -23.1014  -45.2317 C.2       10 UNK         0.5000 
     21 O           0.8582  -24.0301  -45.4238 O.2       10 UNK        -0.5000 
     22 CA          1.7549  -22.4877  -43.8249 C.3       10 UNK         0.1400 
     23 CB          2.9854  -23.0252  -43.0724 C.3       10 UNK        -0.1800 
     24 N           1.7042  -21.0203  -43.8033 N.am      10 UNK        -0.5000 
     25 C           2.5936  -20.1229  -44.2534 C.2       9 UNK         0.5000 
     26 O           3.6330  -20.4180  -44.8443 O.2       9 UNK        -0.5000 
     27 CA          2.2506  -18.6394  -44.0181 C.3       9 UNK         0.1400 
     28 CB          1.4398  -18.0865  -45.1981 C.3       9 UNK        -0.1800 
     29 N           1.5037  -18.4174  -42.7795 N.am      9 UNK        -0.5000 
     30 C           1.9989  -18.5941  -41.5460 C.2       8 UNK         0.5000 
     31 O           3.1773  -18.8624  -41.3097 O.2       8 UNK        -0.5000 
     32 CA          0.9947  -18.4944  -40.3850 C.3       8 UNK         0.1400 
     33 CB          0.7557  -17.0312  -39.9807 C.3       8 UNK        -0.1800 
     34 N          -0.2799  -19.1289  -40.7251 N.am      8 UNK        -0.5000 
     35 C          -0.4807  -20.4548  -40.7519 C.2       7 UNK         0.5000 
     36 O           0.3725  -21.2821  -40.4319 O.2       7 UNK        -0.5000 
     37 CA         -1.8609  -20.9450  -41.2295 C.3       7 UNK         0.1400 
     38 CB         -2.8073  -21.1374  -40.0354 C.3       7 UNK        -0.1800 
     39 N          -2.4867  -20.0395  -42.1941 N.am      7 UNK        -0.5000 
     40 C          -2.0876  -19.8895  -43.4639 C.2       6 UNK         0.5000 
     41 O          -1.1653  -20.5260  -43.9744 O.2       6 UNK        -0.5000 
     42 CA         -2.8139  -18.8093  -44.2864 C.3       6 UNK         0.1400 
     43 CB         -4.0669  -19.3860  -44.9614 C.3       6 UNK        -0.1800 
     44 N          -3.1615  -17.6125  -43.5145 N.am      6 UNK        -0.5000 
     45 C          -2.2554  -16.8108  -42.9395 C.2       5 UNK         0.5000 
     46 O          -1.0433  -17.0419  -42.9503 O.2       5 UNK        -0.5000 
     47 CA         -2.7941  -15.5841  -42.1816 C.3       5 UNK         0.1400 
     48 CB         -3.2236  -15.9880  -40.7624 C.3       5 UNK        -0.1800 
     49 N          -1.7792  -14.5349  -42.0835 N.am      5 UNK        -0.5000 
     50 C          -1.3718  -13.7759  -43.1073 C.2       4 UNK         0.5000 
     51 O          -1.9015  -13.7789  -44.2218 O.2       4 UNK        -0.5000 
     52 CA         -0.1512  -12.8838  -42.8399 C.3       4 UNK         0.1400 
     53 CB          1.1376  -13.7250  -42.7949 C.3       4 UNK        -0.1800 
     54 N          -0.0249  -11.8960  -43.9070 N.am      4 UNK        -0.5000 
     55 C           0.2560  -10.5993  -43.7440 C.2       3 UNK         0.5000 
     56 O           0.4227  -10.0671  -42.6444 O.2       3 UNK        -0.5000 
     57 CA          0.3968   -9.7779  -45.0452 C.3       3 UNK         0.1400 
     58 CB          0.8803   -8.3332  -44.7996 C.3       3 UNK        -0.1800 
     59 N           1.2468  -10.4410  -46.0447 N.am      3 UNK        -0.5000 
     60 C           2.5212  -10.8358  -45.8971 C.2       2 UNK         0.5000 
     61 O           3.1724  -10.6774  -44.8630 O.2       2 UNK        -0.5000 
     62 CA          3.1659  -11.5389  -47.1115 C.3       2 UNK         0.1400 
     63 CB          4.5504  -12.1311  -46.7892 C.3       2 UNK        -0.1800 
     64 N           2.3222  -12.6084  -47.6504 N.am      2 UNK        -0.5000 
     65 C           1.3238  -12.4460  -48.5287 C.2       1 UNK         0.5000 
     66 O           0.9396  -11.3425  -48.9180 O.2       1 UNK        -0.5000 
     67 C           0.9312  -22.6227  -48.2273 C.2       11 UNK         0.5000 
     68 O           0.4307  -23.4316  -49.0071 O.2       11 UNK        -0.5000 
     69 N           0.2904  -21.5274  -47.7952 N.am      12 UNK        -0.5000 
     70 CA         -1.0813  -21.1764  -48.1618 C.3       12 UNK         0.1400 
     71 CB         -1.3792  -19.7592  -47.6657 C.3       12 UNK        -0.1800 
     72 C          -2.1239  -22.1702  -47.6165 C.2       12 UNK         0.5000 
     73 O          -3.0621  -22.5158  -48.3344 O.2       12 UNK        -0.5000 
     74 N          -1.9287  -22.6337  -46.3733 N.am      13 UNK        -0.5000 
     75 CA         -2.7532  -23.6702  -45.7500 C.3       13 UNK         0.1400 
     76 CB         -2.4764  -23.7307  -44.2407 C.3       13 UNK        -0.1800 
     77 C          -2.5555  -25.0470  -46.4091 C.2       13 UNK         0.5000 
     78 O          -3.5364  -25.7591  -46.6199 O.2       13 UNK        -0.5000 
     79 N          -1.3080  -25.3778  -46.7736 N.am      14 UNK        -0.5000 
     80 CA         -0.9505  -26.5837  -47.5272 C.3       14 UNK         0.1400 
     81 CB          0.5777  -26.7304  -47.5694 C.3       14 UNK        -0.1800 
     82 C          -1.5435  -26.5988  -48.9509 C.2       14 UNK         0.5000 
     83 O          -1.9380  -27.6604  -49.4338 O.2       14 UNK        -0.5000 
     84 N          -1.6407  -25.4163  -49.5750 N.am      15 UNK        -0.5000 
     85 CA         -2.3079  -25.1841  -50.8588 C.3       15 UNK         0.1400 
     86 CB         -1.8291  -23.8399  -51.4313 C.3       15 UNK        -0.1800 
     87 C          -3.8507  -25.2289  -50.7723 C.2       15 UNK         0.5000 
     88 O          -4.5096  -25.2098  -51.8126 O.2       15 UNK        -0.5000 
     89 N          -4.3985  -25.2854  -49.5488 N.am      16 UNK        -0.5000 
     90 CA         -5.8047  -25.4190  -49.1522 C.3       16 UNK         0.1400 
     91 CB         -6.4316  -26.7089  -49.7149 C.3       16 UNK        -0.1800 
     92 C          -6.6755  -24.1889  -49.4589 C.2       16 UNK         0.5000 
     93 O          -7.3316  -23.6733  -48.5534 O.2       16 UNK        -0.5000 
     94 N          -6.6694  -23.7378  -50.7175 N.am      17 UNK        -0.5000 
     95 CA         -7.4512  -22.5971  -51.2001 C.3       17 UNK         0.1400 
     96 CB         -7.8628  -22.8574  -52.6577 C.3       17 UNK        -0.1800 
     97 C          -6.7025  -21.2562  -51.0599 C.2       17 UNK         0.5000 
     98 O          -7.2615  -20.2192  -51.4217 O.2       17 UNK        -0.5000 
     99 N          -5.4608  -21.2932  -50.5496 N.am      18 UNK        -0.5000 
    100 CA        -4.5618  -20.1601  -50.3238 C.3       18 UNK         0.1400 
    101 CB        -5.0493  -19.3174  -49.1238 C.3       18 UNK        -0.1800 
    102 C         -4.3282  -19.3572  -51.6175 C.2       18 UNK         0.5000 
    103 O         -3.8380  -19.9318  -52.5912 O.2       18 UNK        -0.5000 
    104 N         -4.6931  -18.0681  -51.6219 N.am      19 UNK        -0.5000 
    105 CA        -4.5331  -17.1362  -52.7414 C.3       19 UNK         0.1400 
    106 CB        -5.0694  -15.7587  -52.3253 C.3       19 UNK        -0.1800 
    107 C         -5.1941  -17.5980  -54.0543 C.2       19 UNK         0.5000 
    108 O         -4.6827  -17.2855  -55.1293 O.2       19 UNK        -0.5000 
    109 N         -6.2906  -18.3619  -53.9534 N.am      20 UNK        -0.5000 
    110 CA        -6.9821  -18.9497  -55.1008 C.3       20 UNK         0.1400 
    111 CB        -8.3994  -19.3618  -54.6788 C.3       20 UNK        -0.1800 
    112 C         -6.2230  -20.1355  -55.7316 C.2       20 UNK         0.5000 
    113 O         -6.4878  -20.4587  -56.8903 O.2       20 UNK        -0.5000 
    114 N         -5.2994  -20.7557  -54.9825 N.am      21 UNK        -0.5000 
    115 CA        -4.4262  -21.8200  -55.4710 C.3       21 UNK         0.1400 
    116 CB        -4.1700  -22.8511  -54.3599 C.3       21 UNK        -0.1800 
    117 C         -3.1054  -21.2498  -56.0105 C.2       21 UNK         0.5000 
    118 O         -2.7279  -21.5815  -57.1353 O.2       21 UNK        -0.5000 
    119 N         -2.4210  -20.4180  -55.2108 N.am      22 UNK        -0.5000 
    120 CA        -1.1165  -19.8351  -55.5789 C.3       22 UNK         0.1400 
    121 C         -1.1782  -18.6184  -56.5481 C.2       22 UNK         0.5000 
    122 N         -2.3111  -17.9504  -56.7231 N.am      22 UNK        -0.7600 
    123 O         -0.1759  -18.2862  -57.1756 O.2       22 UNK        -0.5000 
    124 C124       -0.2086  -19.5635  -54.3516 C.3       23 UNK        -0.0398 
    125 S125       -0.9104  -18.3877  -53.1448 S.3       23 UNK        -0.2404 
    126 C126       -0.7772  -19.3268  -51.5926 C.3       23 UNK        -0.0205 
    127 H127       -1.1406  -17.0771  -46.6580 H         1 UNK         0.0600 
    128 H128       -0.6337  -15.6756  -45.7169 H         1 UNK         0.0600 
    129 H129       -2.3071  -15.8112  -46.2622 H         1 UNK         0.0600 
    130 H130        0.5965  -14.2774  -46.9597 H         1 UNK         0.3000 
    131 H131       -0.2902  -13.3592  -49.5254 H         1 UNK         0.0600 
    132 H132        1.6550  -13.9624  -50.8733 H         1 UNK         0.0800 
    133 H133        0.7677  -15.3648  -50.4123 H         1 UNK         0.0800 
    134 H134        3.2414  -17.1627  -47.9064 H         1 UNK         0.0800 
    135 H135        1.5754  -16.6856  -47.9589 H         1 UNK         0.0800 
    136 H136        0.1153  -17.4191  -49.9025 H         1 UNK         0.1150 
    137 H137        1.3833  -20.9885  -51.9015 H         1 UNK         0.1150 
    138 H138        4.1281  -18.8346  -49.4094 H         1 UNK         0.1150 
    139 H139        4.0255  -21.2215  -52.0391 H         1 UNK         0.0800 
    140 H140        4.9215  -20.7135  -50.6309 H         1 UNK         0.0800 
    141 H141        3.4091  -21.1360  -48.2801 H         1 UNK         0.0800 
    142 H142        4.4352  -22.4902  -47.9346 H         1 UNK         0.0800 
    143 H143        2.4889  -23.9805  -47.6858 H         1 UNK         0.0600 
    144 H144        2.9934  -21.7855  -45.9328 H         1 UNK         0.3000 
    145 H145        0.8710  -22.8124  -43.2733 H         1 UNK         0.0600 
    146 H146        3.0229  -22.6346  -42.0551 H         1 UNK         0.0600 
    147 H147        2.9523  -24.1131  -43.0025 H         1 UNK         0.0600 
    148 H148        3.9190  -22.7596  -43.5687 H         1 UNK         0.0600 
    149 H149        0.8318  -20.6471  -43.4465 H         1 UNK         0.3000 
    150 H150        3.1914  -18.0884  -43.9575 H         1 UNK         0.0600 
    151 H151        1.9214  -18.3198  -46.1474 H         1 UNK         0.0600 
    152 H152        1.3460  -17.0027  -45.1325 H         1 UNK         0.0600 
    153 H153        0.4360  -18.5090  -45.2262 H         1 UNK         0.0600 
    154 H154        0.5380  -18.1148  -42.8753 H         1 UNK         0.3000 
    155 H155        1.4240  -19.0134  -39.5252 H         1 UNK         0.0600 
    156 H156        0.3249  -16.4493  -40.7943 H         1 UNK         0.0600 
    157 H157        1.6916  -16.5494  -39.6952 H         1 UNK         0.0600 
    158 H158        0.0817  -16.9638  -39.1267 H         1 UNK         0.0600 
    159 H159       -1.0140  -18.5205  -41.0552 H         1 UNK         0.3000 
    160 H160       -1.7162  -21.9152  -41.7092 H         1 UNK         0.0600 
    161 H161       -3.7631  -21.5542  -40.3535 H         1 UNK         0.0600 
    162 H162       -3.0048  -20.1959  -39.5213 H         1 UNK         0.0600 
    163 H163       -2.3803  -21.8269  -39.3059 H         1 UNK         0.0600 
    164 H164       -3.2553  -19.4769  -41.8605 H         1 UNK         0.3000 
    165 H165       -2.1289  -18.4829  -45.0658 H         1 UNK         0.0600 
    166 H166       -4.5155  -18.6628  -45.6428 H         1 UNK         0.0600 
    167 H167       -3.8230  -20.2732  -45.5476 H         1 UNK         0.0600 
    168 H168       -4.8226  -19.6742  -44.2299 H         1 UNK         0.0600 
    169 H169       -4.1419  -17.3772  -43.4555 H         1 UNK         0.3000 
    170 H170       -3.6595  -15.1896  -42.7182 H         1 UNK         0.0600 
    171 H171       -4.0054  -16.7481  -40.7883 H         1 UNK         0.0600 
    172 H172       -2.3903  -16.3938  -40.1872 H         1 UNK         0.0600 
    173 H173       -3.6233  -15.1344  -40.2146 H         1 UNK         0.0600 
    174 H174       -1.2723  -14.4881  -41.2124 H         1 UNK         0.3000 
    175 H175       -0.2985  -12.3901  -41.8771 H         1 UNK         0.0600 
    176 H176        1.2880  -14.2805  -43.7218 H         1 UNK         0.0600 
    177 H177        2.0133  -13.0949  -42.6380 H         1 UNK         0.0600 
    178 H178        1.1102  -14.4492  -41.9806 H         1 UNK         0.0600 
    179 H179       -0.2352  -12.2416  -44.8329 H         1 UNK         0.3000 
    180 H180       -0.6026   -9.7196  -45.4786 H         1 UNK         0.0600 
    181 H181        1.8660   -8.3085  -44.3339 H         1 UNK         0.0600 
    182 H182        0.1943   -7.7979  -44.1422 H         1 UNK         0.0600 
    183 H183        0.9369   -7.7729  -45.7329 H         1 UNK         0.0600 
    184 H184        0.8183  -10.6140  -46.9473 H         1 UNK         0.3000 
    185 H185        3.3073  -10.7762  -47.8803 H         1 UNK         0.0600 
    186 H186        4.4916  -12.8909  -46.0088 H         1 UNK         0.0600 
    187 H187        4.9971  -12.5908  -47.6712 H         1 UNK         0.0600 
    188 H188        5.2390  -11.3578  -46.4462 H         1 UNK         0.0600 
    189 H189        2.5945  -13.5479  -47.4002 H         1 UNK         0.3000 
    190 H190        0.7594  -20.9206  -47.1407 H         1 UNK         0.3000 
    191 H191       -1.1562  -21.1845  -49.2508 H         1 UNK         0.0600 
    192 H192       -1.1589  -19.6762  -46.6050 H         1 UNK         0.0600 
    193 H193       -2.4246  -19.4902  -47.8144 H         1 UNK         0.0600 
    194 H194       -0.7743  -19.0201  -48.1859 H         1 UNK         0.0600 
    195 H195       -1.1441  -22.2927  -45.8366 H         1 UNK         0.3000 
    196 H196       -3.8012  -23.3927  -45.8839 H         1 UNK         0.0600 
    197 H197       -1.4228  -23.9055  -44.0245 H         1 UNK         0.0600 
    198 H198       -3.0455  -24.5337  -43.7707 H         1 UNK         0.0600 
    199 H199       -2.7717  -22.8026  -43.7539 H         1 UNK         0.0600 
    200 H200       -0.5432  -24.7674  -46.4985 H         1 UNK         0.3000 
    201 H201       -1.3582  -27.4425  -46.9900 H         1 UNK         0.0600 
    202 H202        1.0011  -26.7504  -46.5650 H         1 UNK         0.0600 
    203 H203        1.0463  -25.9116  -48.1145 H         1 UNK         0.0600 
    204 H204        0.8658  -27.6590  -48.0637 H         1 UNK         0.0600 
    205 H205       -1.2037  -24.6079  -49.1441 H         1 UNK         0.3000 
    206 H206       -1.9999  -25.9730  -51.5478 H         1 UNK         0.0600 
    207 H207       -0.7408  -23.7911  -51.4732 H         1 UNK         0.0600 
    208 H208       -2.1912  -23.7016  -52.4486 H         1 UNK         0.0600 
    209 H209       -2.1802  -22.9959  -50.8377 H         1 UNK         0.0600 
    210 H210       -3.7571  -25.2566  -48.7663 H         1 UNK         0.3000 
    211 H211       -5.7904  -25.5205  -48.0662 H         1 UNK         0.0600 
    212 H212       -6.4973  -26.6943  -50.8031 H         1 UNK         0.0600 
    213 H213       -7.4429  -26.8479  -49.3310 H         1 UNK         0.0600 
    214 H214       -5.8511  -27.5852  -49.4261 H         1 UNK         0.0600 
    215 H215       -6.0635  -24.2096  -51.3847 H         1 UNK         0.3000 
    216 H216       -8.3663  -22.5183  -50.6097 H         1 UNK         0.0600 
    217 H217       -8.6552  -22.1739  -52.9607 H         1 UNK         0.0600 
    218 H218       -8.2485  -23.8685  -52.7901 H         1 UNK         0.0600 
    219 H219       -7.0313  -22.7197  -53.3466 H         1 UNK         0.0600 
    220 H220       -5.0909  -22.1972  -50.2929 H         1 UNK         0.3000 
    221 H221       -3.5909  -20.5798  -50.0621 H         1 UNK         0.0600 
    222 H222       -6.0416  -18.8971  -49.2908 H         1 UNK         0.0600 
    223 H223       -5.0999  -19.9278  -48.2218 H         1 UNK         0.0600 
    224 H224       -4.3674  -18.4929  -48.9118 H         1 UNK         0.0600 
    225 H225       -5.1145  -17.6906  -50.7861 H         1 UNK         0.3000 
    226 H226       -3.4649  -17.0360  -52.9353 H         1 UNK         0.0600 
    227 H227       -4.5353  -15.3735  -51.4564 H         1 UNK         0.0600 
    228 H228       -4.9451  -15.0318  -53.1292 H         1 UNK         0.0600 
    229 H229       -6.1312  -15.7982  -52.0789 H         1 UNK         0.0600 
    230 H230       -6.6308  -18.6167  -53.0343 H         1 UNK         0.3000 
    231 H231       -7.0767  -18.1831  -55.8730 H         1 UNK         0.0600 
    232 H232       -8.9724  -18.5019  -54.3317 H         1 UNK         0.0600 
    233 H233       -8.3798  -20.0953  -53.8752 H         1 UNK         0.0600 
    234 H234       -8.9466  -19.8016  -55.5136 H         1 UNK         0.0600 
    235 H235       -5.0870  -20.3931  -54.0593 H         1 UNK         0.3000 
    236 H236       -4.9118  -22.3505  -56.2931 H         1 UNK         0.0600 
    237 H237       -3.3901  -23.5560  -54.6508 H         1 UNK         0.0600 
    238 H238       -3.8587  -22.3815  -53.4280 H         1 UNK         0.0600 
    239 H239       -5.0616  -23.4406  -54.1544 H         1 UNK         0.0600 
    240 H240       -2.7925  -20.1744  -54.2977 H         1 UNK         0.3000 
    241 H241       -0.5869  -20.6006  -56.1501 H         1 UNK         0.0600 
    242 H242       -2.3247  -17.1733  -57.3636 H         1 UNK         0.3800 
    243 H243       -3.1327  -18.1366  -56.1611 H         1 UNK         0.3800 
    244 H244       -0.0007  -20.5116  -53.8559 H         1 UNK         0.0800 
    245 H245        0.7649  -19.1859  -54.6690 H         1 UNK         0.0800 
    246 H246       -1.5103  -18.9335  -50.8878 H         1 UNK         0.0800 
    247 H247       -1.0426  -20.3729  -51.7535 H         1 UNK         0.0800 
@<TRIPOS>BOND
     1    1    2 1    
     2    1  127 1    
     3    1  128 1    
     4    1  129 1    
     5    2    3 2    
     6    2    4 am   BACKBONE|DICT|INTERRES
     7    4    5 1    
     8    4  130 1    
     9    5    6 1    
    10    5   65 1    
    11    5  131 1    
    12    6    7 1    
    13    6  132 1    
    14    6  133 1    
    15    7    8 1    
    16    8    9 1    
    17    8  134 1    
    18    8  135 1    
    19    9   10 ar   
    20    9   14 ar   
    21   10   11 ar   
    22   10  136 1    
    23   11   12 ar   
    24   11  126 1    
    25   12   13 ar   
    26   12  137 1    
    27   13   14 ar   
    28   13   15 1    
    29   14  138 1    
    30   15   16 1    
    31   15  139 1    
    32   15  140 1    
    33   16   17 1    
    34   17   18 1    
    35   17  141 1    
    36   17  142 1    
    37   18   19 1    
    38   18   67 1    
    39   18  143 1    
    40   19   20 am   BACKBONE|DICT|INTERRES
    41   19  144 1    
    42   20   21 2    
    43   20   22 1    
    44   22   23 1    
    45   22   24 1    
    46   22  145 1    
    47   23  146 1    
    48   23  147 1    
    49   23  148 1    
    50   24   25 am   BACKBONE|DICT|INTERRES
    51   24  149 1    
    52   25   26 2    
    53   25   27 1    
    54   27   28 1    
    55   27   29 1    
    56   27  150 1    
    57   28  151 1    
    58   28  152 1    
    59   28  153 1    
    60   29   30 am   BACKBONE|DICT|INTERRES
    61   29  154 1    
    62   30   31 2    
    63   30   32 1    
    64   32   33 1    
    65   32   34 1    
    66   32  155 1    
    67   33  156 1    
    68   33  157 1    
    69   33  158 1    
    70   34   35 am   BACKBONE|DICT|INTERRES
    71   34  159 1    
    72   35   36 2    
    73   35   37 1    
    74   37   38 1    
    75   37   39 1    
    76   37  160 1    
    77   38  161 1    
    78   38  162 1    
    79   38  163 1    
    80   39   40 am   BACKBONE|DICT|INTERRES
    81   39  164 1    
    82   40   41 2    
    83   40   42 1    
    84   42   43 1    
    85   42   44 1    
    86   42  165 1    
    87   43  166 1    
    88   43  167 1    
    89   43  168 1    
    90   44   45 am   BACKBONE|DICT|INTERRES
    91   44  169 1    
    92   45   46 2    
    93   45   47 1    
    94   47   48 1    
    95   47   49 1    
    96   47  170 1    
    97   48  171 1    
    98   48  172 1    
    99   48  173 1    
   100   49   50 am   BACKBONE|DICT|INTERRES
   101   49  174 1    
   102   50   51 2    
   103   50   52 1    
   104   52   53 1    
   105   52   54 1    
   106   52  175 1    
   107   53  176 1    
   108   53  177 1    
   109   53  178 1    
   110   54   55 am   BACKBONE|DICT|INTERRES
   111   54  179 1    
   112   55   56 2    
   113   55   57 1    
   114   57   58 1    
   115   57   59 1    
   116   57  180 1    
   117   58  181 1    
   118   58  182 1    
   119   58  183 1    
   120   59   60 am   BACKBONE|DICT|INTERRES
   121   59  184 1    
   122   60   61 2    
   123   60   62 1    
   124   62   63 1    
   125   62   64 1    
   126   62  185 1    
   127   63  186 1    
   128   63  187 1    
   129   63  188 1    
   130   64   65 am   BACKBONE|DICT|INTERRES
   131   64  189 1    
   132   65   66 2    
   133   67   68 2    
   134   67   69 am   BACKBONE|DICT|INTERRES
   135   69   70 1    
   136   69  190 1    
   137   70   71 1    
   138   70   72 1    
   139   70  191 1    
   140   71  192 1    
   141   71  193 1    
   142   71  194 1    
   143   72   73 2    
   144   72   74 am   BACKBONE|DICT|INTERRES
   145   74   75 1    
   146   74  195 1    
   147   75   76 1    
   148   75   77 1    
   149   75  196 1    
   150   76  197 1    
   151   76  198 1    
   152   76  199 1    
   153   77   78 2    
   154   77   79 am   BACKBONE|DICT|INTERRES
   155   79   80 1    
   156   79  200 1    
   157   80   81 1    
   158   80   82 1    
   159   80  201 1    
   160   81  202 1    
   161   81  203 1    
   162   81  204 1    
   163   82   83 2    
   164   82   84 am   BACKBONE|DICT|INTERRES
   165   84   85 1    
   166   84  205 1    
   167   85   86 1    
   168   85   87 1    
   169   85  206 1    
   170   86  207 1    
   171   86  208 1    
   172   86  209 1    
   173   87   88 2    
   174   87   89 am   BACKBONE|DICT|INTERRES
   175   89   90 1    
   176   89  210 1    
   177   90   91 1    
   178   90   92 1    
   179   90  211 1    
   180   91  212 1    
   181   91  213 1    
   182   91  214 1    
   183   92   93 2    
   184   92   94 am   BACKBONE|DICT|INTERRES
   185   94   95 1    
   186   94  215 1    
   187   95   96 1    
   188   95   97 1    
   189   95  216 1    
   190   96  217 1    
   191   96  218 1    
   192   96  219 1    
   193   97   98 2    
   194   97   99 am   BACKBONE|DICT|INTERRES
   195   99  100 1    
   196   99  220 1    
   197  100  101 1    
   198  100  102 1    
   199  100  221 1    
   200  101  222 1    
   201  101  223 1    
   202  101  224 1    
   203  102  103 2    
   204  102  104 am   BACKBONE|DICT|INTERRES
   205  104  105 1    
   206  104  225 1    
   207  105  106 1    
   208  105  107 1    
   209  105  226 1    
   210  106  227 1    
   211  106  228 1    
   212  106  229 1    
   213  107  108 2    
   214  107  109 am   BACKBONE|DICT|INTERRES
   215  109  110 1    
   216  109  230 1    
   217  110  111 1    
   218  110  112 1    
   219  110  231 1    
   220  111  232 1    
   221  111  233 1    
   222  111  234 1    
   223  112  113 2    
   224  112  114 am   BACKBONE|DICT|INTERRES
   225  114  115 1    
   226  114  235 1    
   227  115  116 1    
   228  115  117 1    
   229  115  236 1    
   230  116  237 1    
   231  116  238 1    
   232  116  239 1    
   233  117  118 2    
   234  117  119 am   BACKBONE|DICT|INTERRES
   235  119  120 1    
   236  119  240 1    
   237  120  121 1    
   238  120  124 1    
   239  120  241 1    
   240  121  122 am   BACKBONE|DICT|INTERRES
   241  121  123 2    
   242  122  242 1    
   243  122  243 1    
   244  124  125 1    
   245  124  244 1    
   246  124  245 1    
   247  125  126 1    
   248  126  246 1    
   249  126  247 1    
@<TRIPOS>SUBSTRUCTURE
     1 UNK         1 GROUP             0       ****    0 ROOT    
