@<TRIPOS>MOLECULE
3R540
247   249    1
SMALL
USER_CHARGES


@<TRIPOS>ATOM
      1 CA          8.1769  -11.3279  -50.9322 C.3       0 UNK        -0.1800 
      2 C           7.6452  -11.5747  -49.5272 C.2       0 UNK         0.5000 
      3 O           8.4216  -11.5956  -48.5717 O.2       0 UNK        -0.5000 
      4 N           6.3291  -11.7574  -49.3976 N.am      1 UNK        -0.5000 
      5 CA          5.6225  -12.0074  -48.1431 C.3       1 UNK         0.1400 
      6 C6          5.8010  -13.4604  -47.6218 C.3       23 UNK        -0.0398 
      7 S7          5.3233  -14.7594  -48.8188 S.3       23 UNK        -0.2404 
      8 C8          3.9105  -15.5134  -47.9629 C.3       23 UNK        -0.0205 
      9 C9          3.1154  -16.4128  -48.8925 C.ar      23 UNK        -0.0193 
     10 C10         1.9485  -15.9350  -49.4941 C.ar      23 UNK        -0.1150 
     11 C11         1.1859  -16.7649  -50.3184 C.ar      23 UNK        -0.0193 
     12 C12         1.6140  -18.0722  -50.5660 C.ar      23 UNK        -0.1150 
     13 C13         2.7890  -18.5567  -49.9836 C.ar      23 UNK        -0.0193 
     14 C14         3.5313  -17.7247  -49.1394 C.ar      23 UNK        -0.1150 
     15 C15         3.2702  -19.9687  -50.2857 C.3       23 UNK        -0.0205 
     16 S16         2.8789  -21.1365  -48.9462 S.3       23 UNK        -0.2404 
     17 C17         1.0655  -21.2446  -49.0845 C.3       23 UNK        -0.0398 
     18 CA          0.4740  -22.3810  -48.2194 C.3       11 UNK         0.1400 
     19 N           0.6672  -22.1675  -46.7796 N.am      11 UNK        -0.5000 
     20 C           0.4327  -23.0964  -45.8418 C.2       10 UNK         0.5000 
     21 O           0.0845  -24.2474  -46.1023 O.2       10 UNK        -0.5000 
     22 CA          0.5517  -22.6645  -44.3675 C.3       10 UNK         0.1400 
     23 CB          2.0112  -22.7022  -43.8912 C.3       10 UNK        -0.1800 
     24 N          -0.0248  -21.3423  -44.1198 N.am      10 UNK        -0.5000 
     25 C          -1.3285  -21.0534  -44.2447 C.2       9 UNK         0.5000 
     26 O          -2.1870  -21.8918  -44.5152 O.2       9 UNK        -0.5000 
     27 CA         -1.7393  -19.5754  -44.1036 C.3       9 UNK         0.1400 
     28 CB         -1.9206  -19.1879  -42.6291 C.3       9 UNK        -0.1800 
     29 N          -0.7881  -18.6661  -44.7418 N.am      9 UNK        -0.5000 
     30 C          -0.5059  -18.6625  -46.0525 C.2       8 UNK         0.5000 
     31 O          -1.0663  -19.3841  -46.8757 O.2       8 UNK        -0.5000 
     32 CA          0.6369  -17.7424  -46.5069 C.3       8 UNK         0.1400 
     33 CB          0.1321  -16.3069  -46.6845 C.3       8 UNK        -0.1800 
     34 N           1.7600  -17.7607  -45.5691 N.am      8 UNK        -0.5000 
     35 C           2.5420  -18.8290  -45.3599 C.2       7 UNK         0.5000 
     36 O           2.4054  -19.8967  -45.9519 O.2       7 UNK        -0.5000 
     37 CA          3.6145  -18.7054  -44.2623 C.3       7 UNK         0.1400 
     38 CB          4.8643  -17.9869  -44.7919 C.3       7 UNK        -0.1800 
     39 N           3.1191  -18.0057  -43.0776 N.am      7 UNK        -0.5000 
     40 C           2.1518  -18.4664  -42.2716 C.2       6 UNK         0.5000 
     41 O           1.6335  -19.5758  -42.3929 O.2       6 UNK        -0.5000 
     42 CA          1.6415  -17.4982  -41.1856 C.3       6 UNK         0.1400 
     43 CB          2.4569  -17.6563  -39.8940 C.3       6 UNK        -0.1800 
     44 N           1.6715  -16.0946  -41.6130 N.am      6 UNK        -0.5000 
     45 C           0.9600  -15.6013  -42.6358 C.2       5 UNK         0.5000 
     46 O           0.1746  -16.2785  -43.3022 O.2       5 UNK        -0.5000 
     47 CA          1.2484  -14.1375  -43.0202 C.3       5 UNK         0.1400 
     48 CB          2.5616  -14.0552  -43.8169 C.3       5 UNK        -0.1800 
     49 N           0.1763  -13.5294  -43.8125 N.am      5 UNK        -0.5000 
     50 C          -1.0436  -13.2308  -43.3380 C.2       4 UNK         0.5000 
     51 O          -1.3815  -13.4407  -42.1717 O.2       4 UNK        -0.5000 
     52 CA         -2.0510  -12.5488  -44.2896 C.3       4 UNK         0.1400 
     53 CB         -2.4215  -11.1498  -43.7684 C.3       4 UNK        -0.1800 
     54 N          -1.5436  -12.4054  -45.6539 N.am      4 UNK        -0.5000 
     55 C          -1.7523  -13.2683  -46.6563 C.2       3 UNK         0.5000 
     56 O          -2.4726  -14.2613  -46.5589 O.2       3 UNK        -0.5000 
     57 CA         -1.0355  -12.9800  -47.9956 C.3       3 UNK         0.1400 
     58 CB         -2.0468  -12.6012  -49.0887 C.3       3 UNK        -0.1800 
     59 N          -0.0061  -11.9356  -47.9156 N.am      3 UNK        -0.5000 
     60 C           1.1559  -12.0645  -47.2637 C.2       2 UNK         0.5000 
     61 O           1.4712  -13.0740  -46.6341 O.2       2 UNK        -0.5000 
     62 CA          2.0737  -10.8328  -47.2315 C.3       2 UNK         0.1400 
     63 CB          1.7967  -10.0072  -45.9651 C.3       2 UNK        -0.1800 
     64 N           3.4827  -11.2236  -47.2413 N.am      2 UNK        -0.5000 
     65 C           4.1480  -11.6079  -48.3368 C.2       1 UNK         0.5000 
     66 O           3.6498  -11.6296  -49.4668 O.2       1 UNK        -0.5000 
     67 C          -1.0090  -22.6284  -48.5723 C.2       11 UNK         0.5000 
     68 O          -1.2968  -23.5223  -49.3675 O.2       11 UNK        -0.5000 
     69 N          -1.9277  -21.8760  -47.9506 N.am      12 UNK        -0.5000 
     70 CA         -3.3737  -22.0667  -48.0809 C.3       12 UNK         0.1400 
     71 CB         -4.1141  -20.8969  -47.4176 C.3       12 UNK        -0.1800 
     72 C          -3.8441  -23.4158  -47.5033 C.2       12 UNK         0.5000 
     73 O          -4.6802  -24.0791  -48.1154 O.2       12 UNK        -0.5000 
     74 N          -3.2714  -23.8267  -46.3626 N.am      13 UNK        -0.5000 
     75 CA         -3.5025  -25.1332  -45.7431 C.3       13 UNK         0.1400 
     76 CB         -2.8869  -25.1639  -44.3368 C.3       13 UNK        -0.1800 
     77 C          -2.9760  -26.2982  -46.6018 C.2       13 UNK         0.5000 
     78 O          -3.6550  -27.3187  -46.7121 O.2       13 UNK        -0.5000 
     79 N          -1.8124  -26.1142  -47.2430 N.am      14 UNK        -0.5000 
     80 CA         -1.2439  -27.0484  -48.2210 C.3       14 UNK         0.1400 
     81 CB          0.1938  -26.6304  -48.5631 C.3       14 UNK        -0.1800 
     82 C          -2.1024  -27.1745  -49.4969 C.2       14 UNK         0.5000 
     83 O          -2.1683  -28.2562  -50.0808 O.2       14 UNK        -0.5000 
     84 N          -2.7941  -26.0878  -49.8664 N.am      15 UNK        -0.5000 
     85 CA         -3.8196  -26.0363  -50.9116 C.3       15 UNK         0.1400 
     86 CB         -3.8949  -24.6016  -51.4661 C.3       15 UNK        -0.1800 
     87 C          -5.2053  -26.5291  -50.4300 C.2       15 UNK         0.5000 
     88 O          -6.1902  -26.3464  -51.1466 O.2       15 UNK        -0.5000 
     89 N          -5.2764  -27.1202  -49.2258 N.am      16 UNK        -0.5000 
     90 CA         -6.4559  -27.7006  -48.5711 C.3       16 UNK         0.1400 
     91 CB         -6.9520  -28.9344  -49.3536 C.3       16 UNK        -0.1800 
     92 C          -7.5825  -26.6828  -48.2950 C.2       16 UNK         0.5000 
     93 O          -8.7468  -27.0730  -48.1949 O.2       16 UNK        -0.5000 
     94 N          -7.2188  -25.3945  -48.2020 N.am      17 UNK        -0.5000 
     95 CA         -8.0894  -24.2217  -48.0792 C.3       17 UNK         0.1400 
     96 CB         -8.8492  -24.2348  -46.7370 C.3       17 UNK        -0.1800 
     97 C          -9.0218  -24.0008  -49.2921 C.2       17 UNK         0.5000 
     98 O          -9.9721  -23.2232  -49.1902 O.2       17 UNK        -0.5000 
     99 N          -8.7312  -24.6545  -50.4283 N.am      18 UNK        -0.5000 
    100 CA        -9.4606  -24.4915  -51.6886 C.3       18 UNK         0.1400 
    101 CB        -9.1936  -25.7088  -52.5868 C.3       18 UNK        -0.1800 
    102 C         -9.0826  -23.1874  -52.4166 C.2       18 UNK         0.5000 
    103 O         -9.8518  -22.7095  -53.2515 O.2       18 UNK        -0.5000 
    104 N         -7.9150  -22.6333  -52.0770 N.am      19 UNK        -0.5000 
    105 CA        -7.3938  -21.3579  -52.5393 C.3       19 UNK         0.1400 
    106 CB        -6.6262  -21.5608  -53.8578 C.3       19 UNK        -0.1800 
    107 C         -6.4759  -20.7956  -51.4457 C.2       19 UNK         0.5000 
    108 O         -6.0099  -21.5462  -50.5842 O.2       19 UNK        -0.5000 
    109 N         -6.2032  -19.4884  -51.5240 N.am      20 UNK        -0.5000 
    110 CA        -5.2771  -18.7758  -50.6379 C.3       20 UNK         0.1400 
    111 CB        -5.6417  -17.2819  -50.6505 C.3       20 UNK        -0.1800 
    112 C         -3.7944  -18.9700  -51.0216 C.2       20 UNK         0.5000 
    113 O         -2.9244  -18.4794  -50.3050 O.2       20 UNK        -0.5000 
    114 N         -3.5422  -19.6378  -52.1594 N.am      21 UNK        -0.5000 
    115 CA        -2.2438  -19.8955  -52.7989 C.3       21 UNK         0.1400 
    116 CB        -1.2919  -20.6552  -51.8535 C.3       21 UNK        -0.1800 
    117 C         -1.5893  -18.6453  -53.4301 C.2       21 UNK         0.5000 
    118 O         -0.4474  -18.7232  -53.8838 O.2       21 UNK        -0.5000 
    119 N         -2.3358  -17.5375  -53.4875 N.am      22 UNK        -0.5000 
    120 CA        -1.9983  -16.2711  -54.1462 C.3       22 UNK         0.1400 
    121 C         -3.2451  -15.7479  -54.9059 C.2       22 UNK         0.5000 
    122 N         -3.0536  -15.0261  -56.0012 N.am      22 UNK        -0.7600 
    123 O         -4.3850  -15.9649  -54.4973 O.2       22 UNK        -0.5000 
    124 C124       -1.4909  -15.2037  -53.1399 C.3       23 UNK        -0.0398 
    125 S125        0.2103  -15.5218  -52.5701 S.3       23 UNK        -0.2404 
    126 C126       -0.1017  -16.2516  -50.9371 C.3       23 UNK        -0.0205 
    127 H127        8.6754  -10.3598  -50.9806 H         1 UNK         0.0600 
    128 H128        7.3784  -11.3371  -51.6747 H         1 UNK         0.0600 
    129 H129        8.8991  -12.0989  -51.2006 H         1 UNK         0.0600 
    130 H130        5.7150  -11.7115  -50.2018 H         1 UNK         0.3000 
    131 H131        6.0334  -11.3269  -47.3939 H         1 UNK         0.0600 
    132 H132        5.2562  -13.5965  -46.6860 H         1 UNK         0.0800 
    133 H133        6.8486  -13.6238  -47.3667 H         1 UNK         0.0800 
    134 H134        4.2685  -16.0878  -47.1095 H         1 UNK         0.0800 
    135 H135        3.2666  -14.7306  -47.5615 H         1 UNK         0.0800 
    136 H136        1.6257  -14.9201  -49.3070 H         1 UNK         0.1150 
    137 H137        1.0349  -18.7077  -51.2210 H         1 UNK         0.1150 
    138 H138        4.4355  -18.0969  -48.6786 H         1 UNK         0.1150 
    139 H139        2.8428  -20.3300  -51.2224 H         1 UNK         0.0800 
    140 H140        4.3511  -19.9555  -50.4327 H         1 UNK         0.0800 
    141 H141        0.8332  -21.4141  -50.1363 H         1 UNK         0.0800 
    142 H142        0.6271  -20.2826  -48.8153 H         1 UNK         0.0800 
    143 H143        1.0084  -23.2978  -48.4780 H         1 UNK         0.0600 
    144 H144        1.0229  -21.2595  -46.4966 H         1 UNK         0.3000 
    145 H145       -0.0097  -23.3840  -43.7682 H         1 UNK         0.0600 
    146 H146        2.4329  -23.7006  -44.0127 H         1 UNK         0.0600 
    147 H147        2.6411  -22.0124  -44.4513 H         1 UNK         0.0600 
    148 H148        2.0879  -22.4423  -42.8353 H         1 UNK         0.0600 
    149 H149        0.6156  -20.6073  -43.8396 H         1 UNK         0.3000 
    150 H150       -2.7001  -19.4488  -44.6064 H         1 UNK         0.0600 
    151 H151       -2.2292  -18.1470  -42.5289 H         1 UNK         0.0600 
    152 H152       -1.0017  -19.3209  -42.0594 H         1 UNK         0.0600 
    153 H153       -2.6882  -19.8032  -42.1583 H         1 UNK         0.0600 
    154 H154       -0.3173  -17.9929  -44.1446 H         1 UNK         0.3000 
    155 H155        0.9982  -18.1019  -47.4723 H         1 UNK         0.0600 
    156 H156       -0.5867  -16.2552  -47.5028 H         1 UNK         0.0600 
    157 H157        0.9474  -15.6253  -46.9168 H         1 UNK         0.0600 
    158 H158       -0.3652  -15.9328  -45.7906 H         1 UNK         0.0600 
    159 H159        1.8793  -16.9434  -44.9912 H         1 UNK         0.3000 
    160 H160        3.9019  -19.7168  -43.9669 H         1 UNK         0.0600 
    161 H161        5.2110  -18.4350  -45.7243 H         1 UNK         0.0600 
    162 H162        5.6844  -18.0510  -44.0766 H         1 UNK         0.0600 
    163 H163        4.6719  -16.9311  -44.9820 H         1 UNK         0.0600 
    164 H164        3.4995  -17.0896  -42.8950 H         1 UNK         0.3000 
    165 H165        0.6040  -17.7605  -40.9692 H         1 UNK         0.0600 
    166 H166        2.0547  -17.0335  -39.0947 H         1 UNK         0.0600 
    167 H167        2.4338  -18.6888  -39.5424 H         1 UNK         0.0600 
    168 H168        3.5026  -17.3827  -40.0403 H         1 UNK         0.0600 
    169 H169        2.3010  -15.4847  -41.1111 H         1 UNK         0.3000 
    170 H170        1.3604  -13.5570  -42.1022 H         1 UNK         0.0600 
    171 H171        2.7875  -13.0270  -44.1002 H         1 UNK         0.0600 
    172 H172        3.4057  -14.4190  -43.2302 H         1 UNK         0.0600 
    173 H173        2.5168  -14.6500  -44.7302 H         1 UNK         0.0600 
    174 H174        0.3806  -13.3682  -44.7910 H         1 UNK         0.3000 
    175 H175       -2.9564  -13.1592  -44.2935 H         1 UNK         0.0600 
    176 H176       -1.5502  -10.4957  -43.7167 H         1 UNK         0.0600 
    177 H177       -3.1616  -10.6732  -44.4115 H         1 UNK         0.0600 
    178 H178       -2.8519  -11.2035  -42.7676 H         1 UNK         0.0600 
    179 H179       -0.9475  -11.6111  -45.8302 H         1 UNK         0.3000 
    180 H180       -0.5459  -13.9064  -48.3003 H         1 UNK         0.0600 
    181 H181       -2.8062  -13.3757  -49.2057 H         1 UNK         0.0600 
    182 H182       -1.5568  -12.4833  -50.0556 H         1 UNK         0.0600 
    183 H183       -2.5615  -11.6687  -48.8544 H         1 UNK         0.0600 
    184 H184       -0.2105  -11.0683  -48.3913 H         1 UNK         0.3000 
    185 H185        1.8695  -10.2105  -48.1057 H         1 UNK         0.0600 
    186 H186        1.9715  -10.5874  -45.0577 H         1 UNK         0.0600 
    187 H187        2.4324   -9.1225  -45.9245 H         1 UNK         0.0600 
    188 H188        0.7623   -9.6620  -45.9395 H         1 UNK         0.0600 
    189 H189        3.9414  -11.2573  -46.3429 H         1 UNK         0.3000 
    190 H190       -1.6169  -21.1052  -47.3633 H         1 UNK         0.3000 
    191 H191       -3.6147  -22.0562  -49.1459 H         1 UNK         0.0600 
    192 H192       -3.9437  -20.8680  -46.3416 H         1 UNK         0.0600 
    193 H193       -5.1897  -20.9780  -47.5803 H         1 UNK         0.0600 
    194 H194       -3.7911  -19.9417  -47.8319 H         1 UNK         0.0600 
    195 H195       -2.6461  -23.1935  -45.8723 H         1 UNK         0.3000 
    196 H196       -4.5819  -25.2630  -45.6395 H         1 UNK         0.0600 
    197 H197       -3.0857  -26.1170  -43.8453 H         1 UNK         0.0600 
    198 H198       -3.3055  -24.3793  -43.7063 H         1 UNK         0.0600 
    199 H199       -1.8061  -25.0293  -44.3649 H         1 UNK         0.0600 
    200 H200       -1.2718  -25.2776  -47.0419 H         1 UNK         0.3000 
    201 H201       -1.2050  -28.0341  -47.7529 H         1 UNK         0.0600 
    202 H202        0.8146  -26.5830  -47.6682 H         1 UNK         0.0600 
    203 H203        0.2281  -25.6544  -49.0457 H         1 UNK         0.0600 
    204 H204        0.6561  -27.3472  -49.2427 H         1 UNK         0.0600 
    205 H205       -2.6318  -25.2250  -49.3599 H         1 UNK         0.3000 
    206 H206       -3.5168  -26.6931  -51.7292 H         1 UNK         0.0600 
    207 H207       -4.5706  -24.5437  -52.3203 H         1 UNK         0.0600 
    208 H208       -4.2571  -23.8963  -50.7187 H         1 UNK         0.0600 
    209 H209       -2.9175  -24.2558  -51.8030 H         1 UNK         0.0600 
    210 H210       -4.4273  -27.1739  -48.6766 H         1 UNK         0.3000 
    211 H211       -6.1212  -28.0464  -47.5926 H         1 UNK         0.0600 
    212 H212       -7.3748  -28.6577  -50.3200 H         1 UNK         0.0600 
    213 H213       -7.7257  -29.4665  -48.7990 H         1 UNK         0.0600 
    214 H214       -6.1407  -29.6402  -49.5317 H         1 UNK         0.0600 
    215 H215       -6.2300  -25.1691  -48.2901 H         1 UNK         0.3000 
    216 H216       -7.4197  -23.3604  -48.0654 H         1 UNK         0.0600 
    217 H217       -9.3656  -23.2889  -46.5702 H         1 UNK         0.0600 
    218 H218       -8.1666  -24.3811  -45.8998 H         1 UNK         0.0600 
    219 H219       -9.5994  -25.0250  -46.7020 H         1 UNK         0.0600 
    220 H220       -7.9270  -25.2721  -50.4500 H         1 UNK         0.3000 
    221 H221      -10.5304  -24.4563  -51.4726 H         1 UNK         0.0600 
    222 H222       -8.1472  -25.7651  -52.8884 H         1 UNK         0.0600 
    223 H223       -9.4471  -26.6394  -52.0784 H         1 UNK         0.0600 
    224 H224       -9.7932  -25.6599  -53.4965 H         1 UNK         0.0600 
    225 H225       -7.3609  -23.0625  -51.3463 H         1 UNK         0.3000 
    226 H226       -8.2191  -20.6592  -52.6924 H         1 UNK         0.0600 
    227 H227       -7.2736  -21.9749  -54.6310 H         1 UNK         0.0600 
    228 H228       -6.2356  -20.6162  -54.2377 H         1 UNK         0.0600 
    229 H229       -5.7830  -22.2412  -53.7302 H         1 UNK         0.0600 
    230 H230       -6.6326  -18.9397  -52.2558 H         1 UNK         0.3000 
    231 H231       -5.4030  -19.1487  -49.6196 H         1 UNK         0.0600 
    232 H232       -5.5233  -16.8458  -51.6435 H         1 UNK         0.0600 
    233 H233       -6.6733  -17.1250  -50.3349 H         1 UNK         0.0600 
    234 H234       -5.0067  -16.7167  -49.9667 H         1 UNK         0.0600 
    235 H235       -4.3428  -19.9843  -52.6664 H         1 UNK         0.3000 
    236 H236       -2.4590  -20.5614  -53.6357 H         1 UNK         0.0600 
    237 H237       -0.9852  -20.0401  -51.0082 H         1 UNK         0.0600 
    238 H238       -1.7655  -21.5547  -51.4598 H         1 UNK         0.0600 
    239 H239       -0.3867  -20.9675  -52.3752 H         1 UNK         0.0600 
    240 H240       -3.2839  -17.5826  -53.1424 H         1 UNK         0.3000 
    241 H241       -1.2229  -16.4543  -54.8930 H         1 UNK         0.0600 
    242 H242       -3.8558  -14.6710  -56.4986 H         1 UNK         0.3800 
    243 H243       -2.1289  -14.8291  -56.3530 H         1 UNK         0.3800 
    244 H244       -1.4775  -14.2159  -53.6041 H         1 UNK         0.0800 
    245 H245       -2.1657  -15.1227  -52.2858 H         1 UNK         0.0800 
    246 H246       -0.8149  -17.0702  -51.0292 H         1 UNK         0.0800 
    247 H247       -0.5667  -15.5095  -50.2867 H         1 UNK         0.0800 
@<TRIPOS>BOND
     1    1    2 1    
     2    1  127 1    
     3    1  128 1    
     4    1  129 1    
     5    2    3 2    
     6    2    4 am   BACKBONE|DICT|INTERRES
     7    4    5 1    
     8    4  130 1    
     9    5    6 1    
    10    5   65 1    
    11    5  131 1    
    12    6    7 1    
    13    6  132 1    
    14    6  133 1    
    15    7    8 1    
    16    8    9 1    
    17    8  134 1    
    18    8  135 1    
    19    9   10 ar   
    20    9   14 ar   
    21   10   11 ar   
    22   10  136 1    
    23   11   12 ar   
    24   11  126 1    
    25   12   13 ar   
    26   12  137 1    
    27   13   14 ar   
    28   13   15 1    
    29   14  138 1    
    30   15   16 1    
    31   15  139 1    
    32   15  140 1    
    33   16   17 1    
    34   17   18 1    
    35   17  141 1    
    36   17  142 1    
    37   18   19 1    
    38   18   67 1    
    39   18  143 1    
    40   19   20 am   BACKBONE|DICT|INTERRES
    41   19  144 1    
    42   20   21 2    
    43   20   22 1    
    44   22   23 1    
    45   22   24 1    
    46   22  145 1    
    47   23  146 1    
    48   23  147 1    
    49   23  148 1    
    50   24   25 am   BACKBONE|DICT|INTERRES
    51   24  149 1    
    52   25   26 2    
    53   25   27 1    
    54   27   28 1    
    55   27   29 1    
    56   27  150 1    
    57   28  151 1    
    58   28  152 1    
    59   28  153 1    
    60   29   30 am   BACKBONE|DICT|INTERRES
    61   29  154 1    
    62   30   31 2    
    63   30   32 1    
    64   32   33 1    
    65   32   34 1    
    66   32  155 1    
    67   33  156 1    
    68   33  157 1    
    69   33  158 1    
    70   34   35 am   BACKBONE|DICT|INTERRES
    71   34  159 1    
    72   35   36 2    
    73   35   37 1    
    74   37   38 1    
    75   37   39 1    
    76   37  160 1    
    77   38  161 1    
    78   38  162 1    
    79   38  163 1    
    80   39   40 am   BACKBONE|DICT|INTERRES
    81   39  164 1    
    82   40   41 2    
    83   40   42 1    
    84   42   43 1    
    85   42   44 1    
    86   42  165 1    
    87   43  166 1    
    88   43  167 1    
    89   43  168 1    
    90   44   45 am   BACKBONE|DICT|INTERRES
    91   44  169 1    
    92   45   46 2    
    93   45   47 1    
    94   47   48 1    
    95   47   49 1    
    96   47  170 1    
    97   48  171 1    
    98   48  172 1    
    99   48  173 1    
   100   49   50 am   BACKBONE|DICT|INTERRES
   101   49  174 1    
   102   50   51 2    
   103   50   52 1    
   104   52   53 1    
   105   52   54 1    
   106   52  175 1    
   107   53  176 1    
   108   53  177 1    
   109   53  178 1    
   110   54   55 am   BACKBONE|DICT|INTERRES
   111   54  179 1    
   112   55   56 2    
   113   55   57 1    
   114   57   58 1    
   115   57   59 1    
   116   57  180 1    
   117   58  181 1    
   118   58  182 1    
   119   58  183 1    
   120   59   60 am   BACKBONE|DICT|INTERRES
   121   59  184 1    
   122   60   61 2    
   123   60   62 1    
   124   62   63 1    
   125   62   64 1    
   126   62  185 1    
   127   63  186 1    
   128   63  187 1    
   129   63  188 1    
   130   64   65 am   BACKBONE|DICT|INTERRES
   131   64  189 1    
   132   65   66 2    
   133   67   68 2    
   134   67   69 am   BACKBONE|DICT|INTERRES
   135   69   70 1    
   136   69  190 1    
   137   70   71 1    
   138   70   72 1    
   139   70  191 1    
   140   71  192 1    
   141   71  193 1    
   142   71  194 1    
   143   72   73 2    
   144   72   74 am   BACKBONE|DICT|INTERRES
   145   74   75 1    
   146   74  195 1    
   147   75   76 1    
   148   75   77 1    
   149   75  196 1    
   150   76  197 1    
   151   76  198 1    
   152   76  199 1    
   153   77   78 2    
   154   77   79 am   BACKBONE|DICT|INTERRES
   155   79   80 1    
   156   79  200 1    
   157   80   81 1    
   158   80   82 1    
   159   80  201 1    
   160   81  202 1    
   161   81  203 1    
   162   81  204 1    
   163   82   83 2    
   164   82   84 am   BACKBONE|DICT|INTERRES
   165   84   85 1    
   166   84  205 1    
   167   85   86 1    
   168   85   87 1    
   169   85  206 1    
   170   86  207 1    
   171   86  208 1    
   172   86  209 1    
   173   87   88 2    
   174   87   89 am   BACKBONE|DICT|INTERRES
   175   89   90 1    
   176   89  210 1    
   177   90   91 1    
   178   90   92 1    
   179   90  211 1    
   180   91  212 1    
   181   91  213 1    
   182   91  214 1    
   183   92   93 2    
   184   92   94 am   BACKBONE|DICT|INTERRES
   185   94   95 1    
   186   94  215 1    
   187   95   96 1    
   188   95   97 1    
   189   95  216 1    
   190   96  217 1    
   191   96  218 1    
   192   96  219 1    
   193   97   98 2    
   194   97   99 am   BACKBONE|DICT|INTERRES
   195   99  100 1    
   196   99  220 1    
   197  100  101 1    
   198  100  102 1    
   199  100  221 1    
   200  101  222 1    
   201  101  223 1    
   202  101  224 1    
   203  102  103 2    
   204  102  104 am   BACKBONE|DICT|INTERRES
   205  104  105 1    
   206  104  225 1    
   207  105  106 1    
   208  105  107 1    
   209  105  226 1    
   210  106  227 1    
   211  106  228 1    
   212  106  229 1    
   213  107  108 2    
   214  107  109 am   BACKBONE|DICT|INTERRES
   215  109  110 1    
   216  109  230 1    
   217  110  111 1    
   218  110  112 1    
   219  110  231 1    
   220  111  232 1    
   221  111  233 1    
   222  111  234 1    
   223  112  113 2    
   224  112  114 am   BACKBONE|DICT|INTERRES
   225  114  115 1    
   226  114  235 1    
   227  115  116 1    
   228  115  117 1    
   229  115  236 1    
   230  116  237 1    
   231  116  238 1    
   232  116  239 1    
   233  117  118 2    
   234  117  119 am   BACKBONE|DICT|INTERRES
   235  119  120 1    
   236  119  240 1    
   237  120  121 1    
   238  120  124 1    
   239  120  241 1    
   240  121  122 am   BACKBONE|DICT|INTERRES
   241  121  123 2    
   242  122  242 1    
   243  122  243 1    
   244  124  125 1    
   245  124  244 1    
   246  124  245 1    
   247  125  126 1    
   248  126  246 1    
   249  126  247 1    
@<TRIPOS>SUBSTRUCTURE
     1 UNK         1 GROUP             0       ****    0 ROOT    
