@<TRIPOS>MOLECULE
3R540
247   249    1
SMALL
USER_CHARGES


@<TRIPOS>ATOM
      1 CA         -0.8658  -12.7673  -47.1459 C.3       0 UNK        -0.1800 
      2 C           0.2738  -12.2304  -47.9981 C.2       0 UNK         0.5000 
      3 O           0.3103  -11.0345  -48.2903 O.2       0 UNK        -0.5000 
      4 N           1.2159  -13.1019  -48.3795 N.am      1 UNK        -0.5000 
      5 CA          2.4546  -12.7615  -49.0884 C.3       1 UNK         0.1400 
      6 C6          3.2270  -14.0111  -49.5925 C.3       23 UNK        -0.0398 
      7 S7          3.2616  -15.4269  -48.4275 S.3       23 UNK        -0.2404 
      8 C8          3.1619  -16.8424  -49.5755 C.3       23 UNK        -0.0205 
      9 C9          1.7429  -17.3287  -49.8707 C.ar      23 UNK        -0.0193 
     10 C10         0.6912  -16.4408  -50.1248 C.ar      23 UNK        -0.1150 
     11 C11        -0.5852  -16.9178  -50.4277 C.ar      23 UNK        -0.0193 
     12 C12        -0.8146  -18.2947  -50.4646 C.ar      23 UNK        -0.1150 
     13 C13         0.2233  -19.2022  -50.2424 C.ar      23 UNK        -0.0193 
     14 C14         1.5002  -18.7043  -49.9455 C.ar      23 UNK        -0.1150 
     15 C15        -0.0831  -20.6972  -50.3757 C.3       23 UNK        -0.0205 
     16 S16         1.2041  -21.8353  -49.7541 S.3       23 UNK        -0.2404 
     17 C17         1.0807  -21.5132  -47.9615 C.3       23 UNK        -0.0398 
     18 CA          0.5324  -22.6864  -47.1161 C.3       11 UNK         0.1400 
     19 N           0.4430  -22.3095  -45.7071 N.am      11 UNK        -0.5000 
     20 C           0.1509  -23.1358  -44.6948 C.2       10 UNK         0.5000 
     21 O          -0.0075  -24.3504  -44.8210 O.2       10 UNK        -0.5000 
     22 CA         -0.0577  -22.4734  -43.3208 C.3       10 UNK         0.1400 
     23 CB          1.2889  -22.1749  -42.6453 C.3       10 UNK        -0.1800 
     24 N          -0.8465  -21.2420  -43.4165 N.am      10 UNK        -0.5000 
     25 C          -2.1233  -21.1985  -43.8248 C.2       9 UNK         0.5000 
     26 O          -2.7829  -22.2019  -44.0982 O.2       9 UNK        -0.5000 
     27 CA         -2.7604  -19.8067  -43.9917 C.3       9 UNK         0.1400 
     28 CB         -3.2208  -19.2542  -42.6349 C.3       9 UNK        -0.1800 
     29 N          -1.8708  -18.8436  -44.6450 N.am      9 UNK        -0.5000 
     30 C          -1.4475  -18.9371  -45.9141 C.2       8 UNK         0.5000 
     31 O          -1.7930  -19.8339  -46.6797 O.2       8 UNK        -0.5000 
     32 CA         -0.4261  -17.8918  -46.4006 C.3       8 UNK         0.1400 
     33 CB         -1.1179  -16.5932  -46.8331 C.3       8 UNK        -0.1800 
     34 N           0.6022  -17.6019  -45.4022 N.am      8 UNK        -0.5000 
     35 C           1.4761  -18.5070  -44.9389 C.2       7 UNK         0.5000 
     36 O           1.5434  -19.6677  -45.3425 O.2       7 UNK        -0.5000 
     37 CA          2.3830  -18.0574  -43.7837 C.3       7 UNK         0.1400 
     38 CB          3.5799  -17.2492  -44.3068 C.3       7 UNK        -0.1800 
     39 N           1.6400  -17.2783  -42.7922 N.am      7 UNK        -0.5000 
     40 C           0.7118  -17.7963  -41.9739 C.2       6 UNK         0.5000 
     41 O           0.4161  -18.9910  -41.9470 O.2       6 UNK        -0.5000 
     42 CA         -0.0390  -16.8103  -41.0594 C.3       6 UNK         0.1400 
     43 CB          0.7680  -16.5357  -39.7819 C.3       6 UNK        -0.1800 
     44 N          -0.3440  -15.5417  -41.7224 N.am      6 UNK        -0.5000 
     45 C          -1.1882  -15.4090  -42.7555 C.2       5 UNK         0.5000 
     46 O          -1.8330  -16.3405  -43.2329 O.2       5 UNK        -0.5000 
     47 CA         -1.2897  -14.0127  -43.3973 C.3       5 UNK         0.1400 
     48 CB         -2.3699  -13.1718  -42.7027 C.3       5 UNK        -0.1800 
     49 N          -0.0240  -13.2755  -43.3905 N.am      5 UNK        -0.5000 
     50 C           1.1108  -13.6837  -43.9715 C.2       4 UNK         0.5000 
     51 O           1.2064  -14.7378  -44.6037 O.2       4 UNK        -0.5000 
     52 CA          2.3208  -12.7431  -43.8174 C.3       4 UNK         0.1400 
     53 CB          3.6523  -13.4371  -44.1516 C.3       4 UNK        -0.1800 
     54 N           2.1554  -11.5517  -44.6521 N.am      4 UNK        -0.5000 
     55 C           1.3916  -10.4964  -44.3257 C.2       3 UNK         0.5000 
     56 O           0.7885  -10.4217  -43.2530 O.2       3 UNK        -0.5000 
     57 CA          1.2187   -9.3606  -45.3586 C.3       3 UNK         0.1400 
     58 CB          1.2322   -7.9611  -44.7085 C.3       3 UNK        -0.1800 
     59 N           2.1319   -9.4339  -46.5028 N.am      3 UNK        -0.5000 
     60 C           3.4584   -9.2282  -46.5250 C.2       2 UNK         0.5000 
     61 O           4.1158   -8.8686  -45.5473 O.2       2 UNK        -0.5000 
     62 CA          4.1612   -9.5076  -47.8762 C.3       2 UNK         0.1400 
     63 CB          5.6757   -9.7625  -47.7241 C.3       2 UNK        -0.1800 
     64 N           3.5254  -10.5950  -48.6368 N.am      2 UNK        -0.5000 
     65 C           3.3318  -11.8510  -48.2065 C.2       1 UNK         0.5000 
     66 O           3.7447  -12.2701  -47.1265 O.2       1 UNK        -0.5000 
     67 C          -0.8109  -23.2435  -47.6354 C.2       11 UNK         0.5000 
     68 O          -0.8157  -24.3160  -48.2341 O.2       11 UNK        -0.5000 
     69 N          -1.9245  -22.5489  -47.3586 N.am      12 UNK        -0.5000 
     70 CA         -3.2831  -22.9662  -47.7141 C.3       12 UNK         0.1400 
     71 CB         -4.2901  -21.8927  -47.2738 C.3       12 UNK        -0.1800 
     72 C          -3.6735  -24.3307  -47.1222 C.2       12 UNK         0.5000 
     73 O          -4.2650  -25.1482  -47.8281 O.2       12 UNK        -0.5000 
     74 N          -3.3090  -24.5621  -45.8538 N.am      13 UNK        -0.5000 
     75 CA         -3.4973  -25.8352  -45.1612 C.3       13 UNK         0.1400 
     76 CB         -3.1712  -25.6658  -43.6695 C.3       13 UNK        -0.1800 
     77 C          -2.6679  -26.9709  -45.7882 C.2       13 UNK         0.5000 
     78 O          -3.2112  -28.0464  -46.0422 O.2       13 UNK        -0.5000 
     79 N          -1.3834  -26.7014  -46.0632 N.am      14 UNK        -0.5000 
     80 CA         -0.4532  -27.6372  -46.7009 C.3       14 UNK         0.1400 
     81 CB          0.9698  -27.0617  -46.6380 C.3       14 UNK        -0.1800 
     82 C          -0.8373  -27.9829  -48.1532 C.2       14 UNK         0.5000 
     83 O          -0.7205  -29.1405  -48.5564 O.2       14 UNK        -0.5000 
     84 N          -1.3097  -26.9788  -48.9020 N.am      15 UNK        -0.5000 
     85 CA         -1.7658  -27.0904  -50.2881 C.3       15 UNK         0.1400 
     86 CB         -1.7262  -25.6951  -50.9327 C.3       15 UNK        -0.1800 
     87 C          -3.1723  -27.7045  -50.4326 C.2       15 UNK         0.5000 
     88 O          -3.6011  -27.9409  -51.5617 O.2       15 UNK        -0.5000 
     89 N          -3.8738  -27.9284  -49.3112 N.am      16 UNK        -0.5000 
     90 CA         -5.2418  -28.4465  -49.2118 C.3       16 UNK         0.1400 
     91 CB         -5.3123  -29.9135  -49.6851 C.3       16 UNK        -0.1800 
     92 C          -6.2602  -27.5250  -49.9150 C.2       16 UNK         0.5000 
     93 O          -7.0373  -27.9745  -50.7586 O.2       16 UNK        -0.5000 
     94 N          -6.2036  -26.2368  -49.5518 N.am      17 UNK        -0.5000 
     95 CA         -7.0356  -25.1168  -50.0040 C.3       17 UNK         0.1400 
     96 CB         -8.5417  -25.4074  -49.8402 C.3       17 UNK        -0.1800 
     97 C          -6.6929  -24.5745  -51.4057 C.2       17 UNK         0.5000 
     98 O          -7.2951  -23.5820  -51.8189 O.2       17 UNK        -0.5000 
     99 N          -5.6956  -25.1499  -52.0940 N.am      18 UNK        -0.5000 
    100 CA        -5.1340  -24.6308  -53.3481 C.3       18 UNK         0.1400 
    101 CB        -4.5050  -25.7890  -54.1412 C.3       18 UNK        -0.1800 
    102 C         -4.1373  -23.4840  -53.0667 C.2       18 UNK         0.5000 
    103 O         -2.9634  -23.5589  -53.4331 O.2       18 UNK        -0.5000 
    104 N         -4.6228  -22.4530  -52.3676 N.am      19 UNK        -0.5000 
    105 CA        -3.8576  -21.3777  -51.7415 C.3       19 UNK         0.1400 
    106 CB        -4.7117  -20.8032  -50.5996 C.3       19 UNK        -0.1800 
    107 C         -3.3935  -20.2858  -52.7258 C.2       19 UNK         0.5000 
    108 O         -3.6536  -19.1048  -52.4892 O.2       19 UNK        -0.5000 
    109 N         -2.7298  -20.6945  -53.8157 N.am      20 UNK        -0.5000 
    110 CA        -2.0206  -19.8636  -54.8035 C.3       20 UNK         0.1400 
    111 CB        -0.7124  -19.3338  -54.1813 C.3       20 UNK        -0.1800 
    112 C         -2.8534  -18.7306  -55.4527 C.2       20 UNK         0.5000 
    113 O         -2.2811  -17.7556  -55.9421 O.2       20 UNK        -0.5000 
    114 N         -4.1865  -18.8802  -55.4425 N.am      21 UNK        -0.5000 
    115 CA        -5.1986  -17.9028  -55.8606 C.3       21 UNK         0.1400 
    116 CB        -5.1051  -17.6159  -57.3745 C.3       21 UNK        -0.1800 
    117 C         -5.2227  -16.6156  -55.0008 C.2       21 UNK         0.5000 
    118 O         -5.6694  -15.5722  -55.4821 O.2       21 UNK        -0.5000 
    119 N         -4.7776  -16.7106  -53.7416 N.am      22 UNK        -0.5000 
    120 CA        -4.7961  -15.6232  -52.7474 C.3       22 UNK         0.1400 
    121 C         -5.2708  -16.0659  -51.3361 C.2       22 UNK         0.5000 
    122 N         -5.2229  -17.3429  -50.9808 N.am      22 UNK        -0.7600 
    123 O         -5.7129  -15.2318  -50.5507 O.2       22 UNK        -0.5000 
    124 C124       -3.4628  -14.8273  -52.6894 C.3       23 UNK        -0.0398 
    125 S125       -1.9625  -15.8611  -52.5525 S.3       23 UNK        -0.2404 
    126 C126       -1.7131  -15.9531  -50.7521 C.3       23 UNK        -0.0205 
    127 H127       -0.5805  -13.6887  -46.6414 H         1 UNK         0.0600 
    128 H128       -1.1410  -12.0416  -46.3804 H         1 UNK         0.0600 
    129 H129       -1.7409  -12.9654  -47.7646 H         1 UNK         0.0600 
    130 H130        1.1705  -14.0581  -48.0559 H         1 UNK         0.3000 
    131 H131        2.1677  -12.1877  -49.9724 H         1 UNK         0.0600 
    132 H132        2.7803  -14.3390  -50.5308 H         1 UNK         0.0800 
    133 H133        4.2558  -13.7557  -49.8531 H         1 UNK         0.0800 
    134 H134        3.7411  -17.6530  -49.1306 H         1 UNK         0.0800 
    135 H135        3.6604  -16.5988  -50.5144 H         1 UNK         0.0800 
    136 H136        0.8569  -15.3758  -50.1044 H         1 UNK         0.1150 
    137 H137       -1.8033  -18.6576  -50.7043 H         1 UNK         0.1150 
    138 H138        2.3242  -19.3829  -49.7844 H         1 UNK         0.1150 
    139 H139       -1.0193  -20.9202  -49.8612 H         1 UNK         0.0800 
    140 H140       -0.2507  -20.9193  -51.4300 H         1 UNK         0.0800 
    141 H141        0.4738  -20.6237  -47.7984 H         1 UNK         0.0800 
    142 H142        2.0789  -21.2503  -47.6089 H         1 UNK         0.0800 
    143 H143        1.2576  -23.5003  -47.1802 H         1 UNK         0.0600 
    144 H144        0.6064  -21.3282  -45.4978 H         1 UNK         0.3000 
    145 H145       -0.6065  -23.1772  -42.6918 H         1 UNK         0.0600 
    146 H146        1.1448  -21.7757  -41.6412 H         1 UNK         0.0600 
    147 H147        1.8890  -23.0810  -42.5529 H         1 UNK         0.0600 
    148 H148        1.8729  -21.4490  -43.2118 H         1 UNK         0.0600 
    149 H149       -0.3811  -20.3783  -43.1552 H         1 UNK         0.3000 
    150 H150       -3.6433  -19.9221  -44.6233 H         1 UNK         0.0600 
    151 H151       -3.8936  -19.9529  -42.1360 H         1 UNK         0.0600 
    152 H152       -3.7600  -18.3144  -42.7552 H         1 UNK         0.0600 
    153 H153       -2.3790  -19.0737  -41.9662 H         1 UNK         0.0600 
    154 H154       -1.5979  -18.0337  -44.0955 H         1 UNK         0.3000 
    155 H155        0.0748  -18.3049  -47.2779 H         1 UNK         0.0600 
    156 H156       -1.8974  -16.7929  -47.5694 H         1 UNK         0.0600 
    157 H157       -0.4029  -15.9144  -47.2962 H         1 UNK         0.0600 
    158 H158       -1.5818  -16.0800  -45.9912 H         1 UNK         0.0600 
    159 H159        0.6434  -16.6557  -45.0377 H         1 UNK         0.3000 
    160 H160        2.7701  -18.9523  -43.2916 H         1 UNK         0.0600 
    161 H161        3.2640  -16.3694  -44.8671 H         1 UNK         0.0600 
    162 H162        4.1904  -17.8550  -44.9774 H         1 UNK         0.0600 
    163 H163        4.2227  -16.9182  -43.4912 H         1 UNK         0.0600 
    164 H164        1.7771  -16.2785  -42.8058 H         1 UNK         0.3000 
    165 H165       -0.9835  -17.2771  -40.7719 H         1 UNK         0.0600 
    166 H166        0.2107  -15.9016  -39.0921 H         1 UNK         0.0600 
    167 H167        0.9943  -17.4647  -39.2568 H         1 UNK         0.0600 
    168 H168        1.7161  -16.0428  -40.0005 H         1 UNK         0.0600 
    169 H169        0.1431  -14.7222  -41.3914 H         1 UNK         0.3000 
    170 H170       -1.5862  -14.1524  -44.4380 H         1 UNK         0.0600 
    171 H171       -3.3316  -13.6866  -42.7116 H         1 UNK         0.0600 
    172 H172       -2.1149  -12.9684  -41.6619 H         1 UNK         0.0600 
    173 H173       -2.5094  -12.2155  -43.2073 H         1 UNK         0.0600 
    174 H174       -0.0243  -12.3648  -42.9449 H         1 UNK         0.3000 
    175 H175        2.3745  -12.4366  -42.7706 H         1 UNK         0.0600 
    176 H176        3.6456  -13.8796  -45.1478 H         1 UNK         0.0600 
    177 H177        4.4875  -12.7384  -44.1012 H         1 UNK         0.0600 
    178 H178        3.8564  -14.2405  -43.4433 H         1 UNK         0.0600 
    179 H179        2.6227  -11.5750  -45.5524 H         1 UNK         0.3000 
    180 H180        0.2229   -9.5059  -45.7796 H         1 UNK         0.0600 
    181 H181        2.1609   -7.7698  -44.1707 H         1 UNK         0.0600 
    182 H182        0.4172   -7.8561  -43.9915 H         1 UNK         0.0600 
    183 H183        1.1070   -7.1769  -45.4551 H         1 UNK         0.0600 
    184 H184        1.6970   -9.7694  -47.3564 H         1 UNK         0.3000 
    185 H185        4.0381   -8.6023  -48.4722 H         1 UNK         0.0600 
    186 H186        6.1760   -8.8978  -47.2866 H         1 UNK         0.0600 
    187 H187        5.8807  -10.6182  -47.0801 H         1 UNK         0.0600 
    188 H188        6.1428   -9.9508  -48.6907 H         1 UNK         0.0600 
    189 H189        3.1192  -10.3224  -49.5216 H         1 UNK         0.3000 
    190 H190       -1.8387  -21.6405  -46.9068 H         1 UNK         0.3000 
    191 H191       -3.3229  -23.0528  -48.8015 H         1 UNK         0.0600 
    192 H192       -4.3050  -21.7703  -46.1918 H         1 UNK         0.0600 
    193 H193       -5.3024  -22.1566  -47.5821 H         1 UNK         0.0600 
    194 H194       -4.0559  -20.9229  -47.7113 H         1 UNK         0.0600 
    195 H195       -2.8700  -23.8122  -45.3286 H         1 UNK         0.3000 
    196 H196       -4.5513  -26.1077  -45.2464 H         1 UNK         0.0600 
    197 H197       -3.3316  -26.5981  -43.1267 H         1 UNK         0.0600 
    198 H198       -3.8078  -24.9083  -43.2119 H         1 UNK         0.0600 
    199 H199       -2.1347  -25.3677  -43.5118 H         1 UNK         0.0600 
    200 H200       -1.0078  -25.7939  -45.8045 H         1 UNK         0.3000 
    201 H201       -0.4687  -28.5652  -46.1257 H         1 UNK         0.0600 
    202 H202        1.2790  -26.8876  -45.6072 H         1 UNK         0.0600 
    203 H203        1.0448  -26.1144  -47.1728 H         1 UNK         0.0600 
    204 H204        1.6903  -27.7491  -47.0829 H         1 UNK         0.0600 
    205 H205       -1.2996  -26.0374  -48.5118 H         1 UNK         0.3000 
    206 H206       -1.0711  -27.7353  -50.8297 H         1 UNK         0.0600 
    207 H207       -0.7348  -25.2489  -50.8524 H         1 UNK         0.0600 
    208 H208       -1.9674  -25.7462  -51.9942 H         1 UNK         0.0600 
    209 H209       -2.4389  -25.0147  -50.4644 H         1 UNK         0.0600 
    210 H210       -3.4416  -27.6711  -48.4335 H         1 UNK         0.3000 
    211 H211       -5.4963  -28.4327  -48.1509 H         1 UNK         0.0600 
    212 H212       -5.1066  -30.0100  -50.7515 H         1 UNK         0.0600 
    213 H213       -6.3030  -30.3324  -49.5053 H         1 UNK         0.0600 
    214 H214       -4.5951  -30.5343  -49.1480 H         1 UNK         0.0600 
    215 H215       -5.4810  -25.9706  -48.8826 H         1 UNK         0.3000 
    216 H216       -6.7961  -24.3022  -49.3187 H         1 UNK         0.0600 
    217 H217       -9.1310  -24.5028  -49.9953 H         1 UNK         0.0600 
    218 H218       -8.7679  -25.7719  -48.8382 H         1 UNK         0.0600 
    219 H219       -8.8961  -26.1476  -50.5576 H         1 UNK         0.0600 
    220 H220       -5.2369  -25.9568  -51.6939 H         1 UNK         0.3000 
    221 H221       -5.9402  -24.2181  -53.9582 H         1 UNK         0.0600 
    222 H222       -3.6613  -26.2321  -53.6135 H         1 UNK         0.0600 
    223 H223       -5.2325  -26.5787  -54.3297 H         1 UNK         0.0600 
    224 H224       -4.1402  -25.4450  -55.1098 H         1 UNK         0.0600 
    225 H225       -5.6126  -22.4804  -52.1467 H         1 UNK         0.3000 
    226 H226       -2.9587  -21.8122  -51.2995 H         1 UNK         0.0600 
    227 H227       -5.0528  -21.5921  -49.9317 H         1 UNK         0.0600 
    228 H228       -4.1433  -20.0868  -50.0050 H         1 UNK         0.0600 
    229 H229       -5.5990  -20.2940  -50.9781 H         1 UNK         0.0600 
    230 H230       -2.6173  -21.6991  -53.9232 H         1 UNK         0.3000 
    231 H231       -1.7482  -20.5336  -55.6200 H         1 UNK         0.0600 
    232 H232       -0.1060  -20.1472  -53.7838 H         1 UNK         0.0600 
    233 H233       -0.9105  -18.6350  -53.3686 H         1 UNK         0.0600 
    234 H234       -0.1025  -18.8122  -54.9195 H         1 UNK         0.0600 
    235 H235       -4.5464  -19.7171  -55.0065 H         1 UNK         0.3000 
    236 H236       -6.1608  -18.3856  -55.6852 H         1 UNK         0.0600 
    237 H237       -5.9625  -17.0349  -57.7160 H         1 UNK         0.0600 
    238 H238       -4.2085  -17.0493  -57.6267 H         1 UNK         0.0600 
    239 H239       -5.0923  -18.5404  -57.9517 H         1 UNK         0.0600 
    240 H240       -4.3834  -17.5899  -53.4222 H         1 UNK         0.3000 
    241 H241       -5.5640  -14.9111  -53.0556 H         1 UNK         0.0600 
    242 H242       -5.5546  -17.6069  -50.0679 H         1 UNK         0.3800 
    243 H243       -4.7577  -18.0315  -51.5664 H         1 UNK         0.3800 
    244 H244       -3.4756  -14.0883  -51.8862 H         1 UNK         0.0800 
    245 H245       -3.3637  -14.2501  -53.6094 H         1 UNK         0.0800 
    246 H246       -2.6250  -16.2920  -50.2611 H         1 UNK         0.0800 
    247 H247       -1.4974  -14.9579  -50.3602 H         1 UNK         0.0800 
@<TRIPOS>BOND
     1    1    2 1    
     2    1  127 1    
     3    1  128 1    
     4    1  129 1    
     5    2    3 2    
     6    2    4 am   BACKBONE|DICT|INTERRES
     7    4    5 1    
     8    4  130 1    
     9    5    6 1    
    10    5   65 1    
    11    5  131 1    
    12    6    7 1    
    13    6  132 1    
    14    6  133 1    
    15    7    8 1    
    16    8    9 1    
    17    8  134 1    
    18    8  135 1    
    19    9   10 ar   
    20    9   14 ar   
    21   10   11 ar   
    22   10  136 1    
    23   11   12 ar   
    24   11  126 1    
    25   12   13 ar   
    26   12  137 1    
    27   13   14 ar   
    28   13   15 1    
    29   14  138 1    
    30   15   16 1    
    31   15  139 1    
    32   15  140 1    
    33   16   17 1    
    34   17   18 1    
    35   17  141 1    
    36   17  142 1    
    37   18   19 1    
    38   18   67 1    
    39   18  143 1    
    40   19   20 am   BACKBONE|DICT|INTERRES
    41   19  144 1    
    42   20   21 2    
    43   20   22 1    
    44   22   23 1    
    45   22   24 1    
    46   22  145 1    
    47   23  146 1    
    48   23  147 1    
    49   23  148 1    
    50   24   25 am   BACKBONE|DICT|INTERRES
    51   24  149 1    
    52   25   26 2    
    53   25   27 1    
    54   27   28 1    
    55   27   29 1    
    56   27  150 1    
    57   28  151 1    
    58   28  152 1    
    59   28  153 1    
    60   29   30 am   BACKBONE|DICT|INTERRES
    61   29  154 1    
    62   30   31 2    
    63   30   32 1    
    64   32   33 1    
    65   32   34 1    
    66   32  155 1    
    67   33  156 1    
    68   33  157 1    
    69   33  158 1    
    70   34   35 am   BACKBONE|DICT|INTERRES
    71   34  159 1    
    72   35   36 2    
    73   35   37 1    
    74   37   38 1    
    75   37   39 1    
    76   37  160 1    
    77   38  161 1    
    78   38  162 1    
    79   38  163 1    
    80   39   40 am   BACKBONE|DICT|INTERRES
    81   39  164 1    
    82   40   41 2    
    83   40   42 1    
    84   42   43 1    
    85   42   44 1    
    86   42  165 1    
    87   43  166 1    
    88   43  167 1    
    89   43  168 1    
    90   44   45 am   BACKBONE|DICT|INTERRES
    91   44  169 1    
    92   45   46 2    
    93   45   47 1    
    94   47   48 1    
    95   47   49 1    
    96   47  170 1    
    97   48  171 1    
    98   48  172 1    
    99   48  173 1    
   100   49   50 am   BACKBONE|DICT|INTERRES
   101   49  174 1    
   102   50   51 2    
   103   50   52 1    
   104   52   53 1    
   105   52   54 1    
   106   52  175 1    
   107   53  176 1    
   108   53  177 1    
   109   53  178 1    
   110   54   55 am   BACKBONE|DICT|INTERRES
   111   54  179 1    
   112   55   56 2    
   113   55   57 1    
   114   57   58 1    
   115   57   59 1    
   116   57  180 1    
   117   58  181 1    
   118   58  182 1    
   119   58  183 1    
   120   59   60 am   BACKBONE|DICT|INTERRES
   121   59  184 1    
   122   60   61 2    
   123   60   62 1    
   124   62   63 1    
   125   62   64 1    
   126   62  185 1    
   127   63  186 1    
   128   63  187 1    
   129   63  188 1    
   130   64   65 am   BACKBONE|DICT|INTERRES
   131   64  189 1    
   132   65   66 2    
   133   67   68 2    
   134   67   69 am   BACKBONE|DICT|INTERRES
   135   69   70 1    
   136   69  190 1    
   137   70   71 1    
   138   70   72 1    
   139   70  191 1    
   140   71  192 1    
   141   71  193 1    
   142   71  194 1    
   143   72   73 2    
   144   72   74 am   BACKBONE|DICT|INTERRES
   145   74   75 1    
   146   74  195 1    
   147   75   76 1    
   148   75   77 1    
   149   75  196 1    
   150   76  197 1    
   151   76  198 1    
   152   76  199 1    
   153   77   78 2    
   154   77   79 am   BACKBONE|DICT|INTERRES
   155   79   80 1    
   156   79  200 1    
   157   80   81 1    
   158   80   82 1    
   159   80  201 1    
   160   81  202 1    
   161   81  203 1    
   162   81  204 1    
   163   82   83 2    
   164   82   84 am   BACKBONE|DICT|INTERRES
   165   84   85 1    
   166   84  205 1    
   167   85   86 1    
   168   85   87 1    
   169   85  206 1    
   170   86  207 1    
   171   86  208 1    
   172   86  209 1    
   173   87   88 2    
   174   87   89 am   BACKBONE|DICT|INTERRES
   175   89   90 1    
   176   89  210 1    
   177   90   91 1    
   178   90   92 1    
   179   90  211 1    
   180   91  212 1    
   181   91  213 1    
   182   91  214 1    
   183   92   93 2    
   184   92   94 am   BACKBONE|DICT|INTERRES
   185   94   95 1    
   186   94  215 1    
   187   95   96 1    
   188   95   97 1    
   189   95  216 1    
   190   96  217 1    
   191   96  218 1    
   192   96  219 1    
   193   97   98 2    
   194   97   99 am   BACKBONE|DICT|INTERRES
   195   99  100 1    
   196   99  220 1    
   197  100  101 1    
   198  100  102 1    
   199  100  221 1    
   200  101  222 1    
   201  101  223 1    
   202  101  224 1    
   203  102  103 2    
   204  102  104 am   BACKBONE|DICT|INTERRES
   205  104  105 1    
   206  104  225 1    
   207  105  106 1    
   208  105  107 1    
   209  105  226 1    
   210  106  227 1    
   211  106  228 1    
   212  106  229 1    
   213  107  108 2    
   214  107  109 am   BACKBONE|DICT|INTERRES
   215  109  110 1    
   216  109  230 1    
   217  110  111 1    
   218  110  112 1    
   219  110  231 1    
   220  111  232 1    
   221  111  233 1    
   222  111  234 1    
   223  112  113 2    
   224  112  114 am   BACKBONE|DICT|INTERRES
   225  114  115 1    
   226  114  235 1    
   227  115  116 1    
   228  115  117 1    
   229  115  236 1    
   230  116  237 1    
   231  116  238 1    
   232  116  239 1    
   233  117  118 2    
   234  117  119 am   BACKBONE|DICT|INTERRES
   235  119  120 1    
   236  119  240 1    
   237  120  121 1    
   238  120  124 1    
   239  120  241 1    
   240  121  122 am   BACKBONE|DICT|INTERRES
   241  121  123 2    
   242  122  242 1    
   243  122  243 1    
   244  124  125 1    
   245  124  244 1    
   246  124  245 1    
   247  125  126 1    
   248  126  246 1    
   249  126  247 1    
@<TRIPOS>SUBSTRUCTURE
     1 UNK         1 GROUP             0       ****    0 ROOT    
