@<TRIPOS>MOLECULE
3R540
247   249    1
SMALL
USER_CHARGES


@<TRIPOS>ATOM
      1 CA         -0.2705  -13.5577  -45.2602 C.3       0 UNK        -0.1800 
      2 C           0.8535  -12.8494  -46.0019 C.2       0 UNK         0.5000 
      3 O           1.3228  -11.8056  -45.5508 O.2       0 UNK        -0.5000 
      4 N           1.3048  -13.4198  -47.1254 N.am      1 UNK        -0.5000 
      5 CA          2.3344  -12.8526  -48.0078 C.3       1 UNK         0.1400 
      6 C6          2.3460  -13.5343  -49.3961 C.3       23 UNK        -0.0398 
      7 S7          0.8127  -13.1940  -50.3273 S.3       23 UNK        -0.2404 
      8 C8         -0.0534  -14.7921  -50.2460 C.3       23 UNK        -0.0205 
      9 C9          0.5742  -15.8297  -51.1631 C.ar      23 UNK        -0.0193 
     10 C10         0.3800  -15.7561  -52.5446 C.ar      23 UNK        -0.1150 
     11 C11         0.9298  -16.7228  -53.3908 C.ar      23 UNK        -0.0193 
     12 C12         1.6737  -17.7724  -52.8429 C.ar      23 UNK        -0.1150 
     13 C13         1.8812  -17.8571  -51.4623 C.ar      23 UNK        -0.0193 
     14 C14         1.3343  -16.8734  -50.6309 C.ar      23 UNK        -0.1150 
     15 C15         2.7242  -18.9985  -50.8973 C.3       23 UNK        -0.0205 
     16 S16         2.1555  -19.6331  -49.2831 S.3       23 UNK        -0.2404 
     17 C17         0.5408  -20.3480  -49.7313 C.3       23 UNK        -0.0398 
     18 CA         -0.3543  -20.6148  -48.4948 C.3       11 UNK         0.1400 
     19 N          -0.6609  -19.4312  -47.6815 N.am      11 UNK        -0.5000 
     20 C          -1.2360  -18.2760  -48.0434 C.2       10 UNK         0.5000 
     21 O          -1.6469  -18.0357  -49.1779 O.2       10 UNK        -0.5000 
     22 CA         -1.4030  -17.2176  -46.9357 C.3       10 UNK         0.1400 
     23 CB         -2.7826  -17.3472  -46.2727 C.3       10 UNK        -0.1800 
     24 N          -0.3695  -17.3250  -45.9057 N.am      10 UNK        -0.5000 
     25 C           0.9094  -16.9595  -46.0688 C.2       9 UNK         0.5000 
     26 O           1.3224  -16.3312  -47.0431 O.2       9 UNK        -0.5000 
     27 CA          1.8896  -17.3602  -44.9542 C.3       9 UNK         0.1400 
     28 CB          1.9764  -16.2607  -43.8839 C.3       9 UNK        -0.1800 
     29 N           1.4979  -18.6257  -44.3292 N.am      9 UNK        -0.5000 
     30 C           1.8049  -19.8364  -44.8193 C.2       8 UNK         0.5000 
     31 O           2.5302  -20.0095  -45.7966 O.2       8 UNK        -0.5000 
     32 CA          1.2006  -21.0674  -44.1148 C.3       8 UNK         0.1400 
     33 CB          2.2314  -21.7080  -43.1735 C.3       8 UNK        -0.1800 
     34 N          -0.0085  -20.7617  -43.3506 N.am      8 UNK        -0.5000 
     35 C          -1.2161  -20.5245  -43.8807 C.2       7 UNK         0.5000 
     36 O          -1.4621  -20.5908  -45.0852 O.2       7 UNK        -0.5000 
     37 CA         -2.3212  -20.0956  -42.8945 C.3       7 UNK         0.1400 
     38 CB         -3.0719  -21.3259  -42.3638 C.3       7 UNK        -0.1800 
     39 N          -1.8174  -19.3051  -41.7654 N.am      7 UNK        -0.5000 
     40 C          -1.1886  -18.1296  -41.8938 C.2       6 UNK         0.5000 
     41 O          -0.9827  -17.5923  -42.9852 O.2       6 UNK        -0.5000 
     42 CA         -0.6157  -17.5110  -40.6064 C.3       6 UNK         0.1400 
     43 CB          0.6575  -18.2618  -40.1819 C.3       6 UNK        -0.1800 
     44 N          -0.2687  -16.1053  -40.7970 N.am      6 UNK        -0.5000 
     45 C          -1.1350  -15.0855  -40.8171 C.2       5 UNK         0.5000 
     46 O          -2.3413  -15.2191  -40.6041 O.2       5 UNK        -0.5000 
     47 CA         -0.5660  -13.6868  -41.1517 C.3       5 UNK         0.1400 
     48 CB         -1.1945  -12.5756  -40.2856 C.3       5 UNK        -0.1800 
     49 N           0.9039  -13.5994  -41.1349 N.am      5 UNK        -0.5000 
     50 C           1.7265  -13.7260  -40.0800 C.2       4 UNK         0.5000 
     51 O           1.3447  -13.9627  -38.9341 O.2       4 UNK        -0.5000 
     52 CA          3.2386  -13.5925  -40.3541 C.3       4 UNK         0.1400 
     53 CB          3.9091  -14.9753  -40.3512 C.3       4 UNK        -0.1800 
     54 N           3.5414  -12.9224  -41.6220 N.am      4 UNK        -0.5000 
     55 C           3.4767  -11.5985  -41.8186 C.2       3 UNK         0.5000 
     56 O           3.1576  -10.8030  -40.9340 O.2       3 UNK        -0.5000 
     57 CA          3.7755  -11.0638  -43.2353 C.3       3 UNK         0.1400 
     58 CB          4.8688   -9.9758  -43.2229 C.3       3 UNK        -0.1800 
     59 N           4.0517  -12.0945  -44.2477 N.am      3 UNK        -0.5000 
     60 C           5.1439  -12.8640  -44.3913 C.2       2 UNK         0.5000 
     61 O           6.0938  -12.8470  -43.6092 O.2       2 UNK        -0.5000 
     62 CA          5.1787  -13.8420  -45.5891 C.3       2 UNK         0.1400 
     63 CB          5.3966  -15.2894  -45.1166 C.3       2 UNK        -0.1800 
     64 N           3.9683  -13.7841  -46.4156 N.am      2 UNK        -0.5000 
     65 C           3.7400  -12.8701  -47.3699 C.2       1 UNK         0.5000 
     66 O           4.5722  -12.0333  -47.7212 O.2       1 UNK        -0.5000 
     67 C          -1.6187  -21.4001  -48.8865 C.2       11 UNK         0.5000 
     68 O          -1.6889  -22.5999  -48.6187 O.2       11 UNK        -0.5000 
     69 N          -2.6039  -20.7099  -49.4763 N.am      12 UNK        -0.5000 
     70 CA         -3.8859  -21.2544  -49.9243 C.3       12 UNK         0.1400 
     71 CB         -4.7245  -20.1270  -50.5459 C.3       12 UNK        -0.1800 
     72 C          -4.6827  -21.9242  -48.7935 C.2       12 UNK         0.5000 
     73 O          -5.2936  -22.9669  -49.0178 O.2       12 UNK        -0.5000 
     74 N          -4.6436  -21.3211  -47.5977 N.am      13 UNK        -0.5000 
     75 CA         -5.3144  -21.8144  -46.3976 C.3       13 UNK         0.1400 
     76 CB         -5.2989  -20.7189  -45.3236 C.3       13 UNK        -0.1800 
     77 C          -4.6970  -23.1220  -45.8725 C.2       13 UNK         0.5000 
     78 O          -5.4377  -24.0555  -45.5642 O.2       13 UNK        -0.5000 
     79 N          -3.3577  -23.1860  -45.8212 N.am      14 UNK        -0.5000 
     80 CA         -2.6073  -24.3834  -45.4283 C.3       14 UNK         0.1400 
     81 CB         -1.1286  -24.0260  -45.2182 C.3       14 UNK        -0.1800 
     82 C          -2.7500  -25.5344  -46.4410 C.2       14 UNK         0.5000 
     83 O          -2.8400  -26.6947  -46.0392 O.2       14 UNK        -0.5000 
     84 N          -2.8011  -25.1861  -47.7323 N.am      15 UNK        -0.5000 
     85 CA         -3.0194  -26.1098  -48.8451 C.3       15 UNK         0.1400 
     86 CB         -2.4785  -25.4554  -50.1233 C.3       15 UNK        -0.1800 
     87 C          -4.4950  -26.5204  -49.0345 C.2       15 UNK         0.5000 
     88 O          -4.7727  -27.3475  -49.9029 O.2       15 UNK        -0.5000 
     89 N          -5.4181  -25.9215  -48.2653 N.am      16 UNK        -0.5000 
     90 CA         -6.8752  -26.1056  -48.3154 C.3       16 UNK         0.1400 
     91 CB         -7.2573  -27.5033  -47.7870 C.3       16 UNK        -0.1800 
     92 C          -7.4763  -25.8033  -49.7076 C.2       16 UNK         0.5000 
     93 O          -8.4048  -26.4834  -50.1472 O.2       16 UNK        -0.5000 
     94 N          -6.8975  -24.8004  -50.3834 N.am      17 UNK        -0.5000 
     95 CA         -7.1750  -24.3268  -51.7427 C.3       17 UNK         0.1400 
     96 CB         -8.5986  -23.7422  -51.8375 C.3       17 UNK        -0.1800 
     97 C          -6.8855  -25.3500  -52.8650 C.2       17 UNK         0.5000 
     98 O          -7.2403  -25.0884  -54.0154 O.2       17 UNK        -0.5000 
     99 N          -6.2274  -26.4759  -52.5469 N.am      18 UNK        -0.5000 
    100 CA        -5.8333  -27.5016  -53.5191 C.3       18 UNK         0.1400 
    101 CB        -5.5856  -28.8281  -52.7852 C.3       18 UNK        -0.1800 
    102 C         -4.5914  -27.0979  -54.3382 C.2       18 UNK         0.5000 
    103 O         -4.3631  -27.6538  -55.4135 O.2       18 UNK        -0.5000 
    104 N         -3.8208  -26.1374  -53.8205 N.am      19 UNK        -0.5000 
    105 CA        -2.6516  -25.5279  -54.4360 C.3       19 UNK         0.1400 
    106 CB        -1.4074  -26.3895  -54.1560 C.3       19 UNK        -0.1800 
    107 C         -2.4966  -24.1162  -53.8531 C.2       19 UNK         0.5000 
    108 O         -3.1107  -23.8103  -52.8275 O.2       19 UNK        -0.5000 
    109 N         -1.6804  -23.2861  -54.5179 N.am      20 UNK        -0.5000 
    110 CA        -1.2922  -21.9251  -54.1171 C.3       20 UNK         0.1400 
    111 CB        -0.3674  -21.9768  -52.8837 C.3       20 UNK        -0.1800 
    112 C         -2.4778  -20.9554  -53.9148 C.2       20 UNK         0.5000 
    113 O         -2.3735  -20.0150  -53.1268 O.2       20 UNK        -0.5000 
    114 N         -3.5832  -21.1890  -54.6369 N.am      21 UNK        -0.5000 
    115 CA        -4.8370  -20.4340  -54.5690 C.3       21 UNK         0.1400 
    116 CB        -5.9789  -21.3315  -55.0794 C.3       21 UNK        -0.1800 
    117 C         -4.7492  -19.0826  -55.3119 C.2       21 UNK         0.5000 
    118 O         -5.5427  -18.8088  -56.2145 O.2       21 UNK        -0.5000 
    119 N         -3.7526  -18.2796  -54.9326 N.am      22 UNK        -0.5000 
    120 CA        -3.4491  -16.9466  -55.4634 C.3       22 UNK         0.1400 
    121 C         -4.5515  -15.9020  -55.1339 C.2       22 UNK         0.5000 
    122 N         -4.8145  -14.9654  -56.0352 N.am      22 UNK        -0.7600 
    123 O         -5.1401  -15.9054  -54.0547 O.2       22 UNK        -0.5000 
    124 C124       -2.0703  -16.4593  -54.9545 C.3       23 UNK        -0.0398 
    125 S125       -0.7072  -17.5593  -55.4723 S.3       23 UNK        -0.2404 
    126 C126        0.7425  -16.6223  -54.8977 C.3       23 UNK        -0.0205 
    127 H127       -0.7277  -14.3367  -45.8693 H         1 UNK         0.0600 
    128 H128       -1.0488  -12.8445  -44.9893 H         1 UNK         0.0600 
    129 H129        0.1082  -14.0123  -44.3469 H         1 UNK         0.0600 
    130 H130        0.9587  -14.3341  -47.3935 H         1 UNK         0.3000 
    131 H131        2.0868  -11.7993  -48.1590 H         1 UNK         0.0600 
    132 H132        2.5042  -14.6091  -49.2976 H         1 UNK         0.0800 
    133 H133        3.1741  -13.1606  -50.0014 H         1 UNK         0.0800 
    134 H134       -1.0944  -14.6445  -50.5367 H         1 UNK         0.0800 
    135 H135       -0.0747  -15.1474  -49.2155 H         1 UNK         0.0800 
    136 H136       -0.1978  -14.9422  -52.9594 H         1 UNK         0.1150 
    137 H137        2.0993  -18.5202  -53.4973 H         1 UNK         0.1150 
    138 H138        1.4902  -16.9248  -49.5634 H         1 UNK         0.1150 
    139 H139        2.7577  -19.8314  -51.6014 H         1 UNK         0.0800 
    140 H140        3.7497  -18.6444  -50.7878 H         1 UNK         0.0800 
    141 H141        0.7387  -21.2806  -50.2617 H         1 UNK         0.0800 
    142 H142        0.0341  -19.6912  -50.4402 H         1 UNK         0.0800 
    143 H143        0.2090  -21.2703  -47.8279 H         1 UNK         0.0600 
    144 H144       -0.4717  -19.5499  -46.6950 H         1 UNK         0.3000 
    145 H145       -1.3366  -16.2324  -47.4007 H         1 UNK         0.0600 
    146 H146       -2.9282  -16.5775  -45.5143 H         1 UNK         0.0600 
    147 H147       -3.5815  -17.2370  -47.0071 H         1 UNK         0.0600 
    148 H148       -2.9094  -18.3173  -45.7918 H         1 UNK         0.0600 
    149 H149       -0.6458  -17.7317  -45.0194 H         1 UNK         0.3000 
    150 H150        2.8785  -17.4708  -45.4045 H         1 UNK         0.0600 
    151 H151        2.3051  -15.3162  -44.3166 H         1 UNK         0.0600 
    152 H152        2.6896  -16.5339  -43.1077 H         1 UNK         0.0600 
    153 H153        1.0161  -16.0761  -43.4065 H         1 UNK         0.0600 
    154 H154        0.8527  -18.5604  -43.5540 H         1 UNK         0.3000 
    155 H155        0.9475  -21.7942  -44.8895 H         1 UNK         0.0600 
    156 H156        2.5164  -21.0309  -42.3672 H         1 UNK         0.0600 
    157 H157        3.1402  -21.9769  -43.7135 H         1 UNK         0.0600 
    158 H158        1.8403  -22.6212  -42.7243 H         1 UNK         0.0600 
    159 H159        0.0944  -20.6990  -42.3487 H         1 UNK         0.3000 
    160 H160       -3.0250  -19.4668  -43.4417 H         1 UNK         0.0600 
    161 H161       -2.4261  -21.9611  -41.7563 H         1 UNK         0.0600 
    162 H162       -3.4536  -21.9381  -43.1811 H         1 UNK         0.0600 
    163 H163       -3.9264  -21.0331  -41.7536 H         1 UNK         0.0600 
    164 H164       -1.9459  -19.6988  -40.8440 H         1 UNK         0.3000 
    165 H165       -1.3621  -17.5924  -39.8136 H         1 UNK         0.0600 
    166 H166        1.0807  -17.8336  -39.2728 H         1 UNK         0.0600 
    167 H167        0.4487  -19.3119  -39.9740 H         1 UNK         0.0600 
    168 H168        1.4259  -18.2259  -40.9556 H         1 UNK         0.0600 
    169 H169        0.6975  -15.9037  -40.9988 H         1 UNK         0.3000 
    170 H170       -0.8627  -13.4927  -42.1827 H         1 UNK         0.0600 
    171 H171       -2.2744  -12.5289  -40.4308 H         1 UNK         0.0600 
    172 H172       -1.0171  -12.7392  -39.2225 H         1 UNK         0.0600 
    173 H173       -0.7918  -11.5969  -40.5468 H         1 UNK         0.0600 
    174 H174        1.3352  -13.4006  -42.0254 H         1 UNK         0.3000 
    175 H175        3.6683  -13.0074  -39.5381 H         1 UNK         0.0600 
    176 H176        3.5198  -15.6166  -41.1408 H         1 UNK         0.0600 
    177 H177        4.9873  -14.8905  -40.4889 H         1 UNK         0.0600 
    178 H178        3.7439  -15.4880  -39.4026 H         1 UNK         0.0600 
    179 H179        3.8530  -13.5013  -42.3868 H         1 UNK         0.3000 
    180 H180        2.8526  -10.5829  -43.5624 H         1 UNK         0.0600 
    181 H181        5.8131  -10.3493  -42.8266 H         1 UNK         0.0600 
    182 H182        4.5705   -9.1308  -42.6013 H         1 UNK         0.0600 
    183 H183        5.0527   -9.5896  -44.2255 H         1 UNK         0.0600 
    184 H184        3.3145  -12.1937  -44.9361 H         1 UNK         0.3000 
    185 H185        6.0367  -13.5635  -46.2045 H         1 UNK         0.0600 
    186 H186        6.3728  -15.3987  -44.6427 H         1 UNK         0.0600 
    187 H187        4.6507  -15.5980  -44.3867 H         1 UNK         0.0600 
    188 H188        5.3643  -15.9901  -45.9513 H         1 UNK         0.0600 
    189 H189        3.2359  -14.4473  -46.2091 H         1 UNK         0.3000 
    190 H190       -2.4460  -19.7181  -49.6347 H         1 UNK         0.3000 
    191 H191       -3.6796  -22.0040  -50.6911 H         1 UNK         0.0600 
    192 H192       -5.0069  -19.3784  -49.8045 H         1 UNK         0.0600 
    193 H193       -5.6428  -20.5208  -50.9834 H         1 UNK         0.0600 
    194 H194       -4.1803  -19.6119  -51.3353 H         1 UNK         0.0600 
    195 H195       -4.1014  -20.4755  -47.5058 H         1 UNK         0.3000 
    196 H196       -6.3560  -22.0219  -46.6525 H         1 UNK         0.0600 
    197 H197       -5.7352  -21.0738  -44.3889 H         1 UNK         0.0600 
    198 H198       -5.8733  -19.8487  -45.6417 H         1 UNK         0.0600 
    199 H199       -4.2839  -20.3877  -45.1138 H         1 UNK         0.0600 
    200 H200       -2.8144  -22.3805  -46.1013 H         1 UNK         0.3000 
    201 H201       -3.0069  -24.7368  -44.4753 H         1 UNK         0.0600 
    202 H202       -1.0052  -23.3776  -44.3527 H         1 UNK         0.0600 
    203 H203       -0.7066  -23.5195  -46.0870 H         1 UNK         0.0600 
    204 H204       -0.5294  -24.9186  -45.0335 H         1 UNK         0.0600 
    205 H205       -2.6532  -24.2117  -47.9795 H         1 UNK         0.3000 
    206 H206       -2.4500  -27.0234  -48.6629 H         1 UNK         0.0600 
    207 H207       -1.4155  -25.2304  -50.0354 H         1 UNK         0.0600 
    208 H208       -2.6025  -26.1074  -50.9884 H         1 UNK         0.0600 
    209 H209       -2.9994  -24.5212  -50.3333 H         1 UNK         0.0600 
    210 H210       -5.0947  -25.2260  -47.6062 H         1 UNK         0.3000 
    211 H211       -7.2985  -25.3657  -47.6347 H         1 UNK         0.0600 
    212 H212       -6.9077  -28.2957  -48.4496 H         1 UNK         0.0600 
    213 H213       -8.3392  -27.6058  -47.6959 H         1 UNK         0.0600 
    214 H214       -6.8316  -27.6799  -46.7992 H         1 UNK         0.0600 
    215 H215       -6.1739  -24.2758  -49.8925 H         1 UNK         0.3000 
    216 H216       -6.4753  -23.5064  -51.9104 H         1 UNK         0.0600 
    217 H217       -8.7561  -23.2450  -52.7953 H         1 UNK         0.0600 
    218 H218       -8.7723  -23.0006  -51.0577 H         1 UNK         0.0600 
    219 H219       -9.3612  -24.5156  -51.7424 H         1 UNK         0.0600 
    220 H220       -5.9567  -26.6381  -51.5835 H         1 UNK         0.3000 
    221 H221       -6.6577  -27.6533  -54.2190 H         1 UNK         0.0600 
    222 H222       -4.7163  -28.7700  -52.1298 H         1 UNK         0.0600 
    223 H223       -6.4459  -29.1133  -52.1792 H         1 UNK         0.0600 
    224 H224       -5.4040  -29.6362  -53.4947 H         1 UNK         0.0600 
    225 H225       -4.1061  -25.6883  -52.9593 H         1 UNK         0.3000 
    226 H226       -2.8107  -25.4420  -55.5129 H         1 UNK         0.0600 
    227 H227       -1.5224  -27.3944  -54.5624 H         1 UNK         0.0600 
    228 H228       -0.5171  -25.9564  -54.6130 H         1 UNK         0.0600 
    229 H229       -1.2158  -26.4818  -53.0863 H         1 UNK         0.0600 
    230 H230       -1.2408  -23.6261  -55.3621 H         1 UNK         0.3000 
    231 H231       -0.7118  -21.5160  -54.9453 H         1 UNK         0.0600 
    232 H232        0.4662  -22.6610  -53.0412 H         1 UNK         0.0600 
    233 H233       -0.9054  -22.3012  -51.9919 H         1 UNK         0.0600 
    234 H234        0.0571  -20.9940  -52.6753 H         1 UNK         0.0600 
    235 H235       -3.5671  -21.9651  -55.2813 H         1 UNK         0.3000 
    236 H236       -5.0472  -20.2059  -53.5230 H         1 UNK         0.0600 
    237 H237       -6.9415  -20.8251  -54.9983 H         1 UNK         0.0600 
    238 H238       -5.8381  -21.6073  -56.1251 H         1 UNK         0.0600 
    239 H239       -6.0485  -22.2506  -54.4966 H         1 UNK         0.0600 
    240 H240       -3.1417  -18.6150  -54.1934 H         1 UNK         0.3000 
    241 H241       -3.3962  -17.0408  -56.5499 H         1 UNK         0.0600 
    242 H242       -5.5172  -14.2719  -55.8294 H         1 UNK         0.3800 
    243 H243       -4.3407  -14.9374  -56.9252 H         1 UNK         0.3800 
    244 H244       -1.8580  -15.4562  -55.3288 H         1 UNK         0.0800 
    245 H245       -2.0740  -16.3922  -53.8653 H         1 UNK         0.0800 
    246 H246        0.6547  -15.5788  -55.2038 H         1 UNK         0.0800 
    247 H247        1.6295  -17.0093  -55.4015 H         1 UNK         0.0800 
@<TRIPOS>BOND
     1    1    2 1    
     2    1  127 1    
     3    1  128 1    
     4    1  129 1    
     5    2    3 2    
     6    2    4 am   BACKBONE|DICT|INTERRES
     7    4    5 1    
     8    4  130 1    
     9    5    6 1    
    10    5   65 1    
    11    5  131 1    
    12    6    7 1    
    13    6  132 1    
    14    6  133 1    
    15    7    8 1    
    16    8    9 1    
    17    8  134 1    
    18    8  135 1    
    19    9   10 ar   
    20    9   14 ar   
    21   10   11 ar   
    22   10  136 1    
    23   11   12 ar   
    24   11  126 1    
    25   12   13 ar   
    26   12  137 1    
    27   13   14 ar   
    28   13   15 1    
    29   14  138 1    
    30   15   16 1    
    31   15  139 1    
    32   15  140 1    
    33   16   17 1    
    34   17   18 1    
    35   17  141 1    
    36   17  142 1    
    37   18   19 1    
    38   18   67 1    
    39   18  143 1    
    40   19   20 am   BACKBONE|DICT|INTERRES
    41   19  144 1    
    42   20   21 2    
    43   20   22 1    
    44   22   23 1    
    45   22   24 1    
    46   22  145 1    
    47   23  146 1    
    48   23  147 1    
    49   23  148 1    
    50   24   25 am   BACKBONE|DICT|INTERRES
    51   24  149 1    
    52   25   26 2    
    53   25   27 1    
    54   27   28 1    
    55   27   29 1    
    56   27  150 1    
    57   28  151 1    
    58   28  152 1    
    59   28  153 1    
    60   29   30 am   BACKBONE|DICT|INTERRES
    61   29  154 1    
    62   30   31 2    
    63   30   32 1    
    64   32   33 1    
    65   32   34 1    
    66   32  155 1    
    67   33  156 1    
    68   33  157 1    
    69   33  158 1    
    70   34   35 am   BACKBONE|DICT|INTERRES
    71   34  159 1    
    72   35   36 2    
    73   35   37 1    
    74   37   38 1    
    75   37   39 1    
    76   37  160 1    
    77   38  161 1    
    78   38  162 1    
    79   38  163 1    
    80   39   40 am   BACKBONE|DICT|INTERRES
    81   39  164 1    
    82   40   41 2    
    83   40   42 1    
    84   42   43 1    
    85   42   44 1    
    86   42  165 1    
    87   43  166 1    
    88   43  167 1    
    89   43  168 1    
    90   44   45 am   BACKBONE|DICT|INTERRES
    91   44  169 1    
    92   45   46 2    
    93   45   47 1    
    94   47   48 1    
    95   47   49 1    
    96   47  170 1    
    97   48  171 1    
    98   48  172 1    
    99   48  173 1    
   100   49   50 am   BACKBONE|DICT|INTERRES
   101   49  174 1    
   102   50   51 2    
   103   50   52 1    
   104   52   53 1    
   105   52   54 1    
   106   52  175 1    
   107   53  176 1    
   108   53  177 1    
   109   53  178 1    
   110   54   55 am   BACKBONE|DICT|INTERRES
   111   54  179 1    
   112   55   56 2    
   113   55   57 1    
   114   57   58 1    
   115   57   59 1    
   116   57  180 1    
   117   58  181 1    
   118   58  182 1    
   119   58  183 1    
   120   59   60 am   BACKBONE|DICT|INTERRES
   121   59  184 1    
   122   60   61 2    
   123   60   62 1    
   124   62   63 1    
   125   62   64 1    
   126   62  185 1    
   127   63  186 1    
   128   63  187 1    
   129   63  188 1    
   130   64   65 am   BACKBONE|DICT|INTERRES
   131   64  189 1    
   132   65   66 2    
   133   67   68 2    
   134   67   69 am   BACKBONE|DICT|INTERRES
   135   69   70 1    
   136   69  190 1    
   137   70   71 1    
   138   70   72 1    
   139   70  191 1    
   140   71  192 1    
   141   71  193 1    
   142   71  194 1    
   143   72   73 2    
   144   72   74 am   BACKBONE|DICT|INTERRES
   145   74   75 1    
   146   74  195 1    
   147   75   76 1    
   148   75   77 1    
   149   75  196 1    
   150   76  197 1    
   151   76  198 1    
   152   76  199 1    
   153   77   78 2    
   154   77   79 am   BACKBONE|DICT|INTERRES
   155   79   80 1    
   156   79  200 1    
   157   80   81 1    
   158   80   82 1    
   159   80  201 1    
   160   81  202 1    
   161   81  203 1    
   162   81  204 1    
   163   82   83 2    
   164   82   84 am   BACKBONE|DICT|INTERRES
   165   84   85 1    
   166   84  205 1    
   167   85   86 1    
   168   85   87 1    
   169   85  206 1    
   170   86  207 1    
   171   86  208 1    
   172   86  209 1    
   173   87   88 2    
   174   87   89 am   BACKBONE|DICT|INTERRES
   175   89   90 1    
   176   89  210 1    
   177   90   91 1    
   178   90   92 1    
   179   90  211 1    
   180   91  212 1    
   181   91  213 1    
   182   91  214 1    
   183   92   93 2    
   184   92   94 am   BACKBONE|DICT|INTERRES
   185   94   95 1    
   186   94  215 1    
   187   95   96 1    
   188   95   97 1    
   189   95  216 1    
   190   96  217 1    
   191   96  218 1    
   192   96  219 1    
   193   97   98 2    
   194   97   99 am   BACKBONE|DICT|INTERRES
   195   99  100 1    
   196   99  220 1    
   197  100  101 1    
   198  100  102 1    
   199  100  221 1    
   200  101  222 1    
   201  101  223 1    
   202  101  224 1    
   203  102  103 2    
   204  102  104 am   BACKBONE|DICT|INTERRES
   205  104  105 1    
   206  104  225 1    
   207  105  106 1    
   208  105  107 1    
   209  105  226 1    
   210  106  227 1    
   211  106  228 1    
   212  106  229 1    
   213  107  108 2    
   214  107  109 am   BACKBONE|DICT|INTERRES
   215  109  110 1    
   216  109  230 1    
   217  110  111 1    
   218  110  112 1    
   219  110  231 1    
   220  111  232 1    
   221  111  233 1    
   222  111  234 1    
   223  112  113 2    
   224  112  114 am   BACKBONE|DICT|INTERRES
   225  114  115 1    
   226  114  235 1    
   227  115  116 1    
   228  115  117 1    
   229  115  236 1    
   230  116  237 1    
   231  116  238 1    
   232  116  239 1    
   233  117  118 2    
   234  117  119 am   BACKBONE|DICT|INTERRES
   235  119  120 1    
   236  119  240 1    
   237  120  121 1    
   238  120  124 1    
   239  120  241 1    
   240  121  122 am   BACKBONE|DICT|INTERRES
   241  121  123 2    
   242  122  242 1    
   243  122  243 1    
   244  124  125 1    
   245  124  244 1    
   246  124  245 1    
   247  125  126 1    
   248  126  246 1    
   249  126  247 1    
@<TRIPOS>SUBSTRUCTURE
     1 UNK         1 GROUP             0       ****    0 ROOT    
