@<TRIPOS>MOLECULE
3R540
247   249    1
SMALL
USER_CHARGES


@<TRIPOS>ATOM
      1 CA         -2.7609  -12.0319  -47.1812 C.3       0 UNK        -0.1800 
      2 C          -1.4461  -12.0194  -47.9475 C.2       0 UNK         0.5000 
      3 O          -1.0353  -10.9707  -48.4447 O.2       0 UNK        -0.5000 
      4 N          -0.7826  -13.1793  -48.0398 N.am      1 UNK        -0.5000 
      5 CA          0.5046  -13.3613  -48.7317 C.3       1 UNK         0.1400 
      6 C6          0.7558  -14.8390  -49.1259 C.3       23 UNK        -0.0398 
      7 S7         -0.6146  -15.5266  -50.1213 S.3       23 UNK        -0.2404 
      8 C8         -1.0934  -16.9873  -49.1474 C.3       23 UNK        -0.0205 
      9 C9         -0.3489  -18.2251  -49.6212 C.ar      23 UNK        -0.0193 
     10 C10        -0.9028  -19.0268  -50.6207 C.ar      23 UNK        -0.1150 
     11 C11        -0.2092  -20.1352  -51.1148 C.ar      23 UNK        -0.0193 
     12 C12         1.0294  -20.4708  -50.5589 C.ar      23 UNK        -0.1150 
     13 C13         1.5799  -19.6944  -49.5341 C.ar      23 UNK        -0.0193 
     14 C14         0.8896  -18.5680  -49.0751 C.ar      23 UNK        -0.1150 
     15 C15         2.9395  -20.0387  -48.9474 C.3       23 UNK        -0.0205 
     16 S16         2.8231  -20.5843  -47.2155 S.3       23 UNK        -0.2404 
     17 C17         2.4600  -22.3633  -47.3581 C.3       23 UNK        -0.0398 
     18 CA          1.1549  -22.8402  -46.6735 C.3       11 UNK         0.1400 
     19 N           1.0243  -22.4678  -45.2572 N.am      11 UNK        -0.5000 
     20 C           0.1871  -23.1014  -44.4188 C.2       10 UNK         0.5000 
     21 O          -0.5268  -24.0447  -44.7591 O.2       10 UNK        -0.5000 
     22 CA          0.0892  -22.5916  -42.9719 C.3       10 UNK         0.1400 
     23 CB          1.3271  -22.9929  -42.1557 C.3       10 UNK        -0.1800 
     24 N          -0.1327  -21.1502  -42.8867 N.am      10 UNK        -0.5000 
     25 C          -1.2152  -20.5168  -43.3613 C.2       9 UNK         0.5000 
     26 O          -2.1522  -21.0875  -43.9196 O.2       9 UNK        -0.5000 
     27 CA         -1.2419  -18.9829  -43.2211 C.3       9 UNK         0.1400 
     28 CB         -1.7220  -18.5656  -41.8233 C.3       9 UNK        -0.1800 
     29 N           0.0582  -18.3723  -43.4937 N.am      9 UNK        -0.5000 
     30 C           0.6842  -18.4330  -44.6775 C.2       8 UNK         0.5000 
     31 O           0.2008  -18.9527  -45.6821 O.2       8 UNK        -0.5000 
     32 CA          2.1073  -17.8557  -44.7283 C.3       8 UNK         0.1400 
     33 CB          2.0765  -16.3308  -44.9015 C.3       8 UNK        -0.1800 
     34 N           2.8858  -18.2109  -43.5405 N.am      8 UNK        -0.5000 
     35 C           3.2833  -19.4569  -43.2393 C.2       7 UNK         0.5000 
     36 O           3.0549  -20.4430  -43.9389 O.2       7 UNK        -0.5000 
     37 CA          4.0237  -19.6375  -41.9022 C.3       7 UNK         0.1400 
     38 CB          5.5012  -19.2403  -42.0393 C.3       7 UNK        -0.1800 
     39 N           3.4120  -18.8712  -40.8165 N.am      7 UNK        -0.5000 
     40 C           2.1855  -19.0992  -40.3254 C.2       6 UNK         0.5000 
     41 O           1.4517  -20.0069  -40.7122 O.2       6 UNK        -0.5000 
     42 CA          1.6759  -18.1188  -39.2540 C.3       6 UNK         0.1400 
     43 CB          2.0971  -18.5834  -37.8521 C.3       6 UNK        -0.1800 
     44 N           2.1324  -16.7432  -39.4693 N.am      6 UNK        -0.5000 
     45 C           1.8079  -15.9947  -40.5310 C.2       5 UNK         0.5000 
     46 O           1.1117  -16.3958  -41.4678 O.2       5 UNK        -0.5000 
     47 CA          2.4055  -14.5783  -40.5768 C.3       5 UNK         0.1400 
     48 CB          3.6188  -14.5397  -41.5188 C.3       5 UNK        -0.1800 
     49 N           1.4173  -13.5981  -41.0217 N.am      5 UNK        -0.5000 
     50 C           0.3651  -13.1975  -40.2946 C.2       4 UNK         0.5000 
     51 O           0.1433  -13.5932  -39.1481 O.2       4 UNK        -0.5000 
     52 CA         -0.5907  -12.1848  -40.9633 C.3       4 UNK         0.1400 
     53 CB         -1.4640  -11.4197  -39.9467 C.3       4 UNK        -0.1800 
     54 N           0.0845  -11.2494  -41.8714 N.am      4 UNK        -0.5000 
     55 C           1.0396  -10.3557  -41.5775 C.2       3 UNK         0.5000 
     56 O           1.5204  -10.2099  -40.4522 O.2       3 UNK        -0.5000 
     57 CA          1.5473   -9.4969  -42.7589 C.3       3 UNK         0.1400 
     58 CB          2.5504   -8.4154  -42.3176 C.3       3 UNK        -0.1800 
     59 N           2.1646  -10.3008  -43.8187 N.am      3 UNK        -0.5000 
     60 C           1.5115  -11.0761  -44.6922 C.2       2 UNK         0.5000 
     61 O           0.2831  -11.2138  -44.6949 O.2       2 UNK        -0.5000 
     62 CA          2.3708  -11.8462  -45.7075 C.3       2 UNK         0.1400 
     63 CB          3.2601  -12.8907  -45.0125 C.3       2 UNK        -0.1800 
     64 N           1.4672  -12.5116  -46.6355 N.am      2 UNK        -0.5000 
     65 C           1.6959  -12.7982  -47.9209 C.2       1 UNK         0.5000 
     66 O           2.7830  -12.6264  -48.4739 O.2       1 UNK        -0.5000 
     67 C          -0.1123  -22.5239  -47.4925 C.2       11 UNK         0.5000 
     68 O          -0.4627  -23.3212  -48.3633 O.2       11 UNK        -0.5000 
     69 N          -0.8192  -21.4319  -47.1600 N.am      12 UNK        -0.5000 
     70 CA         -2.1216  -21.0956  -47.7390 C.3       12 UNK         0.1400 
     71 CB         -2.5997  -19.7331  -47.2168 C.3       12 UNK        -0.1800 
     72 C          -3.1836  -22.1705  -47.4550 C.2       12 UNK         0.5000 
     73 O          -3.8744  -22.5989  -48.3808 O.2       12 UNK        -0.5000 
     74 N          -3.2706  -22.6011  -46.1885 N.am      13 UNK        -0.5000 
     75 CA         -4.1795  -23.6466  -45.7245 C.3       13 UNK         0.1400 
     76 CB         -4.1814  -23.6841  -44.1889 C.3       13 UNK        -0.1800 
     77 C          -3.8392  -25.0296  -46.3040 C.2       13 UNK         0.5000 
     78 O          -4.7455  -25.7315  -46.7526 O.2       13 UNK        -0.5000 
     79 N          -2.5463  -25.3860  -46.3088 N.am      14 UNK        -0.5000 
     80 CA         -2.0362  -26.6578  -46.8260 C.3       14 UNK         0.1400 
     81 CB         -0.5483  -26.8023  -46.4738 C.3       14 UNK        -0.1800 
     82 C          -2.2496  -26.8229  -48.3405 C.2       14 UNK         0.5000 
     83 O          -2.6165  -27.9111  -48.7856 O.2       14 UNK        -0.5000 
     84 N          -2.0399  -25.7398  -49.1009 N.am      15 UNK        -0.5000 
     85 CA         -2.2718  -25.6997  -50.5443 C.3       15 UNK         0.1400 
     86 CB         -1.4602  -24.5417  -51.1476 C.3       15 UNK        -0.1800 
     87 C          -3.7575  -25.5401  -50.9154 C.2       15 UNK         0.5000 
     88 O          -4.1013  -25.7517  -52.0774 O.2       15 UNK        -0.5000 
     89 N          -4.5942  -25.1027  -49.9609 N.am      16 UNK        -0.5000 
     90 CA         -5.9820  -24.6530  -50.1378 C.3       16 UNK         0.1400 
     91 CB         -6.9035  -25.8332  -50.5069 C.3       16 UNK        -0.1800 
     92 C          -6.0568  -23.4825  -51.1415 C.2       16 UNK         0.5000 
     93 O          -6.8106  -23.5314  -52.1165 O.2       16 UNK        -0.5000 
     94 N          -5.1712  -22.4959  -50.9300 N.am      17 UNK        -0.5000 
     95 CA         -4.8706  -21.3525  -51.8027 C.3       17 UNK         0.1400 
     96 CB         -6.0705  -20.3864  -51.8633 C.3       17 UNK        -0.1800 
     97 C          -4.3722  -21.7520  -53.2127 C.2       17 UNK         0.5000 
     98 O          -4.4249  -20.9324  -54.1305 O.2       17 UNK        -0.5000 
     99 N          -3.9264  -23.0087  -53.3696 N.am      18 UNK        -0.5000 
    100 CA        -3.5881  -23.6862  -54.6254 C.3       18 UNK         0.1400 
    101 CB        -2.3173  -23.0809  -55.2531 C.3       18 UNK        -0.1800 
    102 C         -4.7899  -23.7435  -55.5916 C.2       18 UNK         0.5000 
    103 O         -4.6210  -23.5529  -56.7948 O.2       18 UNK        -0.5000 
    104 N         -5.9941  -23.9517  -55.0328 N.am      19 UNK        -0.5000 
    105 CA        -7.2992  -23.8601  -55.7003 C.3       19 UNK         0.1400 
    106 CB        -7.4638  -24.9619  -56.7682 C.3       19 UNK        -0.1800 
    107 C         -7.5711  -22.4369  -56.2367 C.2       19 UNK         0.5000 
    108 O         -8.0850  -22.2705  -57.3438 O.2       19 UNK        -0.5000 
    109 N         -7.1896  -21.4409  -55.4237 N.am      20 UNK        -0.5000 
    110 CA        -7.2404  -19.9954  -55.6658 C.3       20 UNK         0.1400 
    111 CB        -8.6897  -19.5152  -55.8902 C.3       20 UNK        -0.1800 
    112 C         -6.2643  -19.5004  -56.7561 C.2       20 UNK         0.5000 
    113 O         -6.4570  -18.4041  -57.2852 O.2       20 UNK        -0.5000 
    114 N         -5.2230  -20.2878  -57.0646 N.am      21 UNK        -0.5000 
    115 CA        -4.1468  -19.8962  -57.9765 C.3       21 UNK         0.1400 
    116 CB        -3.4766  -21.1438  -58.5688 C.3       21 UNK        -0.1800 
    117 C         -3.1036  -18.9866  -57.3005 C.2       21 UNK         0.5000 
    118 O         -2.4818  -18.1805  -57.9947 O.2       21 UNK        -0.5000 
    119 N         -2.9292  -19.1102  -55.9762 N.am      22 UNK        -0.5000 
    120 CA        -2.1065  -18.1908  -55.1760 C.3       22 UNK         0.1400 
    121 C         -2.8123  -16.8173  -55.0022 C.2       22 UNK         0.5000 
    122 N         -2.0928  -15.7153  -55.1639 N.am      22 UNK        -0.7600 
    123 O         -3.9960  -16.7436  -54.6797 O.2       22 UNK        -0.5000 
    124 C124       -1.7389  -18.7771  -53.7911 C.3       23 UNK        -0.0398 
    125 S125       -0.5954  -20.1976  -53.8816 S.3       23 UNK        -0.2404 
    126 C126       -0.8025  -20.9710  -52.2406 C.3       23 UNK        -0.0205 
    127 H127       -3.0185  -13.0327  -46.8337 H         1 UNK         0.0600 
    128 H128       -3.5705  -11.6742  -47.8175 H         1 UNK         0.0600 
    129 H129       -2.6926  -11.3772  -46.3122 H         1 UNK         0.0600 
    130 H130       -1.1815  -14.0122  -47.6317 H         1 UNK         0.3000 
    131 H131        0.4654  -12.7834  -49.6578 H         1 UNK         0.0600 
    132 H132        1.6683  -14.9242  -49.7187 H         1 UNK         0.0800 
    133 H133        0.9175  -15.4492  -48.2365 H         1 UNK         0.0800 
    134 H134       -2.1680  -17.1406  -49.2577 H         1 UNK         0.0800 
    135 H135       -0.9235  -16.8191  -48.0830 H         1 UNK         0.0800 
    136 H136       -1.8695  -18.7696  -51.0270 H         1 UNK         0.1150 
    137 H137        1.5673  -21.3321  -50.9290 H         1 UNK         0.1150 
    138 H138        1.3186  -17.9606  -48.2908 H         1 UNK         0.1150 
    139 H139        3.4512  -20.7947  -49.5447 H         1 UNK         0.0800 
    140 H140        3.5689  -19.1486  -48.9860 H         1 UNK         0.0800 
    141 H141        2.4653  -22.6594  -48.4085 H         1 UNK         0.0800 
    142 H142        3.3023  -22.8902  -46.9083 H         1 UNK         0.0800 
    143 H143        1.2255  -23.9299  -46.6843 H         1 UNK         0.0600 
    144 H144        1.5867  -21.6901  -44.9268 H         1 UNK         0.3000 
    145 H145       -0.7758  -23.0775  -42.5156 H         1 UNK         0.0600 
    146 H146        1.2078  -22.7293  -41.1048 H         1 UNK         0.0600 
    147 H147        2.2312  -22.5078  -42.5215 H         1 UNK         0.0600 
    148 H148        1.4919  -24.0700  -42.2023 H         1 UNK         0.0600 
    149 H149        0.5692  -20.6130  -42.3881 H         1 UNK         0.3000 
    150 H150       -1.9515  -18.5945  -43.9545 H         1 UNK         0.0600 
    151 H151       -2.7152  -18.9662  -41.6174 H         1 UNK         0.0600 
    152 H152       -1.7821  -17.4806  -41.7342 H         1 UNK         0.0600 
    153 H153       -1.0538  -18.9281  -41.0423 H         1 UNK         0.0600 
    154 H154        0.5090  -17.8837  -42.7270 H         1 UNK         0.3000 
    155 H155        2.6121  -18.2736  -45.5990 H         1 UNK         0.0600 
    156 H156        1.5362  -16.0527  -45.8070 H         1 UNK         0.0600 
    157 H157        3.0856  -15.9289  -44.9899 H         1 UNK         0.0600 
    158 H158        1.5850  -15.8362  -44.0636 H         1 UNK         0.0600 
    159 H159        3.0686  -17.4714  -42.8797 H         1 UNK         0.3000 
    160 H160        3.9782  -20.6959  -41.6363 H         1 UNK         0.0600 
    161 H161        5.6159  -18.1813  -42.2742 H         1 UNK         0.0600 
    162 H162        5.9845  -19.8076  -42.8359 H         1 UNK         0.0600 
    163 H163        6.0504  -19.4418  -41.1194 H         1 UNK         0.0600 
    164 H164        3.9479  -18.1053  -40.4365 H         1 UNK         0.3000 
    165 H165        0.5849  -18.1190  -39.2995 H         1 UNK         0.0600 
    166 H166        1.6698  -17.9439  -37.0795 H         1 UNK         0.0600 
    167 H167        1.7516  -19.5998  -37.6581 H         1 UNK         0.0600 
    168 H168        3.1813  -18.5769  -37.7331 H         1 UNK         0.0600 
    169 H169        2.7115  -16.3436  -38.7447 H         1 UNK         0.3000 
    170 H170        2.7379  -14.2955  -39.5756 H         1 UNK         0.0600 
    171 H171        3.3580  -14.8560  -42.5283 H         1 UNK         0.0600 
    172 H172        4.0417  -13.5367  -41.5794 H         1 UNK         0.0600 
    173 H173        4.4084  -15.2032  -41.1640 H         1 UNK         0.0600 
    174 H174        1.5141  -13.2455  -41.9610 H         1 UNK         0.3000 
    175 H175       -1.2609  -12.7780  -41.5869 H         1 UNK         0.0600 
    176 H176       -0.8591  -10.8457  -39.2442 H         1 UNK         0.0600 
    177 H177       -2.1405  -10.7286  -40.4497 H         1 UNK         0.0600 
    178 H178       -2.0795  -12.1056  -39.3635 H         1 UNK         0.0600 
    179 H179       -0.1869  -11.3103  -42.8498 H         1 UNK         0.3000 
    180 H180        0.6776   -8.9851  -43.1766 H         1 UNK         0.0600 
    181 H181        3.4598   -8.8531  -41.9039 H         1 UNK         0.0600 
    182 H182        2.1183   -7.7690  -41.5526 H         1 UNK         0.0600 
    183 H183        2.8357   -7.7774  -43.1542 H         1 UNK         0.0600 
    184 H184        3.1728  -10.2657  -43.8638 H         1 UNK         0.3000 
    185 H185        2.9902  -11.1279  -46.2485 H         1 UNK         0.0600 
    186 H186        2.6645  -13.5644  -44.3980 H         1 UNK         0.0600 
    187 H187        3.8083  -13.4921  -45.7379 H         1 UNK         0.0600 
    188 H188        3.9970  -12.4176  -44.3629 H         1 UNK         0.0600 
    189 H189        0.5225  -12.6031  -46.2825 H         1 UNK         0.3000 
    190 H190       -0.4467  -20.7904  -46.4676 H         1 UNK         0.3000 
    191 H191       -1.9934  -21.0256  -48.8205 H         1 UNK         0.0600 
    192 H192       -1.8458  -18.9655  -47.3695 H         1 UNK         0.0600 
    193 H193       -2.8232  -19.7598  -46.1506 H         1 UNK         0.0600 
    194 H194       -3.5042  -19.4128  -47.7350 H         1 UNK         0.0600 
    195 H195       -2.6838  -22.1667  -45.4816 H         1 UNK         0.3000 
    196 H196       -5.1862  -23.3856  -46.0576 H         1 UNK         0.0600 
    197 H197       -4.5120  -22.7321  -43.7732 H         1 UNK         0.0600 
    198 H198       -3.1885  -23.8947  -43.7895 H         1 UNK         0.0600 
    199 H199       -4.8575  -24.4546  -43.8163 H         1 UNK         0.0600 
    200 H200       -1.8639  -24.7660  -45.8784 H         1 UNK         0.3000 
    201 H201       -2.5813  -27.4609  -46.3257 H         1 UNK         0.0600 
    202 H202       -0.3925  -26.7656  -45.3955 H         1 UNK         0.0600 
    203 H203        0.0491  -26.0111  -46.9270 H         1 UNK         0.0600 
    204 H204       -0.1534  -27.7557  -46.8268 H         1 UNK         0.0600 
    205 H205       -1.6868  -24.8883  -48.6735 H         1 UNK         0.3000 
    206 H206       -1.9162  -26.6321  -50.9880 H         1 UNK         0.0600 
    207 H207       -0.3997  -24.6392  -50.9151 H         1 UNK         0.0600 
    208 H208       -1.7976  -23.5762  -50.7680 H         1 UNK         0.0600 
    209 H209       -1.5515  -24.5195  -52.2341 H         1 UNK         0.0600 
    210 H210       -4.2048  -24.9389  -49.0418 H         1 UNK         0.3000 
    211 H211       -6.3091  -24.2612  -49.1735 H         1 UNK         0.0600 
    212 H212       -6.6609  -26.2528  -51.4835 H         1 UNK         0.0600 
    213 H213       -7.9464  -25.5161  -50.5387 H         1 UNK         0.0600 
    214 H214       -6.8290  -26.6335  -49.7705 H         1 UNK         0.0600 
    215 H215       -4.6131  -22.5552  -50.0791 H         1 UNK         0.3000 
    216 H216       -4.0482  -20.8183  -51.3265 H         1 UNK         0.0600 
    217 H217       -5.8107  -19.4697  -52.3942 H         1 UNK         0.0600 
    218 H218       -6.3916  -20.0971  -50.8627 H         1 UNK         0.0600 
    219 H219       -6.9261  -20.8299  -52.3729 H         1 UNK         0.0600 
    220 H220       -3.9718  -23.6233  -52.5678 H         1 UNK         0.3000 
    221 H221       -3.3598  -24.7222  -54.3747 H         1 UNK         0.0600 
    222 H222       -2.4582  -22.0376  -55.5323 H         1 UNK         0.0600 
    223 H223       -1.4788  -23.1291  -54.5589 H         1 UNK         0.0600 
    224 H224       -2.0234  -23.6251  -56.1511 H         1 UNK         0.0600 
    225 H225       -6.0388  -24.0649  -54.0255 H         1 UNK         0.3000 
    226 H226       -8.0475  -24.0401  -54.9270 H         1 UNK         0.0600 
    227 H227       -7.2596  -25.9481  -56.3513 H         1 UNK         0.0600 
    228 H228       -8.4832  -24.9783  -57.1550 H         1 UNK         0.0600 
    229 H229       -6.7971  -24.8116  -57.6175 H         1 UNK         0.0600 
    230 H230       -6.7407  -21.7062  -54.5588 H         1 UNK         0.3000 
    231 H231       -6.8915  -19.5340  -54.7413 H         1 UNK         0.0600 
    232 H232       -8.7457  -18.4261  -55.8861 H         1 UNK         0.0600 
    233 H233       -9.3512  -19.8742  -55.1019 H         1 UNK         0.0600 
    234 H234       -9.0878  -19.8564  -56.8460 H         1 UNK         0.0600 
    235 H235       -5.1206  -21.1728  -56.5865 H         1 UNK         0.3000 
    236 H236       -4.5820  -19.3363  -58.8072 H         1 UNK         0.0600 
    237 H237       -2.9492  -21.7196  -57.8097 H         1 UNK         0.0600 
    238 H238       -4.2079  -21.7996  -59.0417 H         1 UNK         0.0600 
    239 H239       -2.7466  -20.8670  -59.3303 H         1 UNK         0.0600 
    240 H240       -3.4970  -19.7717  -55.4559 H         1 UNK         0.3000 
    241 H241       -1.1730  -18.0224  -55.7173 H         1 UNK         0.0600 
    242 H242       -2.5368  -14.8188  -55.0382 H         1 UNK         0.3800 
    243 H243       -1.1192  -15.7514  -55.4242 H         1 UNK         0.3800 
    244 H244       -2.6420  -19.0661  -53.2522 H         1 UNK         0.0800 
    245 H245       -1.2452  -18.0128  -53.1883 H         1 UNK         0.0800 
    246 H246       -0.3287  -21.9533  -52.2639 H         1 UNK         0.0800 
    247 H247       -1.8555  -21.1540  -52.0442 H         1 UNK         0.0800 
@<TRIPOS>BOND
     1    1    2 1    
     2    1  127 1    
     3    1  128 1    
     4    1  129 1    
     5    2    3 2    
     6    2    4 am   BACKBONE|DICT|INTERRES
     7    4    5 1    
     8    4  130 1    
     9    5    6 1    
    10    5   65 1    
    11    5  131 1    
    12    6    7 1    
    13    6  132 1    
    14    6  133 1    
    15    7    8 1    
    16    8    9 1    
    17    8  134 1    
    18    8  135 1    
    19    9   10 ar   
    20    9   14 ar   
    21   10   11 ar   
    22   10  136 1    
    23   11   12 ar   
    24   11  126 1    
    25   12   13 ar   
    26   12  137 1    
    27   13   14 ar   
    28   13   15 1    
    29   14  138 1    
    30   15   16 1    
    31   15  139 1    
    32   15  140 1    
    33   16   17 1    
    34   17   18 1    
    35   17  141 1    
    36   17  142 1    
    37   18   19 1    
    38   18   67 1    
    39   18  143 1    
    40   19   20 am   BACKBONE|DICT|INTERRES
    41   19  144 1    
    42   20   21 2    
    43   20   22 1    
    44   22   23 1    
    45   22   24 1    
    46   22  145 1    
    47   23  146 1    
    48   23  147 1    
    49   23  148 1    
    50   24   25 am   BACKBONE|DICT|INTERRES
    51   24  149 1    
    52   25   26 2    
    53   25   27 1    
    54   27   28 1    
    55   27   29 1    
    56   27  150 1    
    57   28  151 1    
    58   28  152 1    
    59   28  153 1    
    60   29   30 am   BACKBONE|DICT|INTERRES
    61   29  154 1    
    62   30   31 2    
    63   30   32 1    
    64   32   33 1    
    65   32   34 1    
    66   32  155 1    
    67   33  156 1    
    68   33  157 1    
    69   33  158 1    
    70   34   35 am   BACKBONE|DICT|INTERRES
    71   34  159 1    
    72   35   36 2    
    73   35   37 1    
    74   37   38 1    
    75   37   39 1    
    76   37  160 1    
    77   38  161 1    
    78   38  162 1    
    79   38  163 1    
    80   39   40 am   BACKBONE|DICT|INTERRES
    81   39  164 1    
    82   40   41 2    
    83   40   42 1    
    84   42   43 1    
    85   42   44 1    
    86   42  165 1    
    87   43  166 1    
    88   43  167 1    
    89   43  168 1    
    90   44   45 am   BACKBONE|DICT|INTERRES
    91   44  169 1    
    92   45   46 2    
    93   45   47 1    
    94   47   48 1    
    95   47   49 1    
    96   47  170 1    
    97   48  171 1    
    98   48  172 1    
    99   48  173 1    
   100   49   50 am   BACKBONE|DICT|INTERRES
   101   49  174 1    
   102   50   51 2    
   103   50   52 1    
   104   52   53 1    
   105   52   54 1    
   106   52  175 1    
   107   53  176 1    
   108   53  177 1    
   109   53  178 1    
   110   54   55 am   BACKBONE|DICT|INTERRES
   111   54  179 1    
   112   55   56 2    
   113   55   57 1    
   114   57   58 1    
   115   57   59 1    
   116   57  180 1    
   117   58  181 1    
   118   58  182 1    
   119   58  183 1    
   120   59   60 am   BACKBONE|DICT|INTERRES
   121   59  184 1    
   122   60   61 2    
   123   60   62 1    
   124   62   63 1    
   125   62   64 1    
   126   62  185 1    
   127   63  186 1    
   128   63  187 1    
   129   63  188 1    
   130   64   65 am   BACKBONE|DICT|INTERRES
   131   64  189 1    
   132   65   66 2    
   133   67   68 2    
   134   67   69 am   BACKBONE|DICT|INTERRES
   135   69   70 1    
   136   69  190 1    
   137   70   71 1    
   138   70   72 1    
   139   70  191 1    
   140   71  192 1    
   141   71  193 1    
   142   71  194 1    
   143   72   73 2    
   144   72   74 am   BACKBONE|DICT|INTERRES
   145   74   75 1    
   146   74  195 1    
   147   75   76 1    
   148   75   77 1    
   149   75  196 1    
   150   76  197 1    
   151   76  198 1    
   152   76  199 1    
   153   77   78 2    
   154   77   79 am   BACKBONE|DICT|INTERRES
   155   79   80 1    
   156   79  200 1    
   157   80   81 1    
   158   80   82 1    
   159   80  201 1    
   160   81  202 1    
   161   81  203 1    
   162   81  204 1    
   163   82   83 2    
   164   82   84 am   BACKBONE|DICT|INTERRES
   165   84   85 1    
   166   84  205 1    
   167   85   86 1    
   168   85   87 1    
   169   85  206 1    
   170   86  207 1    
   171   86  208 1    
   172   86  209 1    
   173   87   88 2    
   174   87   89 am   BACKBONE|DICT|INTERRES
   175   89   90 1    
   176   89  210 1    
   177   90   91 1    
   178   90   92 1    
   179   90  211 1    
   180   91  212 1    
   181   91  213 1    
   182   91  214 1    
   183   92   93 2    
   184   92   94 am   BACKBONE|DICT|INTERRES
   185   94   95 1    
   186   94  215 1    
   187   95   96 1    
   188   95   97 1    
   189   95  216 1    
   190   96  217 1    
   191   96  218 1    
   192   96  219 1    
   193   97   98 2    
   194   97   99 am   BACKBONE|DICT|INTERRES
   195   99  100 1    
   196   99  220 1    
   197  100  101 1    
   198  100  102 1    
   199  100  221 1    
   200  101  222 1    
   201  101  223 1    
   202  101  224 1    
   203  102  103 2    
   204  102  104 am   BACKBONE|DICT|INTERRES
   205  104  105 1    
   206  104  225 1    
   207  105  106 1    
   208  105  107 1    
   209  105  226 1    
   210  106  227 1    
   211  106  228 1    
   212  106  229 1    
   213  107  108 2    
   214  107  109 am   BACKBONE|DICT|INTERRES
   215  109  110 1    
   216  109  230 1    
   217  110  111 1    
   218  110  112 1    
   219  110  231 1    
   220  111  232 1    
   221  111  233 1    
   222  111  234 1    
   223  112  113 2    
   224  112  114 am   BACKBONE|DICT|INTERRES
   225  114  115 1    
   226  114  235 1    
   227  115  116 1    
   228  115  117 1    
   229  115  236 1    
   230  116  237 1    
   231  116  238 1    
   232  116  239 1    
   233  117  118 2    
   234  117  119 am   BACKBONE|DICT|INTERRES
   235  119  120 1    
   236  119  240 1    
   237  120  121 1    
   238  120  124 1    
   239  120  241 1    
   240  121  122 am   BACKBONE|DICT|INTERRES
   241  121  123 2    
   242  122  242 1    
   243  122  243 1    
   244  124  125 1    
   245  124  244 1    
   246  124  245 1    
   247  125  126 1    
   248  126  246 1    
   249  126  247 1    
@<TRIPOS>SUBSTRUCTURE
     1 UNK         1 GROUP             0       ****    0 ROOT    
