@<TRIPOS>MOLECULE
3R540
247   249    1
SMALL
USER_CHARGES


@<TRIPOS>ATOM
      1 CA         -3.8097  -12.3740  -48.3449 C.3       0 UNK        -0.1800 
      2 C          -2.5171  -11.9927  -47.6402 C.2       0 UNK         0.5000 
      3 O          -2.5304  -11.1554  -46.7387 O.2       0 UNK        -0.5000 
      4 N          -1.4014  -12.6114  -48.0451 N.am      1 UNK        -0.5000 
      5 CA         -0.0557  -12.3773  -47.5059 C.3       1 UNK         0.1400 
      6 C6          1.0305  -12.5142  -48.6050 C.3       23 UNK        -0.0398 
      7 S7          1.4482  -14.2210  -49.1094 S.3       23 UNK        -0.2404 
      8 C8          0.5028  -14.4421  -50.6510 C.3       23 UNK        -0.0205 
      9 C9         -0.9766  -14.7607  -50.4502 C.ar      23 UNK        -0.0193 
     10 C10        -1.8997  -14.3013  -51.3915 C.ar      23 UNK        -0.1150 
     11 C11        -3.2471  -14.6585  -51.3024 C.ar      23 UNK        -0.0193 
     12 C12        -3.6810  -15.4390  -50.2280 C.ar      23 UNK        -0.1150 
     13 C13        -2.7798  -15.8929  -49.2601 C.ar      23 UNK        -0.0193 
     14 C14        -1.4252  -15.5559  -49.3872 C.ar      23 UNK        -0.1150 
     15 C15        -3.3191  -16.7244  -48.0942 C.3       23 UNK        -0.0205 
     16 S16        -2.0966  -17.8006  -47.2697 S.3       23 UNK        -0.2404 
     17 C17        -3.1464  -18.6624  -46.0491 C.3       23 UNK        -0.0398 
     18 CA         -3.2633  -20.1729  -46.3535 C.3       11 UNK         0.1400 
     19 N          -1.9705  -20.8644  -46.2779 N.am      11 UNK        -0.5000 
     20 C          -1.7558  -22.1391  -46.6327 C.2       10 UNK         0.5000 
     21 O          -2.6442  -22.9001  -47.0155 O.2       10 UNK        -0.5000 
     22 CA         -0.3163  -22.6579  -46.5296 C.3       10 UNK         0.1400 
     23 CB          0.5352  -22.1356  -47.6971 C.3       10 UNK        -0.1800 
     24 N           0.2806  -22.2657  -45.2556 N.am      10 UNK        -0.5000 
     25 C           0.1229  -22.9508  -44.1142 C.2       9 UNK         0.5000 
     26 O          -0.4673  -24.0289  -44.0405 O.2       9 UNK        -0.5000 
     27 CA          0.7040  -22.3222  -42.8318 C.3       9 UNK         0.1400 
     28 CB          2.1488  -22.7936  -42.6083 C.3       9 UNK        -0.1800 
     29 N           0.6730  -20.8584  -42.8283 N.am      9 UNK        -0.5000 
     30 C          -0.4445  -20.1195  -42.8539 C.2       8 UNK         0.5000 
     31 O          -1.5791  -20.5916  -42.8792 O.2       8 UNK        -0.5000 
     32 CA         -0.2680  -18.5928  -42.9217 C.3       8 UNK         0.1400 
     33 CB         -0.1532  -18.0018  -41.5086 C.3       8 UNK        -0.1800 
     34 N           0.8690  -18.1473  -43.7327 N.am      8 UNK        -0.5000 
     35 C           1.1157  -18.4862  -45.0075 C.2       7 UNK         0.5000 
     36 O           0.4446  -19.3094  -45.6309 O.2       7 UNK        -0.5000 
     37 CA          2.2995  -17.7915  -45.7109 C.3       7 UNK         0.1400 
     38 CB          1.8102  -17.0331  -46.9535 C.3       7 UNK        -0.1800 
     39 N           3.0406  -16.8549  -44.8583 N.am      7 UNK        -0.5000 
     40 C           3.9317  -17.1988  -43.9171 C.2       6 UNK         0.5000 
     41 O           4.1747  -18.3681  -43.6176 O.2       6 UNK        -0.5000 
     42 CA          4.6267  -16.0458  -43.1567 C.3       6 UNK         0.1400 
     43 CB          6.0533  -16.4107  -42.6968 C.3       6 UNK        -0.1800 
     44 N           4.6129  -14.7644  -43.8760 N.am      6 UNK        -0.5000 
     45 C           5.2190  -14.4649  -45.0364 C.2       5 UNK         0.5000 
     46 O           5.9178  -15.2589  -45.6666 O.2       5 UNK        -0.5000 
     47 CA          4.9830  -13.0496  -45.6025 C.3       5 UNK         0.1400 
     48 CB          4.5735  -13.1124  -47.0827 C.3       5 UNK        -0.1800 
     49 N           3.9407  -12.3339  -44.8606 N.am      5 UNK        -0.5000 
     50 C           4.1549  -11.3330  -43.9977 C.2       4 UNK         0.5000 
     51 O           5.2653  -10.8621  -43.7494 O.2       4 UNK        -0.5000 
     52 CA          2.9163  -10.7907  -43.2607 C.3       4 UNK         0.1400 
     53 CB          2.0740   -9.9007  -44.1883 C.3       4 UNK        -0.1800 
     54 N           2.0706  -11.8519  -42.7100 N.am      4 UNK        -0.5000 
     55 C           2.4216  -12.7130  -41.7463 C.2       3 UNK         0.5000 
     56 O           3.5288  -12.7158  -41.2097 O.2       3 UNK        -0.5000 
     57 CA          1.3919  -13.7861  -41.3342 C.3       3 UNK         0.1400 
     58 CB          0.4419  -13.2654  -40.2391 C.3       3 UNK        -0.1800 
     59 N           0.6586  -14.3809  -42.4613 N.am      3 UNK        -0.5000 
     60 C          -0.2512  -13.8125  -43.2628 C.2       2 UNK         0.5000 
     61 O          -0.6726  -12.6619  -43.1275 O.2       2 UNK        -0.5000 
     62 CA         -0.7303  -14.6678  -44.4509 C.3       2 UNK         0.1400 
     63 CB         -2.1230  -15.2491  -44.1684 C.3       2 UNK        -0.1800 
     64 N          -0.7720  -13.9042  -45.6979 N.am      2 UNK        -0.5000 
     65 C           0.2426  -13.2059  -46.2314 C.2       1 UNK         0.5000 
     66 O           1.3797  -13.1968  -45.7528 O.2       1 UNK        -0.5000 
     67 C          -4.3480  -20.8385  -45.4801 C.2       11 UNK         0.5000 
     68 O          -5.4782  -20.9916  -45.9447 O.2       11 UNK        -0.5000 
     69 N          -3.9794  -21.2894  -44.2711 N.am      12 UNK        -0.5000 
     70 CA         -4.8493  -22.0428  -43.3599 C.3       12 UNK         0.1400 
     71 CB         -4.1716  -22.1583  -41.9864 C.3       12 UNK        -0.1800 
     72 C          -5.2328  -23.4420  -43.8834 C.2       12 UNK         0.5000 
     73 O          -6.2539  -23.9852  -43.4619 O.2       12 UNK        -0.5000 
     74 N          -4.4340  -23.9839  -44.8115 N.am      13 UNK        -0.5000 
     75 CA         -4.6777  -25.2373  -45.5234 C.3       13 UNK         0.1400 
     76 CB         -3.3423  -25.9901  -45.6703 C.3       13 UNK        -0.1800 
     77 C          -5.3562  -24.9893  -46.8877 C.2       13 UNK         0.5000 
     78 O          -5.1932  -25.8001  -47.7992 O.2       13 UNK        -0.5000 
     79 N          -6.0852  -23.8694  -47.0194 N.am      14 UNK        -0.5000 
     80 CA         -6.7996  -23.4074  -48.2151 C.3       14 UNK         0.1400 
     81 CB         -7.9556  -24.3659  -48.5717 C.3       14 UNK        -0.1800 
     82 C          -5.8470  -23.1421  -49.3973 C.2       14 UNK         0.5000 
     83 O          -6.1058  -23.5835  -50.5175 O.2       14 UNK        -0.5000 
     84 N          -4.7358  -22.4526  -49.1022 N.am      15 UNK        -0.5000 
     85 CA         -3.6167  -22.1534  -50.0027 C.3       15 UNK         0.1400 
     86 CB         -4.0542  -21.1875  -51.1179 C.3       15 UNK        -0.1800 
     87 C          -2.9545  -23.4449  -50.5237 C.2       15 UNK         0.5000 
     88 O          -2.7647  -23.6120  -51.7305 O.2       15 UNK        -0.5000 
     89 N          -2.6664  -24.3510  -49.5769 N.am      16 UNK        -0.5000 
     90 CA         -2.1481  -25.7088  -49.7667 C.3       16 UNK         0.1400 
     91 CB         -0.6852  -25.6583  -50.2549 C.3       16 UNK        -0.1800 
     92 C          -3.0605  -26.5524  -50.6819 C.2       16 UNK         0.5000 
     93 O          -2.5964  -27.1033  -51.6793 O.2       16 UNK        -0.5000 
     94 N          -4.3606  -26.5881  -50.3547 N.am      17 UNK        -0.5000 
     95 CA         -5.4494  -27.2035  -51.1252 C.3       17 UNK         0.1400 
     96 CB         -5.3511  -28.7415  -51.0638 C.3       17 UNK        -0.1800 
     97 C          -5.5333  -26.6580  -52.5689 C.2       17 UNK         0.5000 
     98 O          -5.7029  -27.4234  -53.5196 O.2       17 UNK        -0.5000 
     99 N          -5.3661  -25.3344  -52.6912 N.am      18 UNK        -0.5000 
    100 CA        -5.2858  -24.5296  -53.9120 C.3       18 UNK         0.1400 
    101 CB        -6.6138  -24.5814  -54.6943 C.3       18 UNK        -0.1800 
    102 C         -4.0635  -24.8199  -54.8121 C.2       18 UNK         0.5000 
    103 O         -4.0061  -24.2883  -55.9219 O.2       18 UNK        -0.5000 
    104 N         -3.0858  -25.6101  -54.3417 N.am      19 UNK        -0.5000 
    105 CA        -1.8443  -25.8858  -55.0725 C.3       19 UNK         0.1400 
    106 CB        -1.1676  -27.1407  -54.5022 C.3       19 UNK        -0.1800 
    107 C         -0.8673  -24.6951  -55.0519 C.2       19 UNK         0.5000 
    108 O         -0.0227  -24.5944  -55.9426 O.2       19 UNK        -0.5000 
    109 N         -1.0050  -23.8150  -54.0529 N.am      20 UNK        -0.5000 
    110 CA        -0.2187  -22.5989  -53.8728 C.3       20 UNK         0.1400 
    111 CB         0.6417  -22.7466  -52.6036 C.3       20 UNK        -0.1800 
    112 C         -1.1509  -21.3749  -53.8159 C.2       20 UNK         0.5000 
    113 O         -0.8927  -20.4557  -53.0373 O.2       20 UNK        -0.5000 
    114 N         -2.2227  -21.3955  -54.6275 N.am      21 UNK        -0.5000 
    115 CA        -3.2785  -20.3819  -54.7470 C.3       21 UNK         0.1400 
    116 CB        -4.2280  -20.7795  -55.8893 C.3       21 UNK        -0.1800 
    117 C         -2.7387  -18.9498  -54.9346 C.2       21 UNK         0.5000 
    118 O         -2.4041  -18.5578  -56.0543 O.2       21 UNK        -0.5000 
    119 N         -2.6343  -18.2241  -53.8151 N.am      22 UNK        -0.5000 
    120 CA        -2.0187  -16.8943  -53.6854 C.3       22 UNK         0.1400 
    121 C         -0.4993  -16.8445  -54.0374 C.2       22 UNK         0.5000 
    122 N          0.2351  -17.9421  -53.9016 N.am      22 UNK        -0.7600 
    123 O          0.0323  -15.8014  -54.4083 O.2       22 UNK        -0.5000 
    124 C124       -2.8531  -15.7628  -54.3531 C.3       23 UNK        -0.0398 
    125 S125       -4.5075  -15.5783  -53.5967 S.3       23 UNK        -0.2404 
    126 C126       -4.2245  -14.2378  -52.3900 C.3       23 UNK        -0.0205 
    127 H127       -4.5582  -11.5904  -48.2262 H         1 UNK         0.0600 
    128 H128       -4.2111  -13.2975  -47.9276 H         1 UNK         0.0600 
    129 H129       -3.6429  -12.5175  -49.4120 H         1 UNK         0.0600 
    130 H130       -1.4579  -13.3129  -48.7727 H         1 UNK         0.3000 
    131 H131       -0.0130  -11.3368  -47.1769 H         1 UNK         0.0600 
    132 H132        1.9533  -12.0530  -48.2509 H         1 UNK         0.0800 
    133 H133        0.7455  -11.9349  -49.4840 H         1 UNK         0.0800 
    134 H134        0.9471  -15.2697  -51.2055 H         1 UNK         0.0800 
    135 H135        0.6285  -13.5567  -51.2762 H         1 UNK         0.0800 
    136 H136       -1.5595  -13.7052  -52.2269 H         1 UNK         0.1150 
    137 H137       -4.7262  -15.7061  -50.1559 H         1 UNK         0.1150 
    138 H138       -0.7120  -15.9155  -48.6605 H         1 UNK         0.1150 
    139 H139       -3.7436  -16.0434  -47.3556 H         1 UNK         0.0800 
    140 H140       -4.1371  -17.3532  -48.4494 H         1 UNK         0.0800 
    141 H141       -4.1324  -18.1942  -46.0344 H         1 UNK         0.0800 
    142 H142       -2.7243  -18.5063  -45.0569 H         1 UNK         0.0800 
    143 H143       -3.6053  -20.2655  -47.3861 H         1 UNK         0.0600 
    144 H144       -1.1731  -20.2945  -46.0077 H         1 UNK         0.3000 
    145 H145       -0.3447  -23.7475  -46.6004 H         1 UNK         0.0600 
    146 H146        0.6009  -21.0470  -47.7010 H         1 UNK         0.0600 
    147 H147        1.5497  -22.5314  -47.6505 H         1 UNK         0.0600 
    148 H148        0.1110  -22.4413  -48.6547 H         1 UNK         0.0600 
    149 H149        0.7101  -21.3490  -45.2223 H         1 UNK         0.3000 
    150 H150        0.0971  -22.6700  -41.9931 H         1 UNK         0.0600 
    151 H151        2.2051  -23.8827  -42.5835 H         1 UNK         0.0600 
    152 H152        2.5412  -22.4276  -41.6594 H         1 UNK         0.0600 
    153 H153        2.8120  -22.4482  -43.4025 H         1 UNK         0.0600 
    154 H154        1.5638  -20.3830  -42.8319 H         1 UNK         0.3000 
    155 H155       -1.1692  -18.1866  -43.3816 H         1 UNK         0.0600 
    156 H156       -0.9734  -18.3428  -40.8750 H         1 UNK         0.0600 
    157 H157       -0.1981  -16.9139  -41.5260 H         1 UNK         0.0600 
    158 H158        0.7785  -18.2950  -41.0232 H         1 UNK         0.0600 
    159 H159        1.5352  -17.5402  -43.2845 H         1 UNK         0.3000 
    160 H160        2.9822  -18.5775  -46.0397 H         1 UNK         0.0600 
    161 H161        2.6442  -16.5862  -47.4948 H         1 UNK         0.0600 
    162 H162        1.1137  -16.2360  -46.6922 H         1 UNK         0.0600 
    163 H163        1.2957  -17.6989  -47.6479 H         1 UNK         0.0600 
    164 H164        2.9127  -15.8733  -45.0566 H         1 UNK         0.3000 
    165 H165        4.0311  -15.8858  -42.2569 H         1 UNK         0.0600 
    166 H166        6.6983  -16.6694  -43.5368 H         1 UNK         0.0600 
    167 H167        6.5174  -15.5841  -42.1588 H         1 UNK         0.0600 
    168 H168        6.0404  -17.2674  -42.0219 H         1 UNK         0.0600 
    169 H169        4.0965  -14.0176  -43.4338 H         1 UNK         0.3000 
    170 H170        5.9332  -12.5162  -45.5374 H         1 UNK         0.0600 
    171 H171        3.6778  -13.7176  -47.2203 H         1 UNK         0.0600 
    172 H172        4.3743  -12.1176  -47.4808 H         1 UNK         0.0600 
    173 H173        5.3629  -13.5529  -47.6927 H         1 UNK         0.0600 
    174 H174        2.9838  -12.6362  -45.0384 H         1 UNK         0.3000 
    175 H175        3.2667  -10.1779  -42.4276 H         1 UNK         0.0600 
    176 H176        1.6595  -10.4650  -45.0243 H         1 UNK         0.0600 
    177 H177        1.2432   -9.4455  -43.6487 H         1 UNK         0.0600 
    178 H178        2.6745   -9.0905  -44.6038 H         1 UNK         0.0600 
    179 H179        1.1292  -11.9314  -43.0829 H         1 UNK         0.3000 
    180 H180        1.9625  -14.6067  -40.8961 H         1 UNK         0.0600 
    181 H181       -0.1361  -12.4029  -40.5712 H         1 UNK         0.0600 
    182 H182        1.0028  -12.9564  -39.3562 H         1 UNK         0.0600 
    183 H183       -0.2587  -14.0389  -39.9247 H         1 UNK         0.0600 
    184 H184        0.9345  -15.3244  -42.6788 H         1 UNK         0.3000 
    185 H185       -0.0334  -15.4936  -44.6002 H         1 UNK         0.0600 
    186 H186       -2.4537  -15.8957  -44.9796 H         1 UNK         0.0600 
    187 H187       -2.1220  -15.8459  -43.2557 H         1 UNK         0.0600 
    188 H188       -2.8678  -14.4619  -44.0443 H         1 UNK         0.0600 
    189 H189       -1.6712  -13.8280  -46.1475 H         1 UNK         0.3000 
    190 H190       -3.0349  -21.1093  -43.9366 H         1 UNK         0.3000 
    191 H191       -5.7749  -21.4769  -43.2357 H         1 UNK         0.0600 
    192 H192       -3.2249  -22.6964  -42.0511 H         1 UNK         0.0600 
    193 H193       -3.9705  -21.1745  -41.5620 H         1 UNK         0.0600 
    194 H194       -4.8064  -22.6927  -41.2784 H         1 UNK         0.0600 
    195 H195       -3.6429  -23.4457  -45.1413 H         1 UNK         0.3000 
    196 H196       -5.3530  -25.8688  -44.9432 H         1 UNK         0.0600 
    197 H197       -2.8714  -26.1477  -44.6997 H         1 UNK         0.0600 
    198 H198       -2.6355  -25.4460  -46.2965 H         1 UNK         0.0600 
    199 H199       -3.4908  -26.9725  -46.1199 H         1 UNK         0.0600 
    200 H200       -6.1155  -23.2364  -46.2311 H         1 UNK         0.3000 
    201 H201       -7.2395  -22.4432  -47.9565 H         1 UNK         0.0600 
    202 H202       -8.5591  -23.9619  -49.3853 H         1 UNK         0.0600 
    203 H203       -8.6191  -24.5164  -47.7202 H         1 UNK         0.0600 
    204 H204       -7.5929  -25.3432  -48.8909 H         1 UNK         0.0600 
    205 H205       -4.5843  -22.2180  -48.1306 H         1 UNK         0.3000 
    206 H206       -2.8618  -21.6363  -49.4102 H         1 UNK         0.0600 
    207 H207       -4.5605  -20.3134  -50.7087 H         1 UNK         0.0600 
    208 H208       -4.7256  -21.6633  -51.8330 H         1 UNK         0.0600 
    209 H209       -3.1830  -20.8292  -51.6629 H         1 UNK         0.0600 
    210 H210       -2.8666  -24.0876  -48.6174 H         1 UNK         0.3000 
    211 H211       -2.1586  -26.1883  -48.7870 H         1 UNK         0.0600 
    212 H212       -0.0665  -25.0587  -49.5873 H         1 UNK         0.0600 
    213 H213       -0.2523  -26.6586  -50.2901 H         1 UNK         0.0600 
    214 H214       -0.6061  -25.2348  -51.2565 H         1 UNK         0.0600 
    215 H215       -4.6485  -26.1358  -49.4878 H         1 UNK         0.3000 
    216 H216       -6.3770  -26.9095  -50.6323 H         1 UNK         0.0600 
    217 H217       -6.2173  -29.2076  -51.5345 H         1 UNK         0.0600 
    218 H218       -4.4617  -29.1113  -51.5751 H         1 UNK         0.0600 
    219 H219       -5.3152  -29.0919  -50.0323 H         1 UNK         0.0600 
    220 H220       -5.2857  -24.7959  -51.8329 H         1 UNK         0.3000 
    221 H221       -5.1527  -23.5031  -53.5677 H         1 UNK         0.0600 
    222 H222       -6.7889  -25.5646  -55.1316 H         1 UNK         0.0600 
    223 H223       -7.4599  -24.3439  -54.0494 H         1 UNK         0.0600 
    224 H224       -6.6173  -23.8573  -55.5097 H         1 UNK         0.0600 
    225 H225       -3.1675  -26.0107  -53.4135 H         1 UNK         0.3000 
    226 H226       -2.0986  -26.0899  -56.1147 H         1 UNK         0.0600 
    227 H227       -1.8645  -27.9769  -54.4412 H         1 UNK         0.0600 
    228 H228       -0.3366  -27.4533  -55.1355 H         1 UNK         0.0600 
    229 H229       -0.7636  -26.9627  -53.5053 H         1 UNK         0.0600 
    230 H230       -1.7380  -23.9585  -53.3617 H         1 UNK         0.3000 
    231 H231        0.4494  -22.4409  -54.7213 H         1 UNK         0.0600 
    232 H232        1.3019  -21.8883  -52.4740 H         1 UNK         0.0600 
    233 H233        1.2716  -23.6348  -52.6554 H         1 UNK         0.0600 
    234 H234        0.0247  -22.8255  -51.7078 H         1 UNK         0.0600 
    235 H235       -2.3284  -22.2027  -55.2252 H         1 UNK         0.3000 
    236 H236       -3.8647  -20.4012  -53.8289 H         1 UNK         0.0600 
    237 H237       -4.7472  -21.7105  -55.6646 H         1 UNK         0.0600 
    238 H238       -4.9921  -20.0172  -56.0469 H         1 UNK         0.0600 
    239 H239       -3.6944  -20.9102  -56.8315 H         1 UNK         0.0600 
    240 H240       -2.8851  -18.6616  -52.9409 H         1 UNK         0.3000 
    241 H241       -2.0236  -16.7123  -52.6131 H         1 UNK         0.0600 
    242 H242       -0.1856  -18.8063  -53.5676 H         1 UNK         0.3800 
    243 H243        1.2183  -17.9122  -54.1172 H         1 UNK         0.3800 
    244 H244       -2.3408  -14.8023  -54.2888 H         1 UNK         0.0800 
    245 H245       -2.9759  -15.9600  -55.4185 H         1 UNK         0.0800 
    246 H246       -5.1777  -13.9625  -51.9363 H         1 UNK         0.0800 
    247 H247       -3.8661  -13.3471  -52.9086 H         1 UNK         0.0800 
@<TRIPOS>BOND
     1    1    2 1    
     2    1  127 1    
     3    1  128 1    
     4    1  129 1    
     5    2    3 2    
     6    2    4 am   BACKBONE|DICT|INTERRES
     7    4    5 1    
     8    4  130 1    
     9    5    6 1    
    10    5   65 1    
    11    5  131 1    
    12    6    7 1    
    13    6  132 1    
    14    6  133 1    
    15    7    8 1    
    16    8    9 1    
    17    8  134 1    
    18    8  135 1    
    19    9   10 ar   
    20    9   14 ar   
    21   10   11 ar   
    22   10  136 1    
    23   11   12 ar   
    24   11  126 1    
    25   12   13 ar   
    26   12  137 1    
    27   13   14 ar   
    28   13   15 1    
    29   14  138 1    
    30   15   16 1    
    31   15  139 1    
    32   15  140 1    
    33   16   17 1    
    34   17   18 1    
    35   17  141 1    
    36   17  142 1    
    37   18   19 1    
    38   18   67 1    
    39   18  143 1    
    40   19   20 am   BACKBONE|DICT|INTERRES
    41   19  144 1    
    42   20   21 2    
    43   20   22 1    
    44   22   23 1    
    45   22   24 1    
    46   22  145 1    
    47   23  146 1    
    48   23  147 1    
    49   23  148 1    
    50   24   25 am   BACKBONE|DICT|INTERRES
    51   24  149 1    
    52   25   26 2    
    53   25   27 1    
    54   27   28 1    
    55   27   29 1    
    56   27  150 1    
    57   28  151 1    
    58   28  152 1    
    59   28  153 1    
    60   29   30 am   BACKBONE|DICT|INTERRES
    61   29  154 1    
    62   30   31 2    
    63   30   32 1    
    64   32   33 1    
    65   32   34 1    
    66   32  155 1    
    67   33  156 1    
    68   33  157 1    
    69   33  158 1    
    70   34   35 am   BACKBONE|DICT|INTERRES
    71   34  159 1    
    72   35   36 2    
    73   35   37 1    
    74   37   38 1    
    75   37   39 1    
    76   37  160 1    
    77   38  161 1    
    78   38  162 1    
    79   38  163 1    
    80   39   40 am   BACKBONE|DICT|INTERRES
    81   39  164 1    
    82   40   41 2    
    83   40   42 1    
    84   42   43 1    
    85   42   44 1    
    86   42  165 1    
    87   43  166 1    
    88   43  167 1    
    89   43  168 1    
    90   44   45 am   BACKBONE|DICT|INTERRES
    91   44  169 1    
    92   45   46 2    
    93   45   47 1    
    94   47   48 1    
    95   47   49 1    
    96   47  170 1    
    97   48  171 1    
    98   48  172 1    
    99   48  173 1    
   100   49   50 am   BACKBONE|DICT|INTERRES
   101   49  174 1    
   102   50   51 2    
   103   50   52 1    
   104   52   53 1    
   105   52   54 1    
   106   52  175 1    
   107   53  176 1    
   108   53  177 1    
   109   53  178 1    
   110   54   55 am   BACKBONE|DICT|INTERRES
   111   54  179 1    
   112   55   56 2    
   113   55   57 1    
   114   57   58 1    
   115   57   59 1    
   116   57  180 1    
   117   58  181 1    
   118   58  182 1    
   119   58  183 1    
   120   59   60 am   BACKBONE|DICT|INTERRES
   121   59  184 1    
   122   60   61 2    
   123   60   62 1    
   124   62   63 1    
   125   62   64 1    
   126   62  185 1    
   127   63  186 1    
   128   63  187 1    
   129   63  188 1    
   130   64   65 am   BACKBONE|DICT|INTERRES
   131   64  189 1    
   132   65   66 2    
   133   67   68 2    
   134   67   69 am   BACKBONE|DICT|INTERRES
   135   69   70 1    
   136   69  190 1    
   137   70   71 1    
   138   70   72 1    
   139   70  191 1    
   140   71  192 1    
   141   71  193 1    
   142   71  194 1    
   143   72   73 2    
   144   72   74 am   BACKBONE|DICT|INTERRES
   145   74   75 1    
   146   74  195 1    
   147   75   76 1    
   148   75   77 1    
   149   75  196 1    
   150   76  197 1    
   151   76  198 1    
   152   76  199 1    
   153   77   78 2    
   154   77   79 am   BACKBONE|DICT|INTERRES
   155   79   80 1    
   156   79  200 1    
   157   80   81 1    
   158   80   82 1    
   159   80  201 1    
   160   81  202 1    
   161   81  203 1    
   162   81  204 1    
   163   82   83 2    
   164   82   84 am   BACKBONE|DICT|INTERRES
   165   84   85 1    
   166   84  205 1    
   167   85   86 1    
   168   85   87 1    
   169   85  206 1    
   170   86  207 1    
   171   86  208 1    
   172   86  209 1    
   173   87   88 2    
   174   87   89 am   BACKBONE|DICT|INTERRES
   175   89   90 1    
   176   89  210 1    
   177   90   91 1    
   178   90   92 1    
   179   90  211 1    
   180   91  212 1    
   181   91  213 1    
   182   91  214 1    
   183   92   93 2    
   184   92   94 am   BACKBONE|DICT|INTERRES
   185   94   95 1    
   186   94  215 1    
   187   95   96 1    
   188   95   97 1    
   189   95  216 1    
   190   96  217 1    
   191   96  218 1    
   192   96  219 1    
   193   97   98 2    
   194   97   99 am   BACKBONE|DICT|INTERRES
   195   99  100 1    
   196   99  220 1    
   197  100  101 1    
   198  100  102 1    
   199  100  221 1    
   200  101  222 1    
   201  101  223 1    
   202  101  224 1    
   203  102  103 2    
   204  102  104 am   BACKBONE|DICT|INTERRES
   205  104  105 1    
   206  104  225 1    
   207  105  106 1    
   208  105  107 1    
   209  105  226 1    
   210  106  227 1    
   211  106  228 1    
   212  106  229 1    
   213  107  108 2    
   214  107  109 am   BACKBONE|DICT|INTERRES
   215  109  110 1    
   216  109  230 1    
   217  110  111 1    
   218  110  112 1    
   219  110  231 1    
   220  111  232 1    
   221  111  233 1    
   222  111  234 1    
   223  112  113 2    
   224  112  114 am   BACKBONE|DICT|INTERRES
   225  114  115 1    
   226  114  235 1    
   227  115  116 1    
   228  115  117 1    
   229  115  236 1    
   230  116  237 1    
   231  116  238 1    
   232  116  239 1    
   233  117  118 2    
   234  117  119 am   BACKBONE|DICT|INTERRES
   235  119  120 1    
   236  119  240 1    
   237  120  121 1    
   238  120  124 1    
   239  120  241 1    
   240  121  122 am   BACKBONE|DICT|INTERRES
   241  121  123 2    
   242  122  242 1    
   243  122  243 1    
   244  124  125 1    
   245  124  244 1    
   246  124  245 1    
   247  125  126 1    
   248  126  246 1    
   249  126  247 1    
@<TRIPOS>SUBSTRUCTURE
     1 UNK         1 GROUP             0       ****    0 ROOT    
