@<TRIPOS>MOLECULE
3R540
247   249    1
SMALL
USER_CHARGES


@<TRIPOS>ATOM
      1 CA         -2.1852  -14.4444  -48.8505 C.3       0 UNK        -0.1800 
      2 C          -1.2503  -13.2832  -48.5484 C.2       0 UNK         0.5000 
      3 O          -1.7080  -12.2236  -48.1194 O.2       0 UNK        -0.5000 
      4 N           0.0552  -13.4797  -48.7699 N.am      1 UNK        -0.5000 
      5 CA          1.1156  -12.5301  -48.4169 C.3       1 UNK         0.1400 
      6 C6          2.4612  -12.9003  -49.0859 C.3       23 UNK        -0.0398 
      7 S7          2.3844  -12.6983  -50.8968 S.3       23 UNK        -0.2404 
      8 C8          3.1488  -14.2439  -51.4929 C.3       23 UNK        -0.0205 
      9 C9          2.2982  -15.4945  -51.2850 C.ar      23 UNK        -0.0193 
     10 C10         0.9199  -15.4881  -51.5320 C.ar      23 UNK        -0.1150 
     11 C11         0.1636  -16.6549  -51.3866 C.ar      23 UNK        -0.0193 
     12 C12         0.7960  -17.8403  -51.0045 C.ar      23 UNK        -0.1150 
     13 C13         2.1746  -17.8674  -50.7778 C.ar      23 UNK        -0.0193 
     14 C14         2.9170  -16.6906  -50.9070 C.ar      23 UNK        -0.1150 
     15 C15         2.8655  -19.1823  -50.4571 C.3       23 UNK        -0.0205 
     16 S16         3.1080  -19.4197  -48.6679 S.3       23 UNK        -0.2404 
     17 C17         2.9465  -21.2405  -48.5595 C.3       23 UNK        -0.0398 
     18 CA          1.6257  -21.7350  -47.9145 C.3       11 UNK         0.1400 
     19 N           1.6284  -21.5302  -46.4643 N.am      11 UNK        -0.5000 
     20 C           0.7664  -22.0859  -45.6027 C.2       10 UNK         0.5000 
     21 O          -0.1444  -22.8392  -45.9488 O.2       10 UNK        -0.5000 
     22 CA          0.9092  -21.7007  -44.1145 C.3       10 UNK         0.1400 
     23 CB          2.2703  -21.0570  -43.7707 C.3       10 UNK        -0.1800 
     24 N          -0.1760  -20.8287  -43.6548 N.am      10 UNK        -0.5000 
     25 C          -0.6039  -19.6956  -44.2282 C.2       9 UNK         0.5000 
     26 O          -0.1688  -19.2632  -45.2935 O.2       9 UNK        -0.5000 
     27 CA         -1.6740  -18.8781  -43.4855 C.3       9 UNK         0.1400 
     28 CB         -3.0863  -19.4548  -43.6987 C.3       9 UNK        -0.1800 
     29 N          -1.3673  -18.6542  -42.0676 N.am      9 UNK        -0.5000 
     30 C          -1.3614  -19.5286  -41.0532 C.2       8 UNK         0.5000 
     31 O          -1.6587  -20.7200  -41.1624 O.2       8 UNK        -0.5000 
     32 CA         -0.8964  -18.9501  -39.7045 C.3       8 UNK         0.1400 
     33 CB         -0.9831  -19.9541  -38.5352 C.3       8 UNK        -0.1800 
     34 N           0.4413  -18.3591  -39.8175 N.am      8 UNK        -0.5000 
     35 C           1.6032  -18.9904  -40.0559 C.2       7 UNK         0.5000 
     36 O           1.7075  -20.2136  -40.1511 O.2       7 UNK        -0.5000 
     37 CA          2.8672  -18.1139  -40.2047 C.3       7 UNK         0.1400 
     38 CB          3.7984  -18.6225  -41.3194 C.3       7 UNK        -0.1800 
     39 N           2.5420  -16.7125  -40.4711 N.am      7 UNK        -0.5000 
     40 C           2.4168  -15.7538  -39.5444 C.2       6 UNK         0.5000 
     41 O           2.6125  -15.9404  -38.3432 O.2       6 UNK        -0.5000 
     42 CA          1.9727  -14.3569  -40.0254 C.3       6 UNK         0.1400 
     43 CB          3.1843  -13.4159  -40.1081 C.3       6 UNK        -0.1800 
     44 N           1.2766  -14.3541  -41.3158 N.am      6 UNK        -0.5000 
     45 C           0.1002  -14.9475  -41.5657 C.2       5 UNK         0.5000 
     46 O          -0.5447  -15.5768  -40.7256 O.2       5 UNK        -0.5000 
     47 CA         -0.4001  -14.9005  -43.0216 C.3       5 UNK         0.1400 
     48 CB         -1.0227  -13.5353  -43.3467 C.3       5 UNK        -0.1800 
     49 N           0.6453  -15.2068  -43.9999 N.am      5 UNK        -0.5000 
     50 C           1.3800  -16.3285  -44.0305 C.2       4 UNK         0.5000 
     51 O           1.2675  -17.2385  -43.2114 O.2       4 UNK        -0.5000 
     52 CA          2.4687  -16.4075  -45.1126 C.3       4 UNK         0.1400 
     53 CB          1.8706  -16.6685  -46.5061 C.3       4 UNK        -0.1800 
     54 N           3.2489  -15.1721  -45.1355 N.am      4 UNK        -0.5000 
     55 C           4.1923  -14.8571  -44.2368 C.2       3 UNK         0.5000 
     56 O           4.5613  -15.6131  -43.3382 O.2       3 UNK        -0.5000 
     57 CA          4.8204  -13.4540  -44.3485 C.3       3 UNK         0.1400 
     58 CB          6.0696  -13.4939  -45.2416 C.3       3 UNK        -0.1800 
     59 N           3.8944  -12.4441  -44.8657 N.am      3 UNK        -0.5000 
     60 C           2.8121  -12.0014  -44.2109 C.2       2 UNK         0.5000 
     61 O           2.4847  -12.3877  -43.0898 O.2       2 UNK        -0.5000 
     62 CA          1.9135  -10.9992  -44.9605 C.3       2 UNK         0.1400 
     63 CB          2.4445   -9.5680  -44.7911 C.3       2 UNK        -0.1800 
     64 N           1.7503  -11.2929  -46.3894 N.am      2 UNK        -0.5000 
     65 C           1.2777  -12.4450  -46.8855 C.2       1 UNK         0.5000 
     66 O           1.0070  -13.4236  -46.1862 O.2       1 UNK        -0.5000 
     67 C           0.3693  -21.1662  -48.6194 C.2       11 UNK         0.5000 
     68 O           0.0646  -21.6014  -49.7281 O.2       11 UNK        -0.5000 
     69 N          -0.3298  -20.2207  -47.9744 N.am      12 UNK        -0.5000 
     70 CA         -1.5675  -19.6098  -48.4547 C.3       12 UNK         0.1400 
     71 CB         -1.5795  -18.1236  -48.0586 C.3       12 UNK        -0.1800 
     72 C          -2.8253  -20.3265  -47.9266 C.2       12 UNK         0.5000 
     73 O          -3.9311  -19.9114  -48.2775 O.2       12 UNK        -0.5000 
     74 N          -2.6663  -21.3720  -47.0968 N.am      13 UNK        -0.5000 
     75 CA         -3.7656  -22.2576  -46.7046 C.3       13 UNK         0.1400 
     76 CB         -3.3815  -23.0756  -45.4616 C.3       13 UNK        -0.1800 
     77 C          -4.1451  -23.1665  -47.8858 C.2       13 UNK         0.5000 
     78 O          -5.3037  -23.1714  -48.3015 O.2       13 UNK        -0.5000 
     79 N          -3.1322  -23.8626  -48.4282 N.am      14 UNK        -0.5000 
     80 CA         -3.0876  -24.5391  -49.7309 C.3       14 UNK         0.1400 
     81 CB         -2.8125  -23.4910  -50.8243 C.3       14 UNK        -0.1800 
     82 C          -4.2961  -25.4393  -50.0657 C.2       14 UNK         0.5000 
     83 O          -4.7710  -25.4250  -51.2020 O.2       14 UNK        -0.5000 
     84 N          -4.7736  -26.2008  -49.0697 N.am      15 UNK        -0.5000 
     85 CA         -5.9377  -27.0949  -49.1431 C.3       15 UNK         0.1400 
     86 CB         -5.6375  -28.3027  -50.0570 C.3       15 UNK        -0.1800 
     87 C          -7.2294  -26.3436  -49.5371 C.2       15 UNK         0.5000 
     88 O          -7.9487  -26.7730  -50.4406 O.2       15 UNK        -0.5000 
     89 N          -7.4666  -25.2139  -48.8534 N.am      16 UNK        -0.5000 
     90 CA         -8.5025  -24.2102  -49.1154 C.3       16 UNK         0.1400 
     91 CB         -9.9241  -24.8033  -49.0109 C.3       16 UNK        -0.1800 
     92 C          -8.2301  -23.4766  -50.4422 C.2       16 UNK         0.5000 
     93 O          -9.0609  -23.4903  -51.3516 O.2       16 UNK        -0.5000 
     94 N          -7.0328  -22.8809  -50.5256 N.am      17 UNK        -0.5000 
     95 CA         -6.4502  -22.0867  -51.6154 C.3       17 UNK         0.1400 
     96 CB         -7.3272  -20.8652  -51.9506 C.3       17 UNK        -0.1800 
     97 C          -6.0908  -22.8670  -52.8958 C.2       17 UNK         0.5000 
     98 O          -5.1716  -22.4565  -53.6044 O.2       17 UNK        -0.5000 
     99 N          -6.8117  -23.9574  -53.1790 N.am      18 UNK        -0.5000 
    100 CA        -6.8005  -24.7405  -54.4156 C.3       18 UNK         0.1400 
    101 CB        -7.7036  -25.9678  -54.2210 C.3       18 UNK        -0.1800 
    102 C         -5.4205  -25.1772  -54.9449 C.2       18 UNK         0.5000 
    103 O         -5.2373  -25.2161  -56.1624 O.2       18 UNK        -0.5000 
    104 N         -4.4795  -25.4994  -54.0479 N.am      19 UNK        -0.5000 
    105 CA        -3.1473  -25.9863  -54.4142 C.3       19 UNK         0.1400 
    106 CB        -2.5498  -26.7767  -53.2388 C.3       19 UNK        -0.1800 
    107 C         -2.1791  -24.8782  -54.8773 C.2       19 UNK         0.5000 
    108 O         -1.1848  -25.2019  -55.5288 O.2       19 UNK        -0.5000 
    109 N         -2.4603  -23.6127  -54.5347 N.am      20 UNK        -0.5000 
    110 CA        -1.5944  -22.4624  -54.8268 C.3       20 UNK         0.1400 
    111 CB        -1.0446  -21.9094  -53.5014 C.3       20 UNK        -0.1800 
    112 C         -2.3074  -21.3502  -55.6180 C.2       20 UNK         0.5000 
    113 O         -1.6352  -20.4346  -56.0926 O.2       20 UNK        -0.5000 
    114 N         -3.6409  -21.4341  -55.7303 N.am      21 UNK        -0.5000 
    115 CA        -4.5694  -20.4346  -56.2735 C.3       21 UNK         0.1400 
    116 CB        -4.2465  -20.0793  -57.7401 C.3       21 UNK        -0.1800 
    117 C         -4.7290  -19.1906  -55.3700 C.2       21 UNK         0.5000 
    118 O         -5.2733  -18.1787  -55.8147 O.2       21 UNK        -0.5000 
    119 N         -4.2952  -19.2984  -54.1105 N.am      22 UNK        -0.5000 
    120 CA        -4.4303  -18.3050  -53.0428 C.3       22 UNK         0.1400 
    121 C         -4.1746  -18.9691  -51.6644 C.2       22 UNK         0.5000 
    122 N         -4.6843  -18.4007  -50.5818 N.am      22 UNK        -0.7600 
    123 O         -3.5106  -19.9967  -51.5626 O.2       22 UNK        -0.5000 
    124 C124       -3.5747  -17.0260  -53.2670 C.3       23 UNK        -0.0398 
    125 S125       -1.7630  -17.2861  -53.2835 S.3       23 UNK        -0.2404 
    126 C126       -1.3350  -16.6358  -51.6395 C.3       23 UNK        -0.0205 
    127 H127       -2.8221  -14.6487  -47.9899 H         1 UNK         0.0600 
    128 H128       -2.8227  -14.2061  -49.7016 H         1 UNK         0.0600 
    129 H129       -1.6280  -15.3516  -49.0777 H         1 UNK         0.0600 
    130 H130        0.3711  -14.3716  -49.1210 H         1 UNK         0.3000 
    131 H131        0.8132  -11.5419  -48.7706 H         1 UNK         0.0600 
    132 H132        2.7488  -13.9226  -48.8326 H         1 UNK         0.0800 
    133 H133        3.2670  -12.2577  -48.7266 H         1 UNK         0.0800 
    134 H134        4.1234  -14.3561  -51.0149 H         1 UNK         0.0800 
    135 H135        3.3426  -14.1412  -52.5612 H         1 UNK         0.0800 
    136 H136        0.4348  -14.5753  -51.8481 H         1 UNK         0.1150 
    137 H137        0.2170  -18.7484  -50.9089 H         1 UNK         0.1150 
    138 H138        3.9848  -16.7164  -50.7400 H         1 UNK         0.1150 
    139 H139        2.2731  -19.9997  -50.8711 H         1 UNK         0.0800 
    140 H140        3.8338  -19.2285  -50.9576 H         1 UNK         0.0800 
    141 H141        3.0567  -21.6808  -49.5515 H         1 UNK         0.0800 
    142 H142        3.7972  -21.6197  -47.9915 H         1 UNK         0.0800 
    143 H143        1.5882  -22.8158  -48.0675 H         1 UNK         0.0600 
    144 H144        2.3084  -20.8738  -46.1094 H         1 UNK         0.3000 
    145 H145        0.8272  -22.6293  -43.5484 H         1 UNK         0.0600 
    146 H146        2.3746  -20.9390  -42.6930 H         1 UNK         0.0600 
    147 H147        3.1018  -21.6801  -44.1027 H         1 UNK         0.0600 
    148 H148        2.3860  -20.0695  -44.2198 H         1 UNK         0.0600 
    149 H149       -0.6171  -21.0886  -42.7776 H         1 UNK         0.3000 
    150 H150       -1.6656  -17.8873  -43.9414 H         1 UNK         0.0600 
    151 H151       -3.3170  -19.5300  -44.7621 H         1 UNK         0.0600 
    152 H152       -3.8439  -18.8150  -43.2465 H         1 UNK         0.0600 
    153 H153       -3.1933  -20.4519  -43.2730 H         1 UNK         0.0600 
    154 H154       -1.0163  -17.7291  -41.8594 H         1 UNK         0.3000 
    155 H155       -1.5738  -18.1268  -39.4724 H         1 UNK         0.0600 
    156 H156       -2.0114  -20.2859  -38.3880 H         1 UNK         0.0600 
    157 H157       -0.6510  -19.5007  -37.6014 H         1 UNK         0.0600 
    158 H158       -0.3792  -20.8448  -38.7094 H         1 UNK         0.0600 
    159 H159        0.4605  -17.3471  -39.8045 H         1 UNK         0.3000 
    160 H160        3.4132  -18.1900  -39.2625 H         1 UNK         0.0600 
    161 H161        3.3067  -18.6143  -42.2915 H         1 UNK         0.0600 
    162 H162        4.1279  -19.6437  -41.1254 H         1 UNK         0.0600 
    163 H163        4.6929  -18.0040  -41.3963 H         1 UNK         0.0600 
    164 H164        2.3163  -16.4936  -41.4341 H         1 UNK         0.3000 
    165 H165        1.2832  -13.9614  -39.2770 H         1 UNK         0.0600 
    166 H166        3.7254  -13.3854  -39.1615 H         1 UNK         0.0600 
    167 H167        3.8863  -13.7353  -40.8796 H         1 UNK         0.0600 
    168 H168        2.8759  -12.3957  -40.3367 H         1 UNK         0.0600 
    169 H169        1.7248  -13.8291  -42.0626 H         1 UNK         0.3000 
    170 H170       -1.1781  -15.6576  -43.1291 H         1 UNK         0.0600 
    171 H171       -1.8474  -13.3111  -42.6691 H         1 UNK         0.0600 
    172 H172       -0.2948  -12.7295  -43.2553 H         1 UNK         0.0600 
    173 H173       -1.4190  -13.5134  -44.3623 H         1 UNK         0.0600 
    174 H174        0.8037  -14.5111  -44.7261 H         1 UNK         0.3000 
    175 H175        3.1333  -17.2398  -44.8703 H         1 UNK         0.0600 
    176 H176        1.0929  -15.9515  -46.7674 H         1 UNK         0.0600 
    177 H177        2.6364  -16.6261  -47.2806 H         1 UNK         0.0600 
    178 H178        1.4228  -17.6603  -46.5556 H         1 UNK         0.0600 
    179 H179        2.9453  -14.4633  -45.7880 H         1 UNK         0.3000 
    180 H180        5.1268  -13.1498  -43.3453 H         1 UNK         0.0600 
    181 H181        5.8232  -13.7713  -46.2673 H         1 UNK         0.0600 
    182 H182        6.5690  -12.5251  -45.2654 H         1 UNK         0.0600 
    183 H183        6.7922  -14.2214  -44.8693 H         1 UNK         0.0600 
    184 H184        4.0882  -12.0727  -45.7837 H         1 UNK         0.3000 
    185 H185        0.9228  -11.0467  -44.5050 H         1 UNK         0.0600 
    186 H186        1.7595   -8.8389  -45.2242 H         1 UNK         0.0600 
    187 H187        2.5589   -9.3163  -43.7358 H         1 UNK         0.0600 
    188 H188        3.4176   -9.4395  -45.2667 H         1 UNK         0.0600 
    189 H189        1.9585  -10.5354  -47.0243 H         1 UNK         0.3000 
    190 H190       -0.0247  -19.9205  -47.0509 H         1 UNK         0.3000 
    191 H191       -1.6017  -19.6653  -49.5445 H         1 UNK         0.0600 
    192 H192       -2.4330  -17.6118  -48.5040 H         1 UNK         0.0600 
    193 H193       -0.6776  -17.6155  -48.3999 H         1 UNK         0.0600 
    194 H194       -1.6520  -17.9883  -46.9799 H         1 UNK         0.0600 
    195 H195       -1.7299  -21.6593  -46.8392 H         1 UNK         0.3000 
    196 H196       -4.6338  -21.6467  -46.4476 H         1 UNK         0.0600 
    197 H197       -4.2358  -23.6477  -45.0981 H         1 UNK         0.0600 
    198 H198       -3.0524  -22.4298  -44.6482 H         1 UNK         0.0600 
    199 H199       -2.5798  -23.7854  -45.6650 H         1 UNK         0.0600 
    200 H200       -2.2388  -23.7963  -47.9612 H         1 UNK         0.3000 
    201 H201       -2.2274  -25.2092  -49.7009 H         1 UNK         0.0600 
    202 H202       -1.8576  -22.9974  -50.6590 H         1 UNK         0.0600 
    203 H203       -3.5779  -22.7190  -50.8435 H         1 UNK         0.0600 
    204 H204       -2.7683  -23.9360  -51.8158 H         1 UNK         0.0600 
    205 H205       -4.3251  -26.1312  -48.1672 H         1 UNK         0.3000 
    206 H206       -6.1010  -27.4782  -48.1348 H         1 UNK         0.0600 
    207 H207       -4.7310  -28.8194  -49.7422 H         1 UNK         0.0600 
    208 H208       -6.4517  -29.0274  -50.0248 H         1 UNK         0.0600 
    209 H209       -5.5083  -28.0043  -51.0980 H         1 UNK         0.0600 
    210 H210       -6.7590  -24.9213  -48.1917 H         1 UNK         0.3000 
    211 H211       -8.4072  -23.4625  -48.3265 H         1 UNK         0.0600 
    212 H212      -10.1356  -25.5153  -49.8087 H         1 UNK         0.0600 
    213 H213      -10.6750  -24.0153  -49.0761 H         1 UNK         0.0600 
    214 H214      -10.0695  -25.3129  -48.0585 H         1 UNK         0.0600 
    215 H215       -6.4145  -22.9914  -49.7228 H         1 UNK         0.3000 
    216 H216       -5.5141  -21.7024  -51.2154 H         1 UNK         0.0600 
    217 H217       -8.3018  -21.1547  -52.3436 H         1 UNK         0.0600 
    218 H218       -6.8505  -20.2399  -52.7058 H         1 UNK         0.0600 
    219 H219       -7.4881  -20.2435  -51.0698 H         1 UNK         0.0600 
    220 H220       -7.5501  -24.1841  -52.5235 H         1 UNK         0.3000 
    221 H221       -7.2491  -24.1097  -55.1852 H         1 UNK         0.0600 
    222 H222       -7.3386  -26.6064  -53.4150 H         1 UNK         0.0600 
    223 H223       -8.7242  -25.6726  -53.9760 H         1 UNK         0.0600 
    224 H224       -7.7490  -26.5728  -55.1276 H         1 UNK         0.0600 
    225 H225       -4.6946  -25.4350  -53.0536 H         1 UNK         0.3000 
    226 H226       -3.2583  -26.6827  -55.2482 H         1 UNK         0.0600 
    227 H227       -3.2283  -27.5616  -52.9036 H         1 UNK         0.0600 
    228 H228       -1.6153  -27.2576  -53.5300 H         1 UNK         0.0600 
    229 H229       -2.3311  -26.1365  -52.3858 H         1 UNK         0.0600 
    230 H230       -3.3099  -23.4275  -54.0137 H         1 UNK         0.3000 
    231 H231       -0.7433  -22.7677  -55.4385 H         1 UNK         0.0600 
    232 H232       -0.4691  -22.6643  -52.9656 H         1 UNK         0.0600 
    233 H233       -1.8468  -21.5738  -52.8451 H         1 UNK         0.0600 
    234 H234       -0.3844  -21.0575  -53.6701 H         1 UNK         0.0600 
    235 H235       -4.1022  -22.1875  -55.2327 H         1 UNK         0.3000 
    236 H236       -5.5456  -20.9215  -56.2698 H         1 UNK         0.0600 
    237 H237       -4.1179  -20.9766  -58.3452 H         1 UNK         0.0600 
    238 H238       -5.0561  -19.5012  -58.1867 H         1 UNK         0.0600 
    239 H239       -3.3394  -19.4810  -57.8252 H         1 UNK         0.0600 
    240 H240       -3.8913  -20.1742  -53.8029 H         1 UNK         0.3000 
    241 H241       -5.4796  -18.0043  -53.0416 H         1 UNK         0.0600 
    242 H242       -4.5167  -18.8640  -49.6915 H         1 UNK         0.3800 
    243 H243       -5.2471  -17.5663  -50.6164 H         1 UNK         0.3800 
    244 H244       -3.8277  -16.2787  -52.5137 H         1 UNK         0.0800 
    245 H245       -3.8463  -16.5652  -54.2169 H         1 UNK         0.0800 
    246 H246       -1.7143  -15.6171  -51.5514 H         1 UNK         0.0800 
    247 H247       -1.8420  -17.2257  -50.8758 H         1 UNK         0.0800 
@<TRIPOS>BOND
     1    1    2 1    
     2    1  127 1    
     3    1  128 1    
     4    1  129 1    
     5    2    3 2    
     6    2    4 am   BACKBONE|DICT|INTERRES
     7    4    5 1    
     8    4  130 1    
     9    5    6 1    
    10    5   65 1    
    11    5  131 1    
    12    6    7 1    
    13    6  132 1    
    14    6  133 1    
    15    7    8 1    
    16    8    9 1    
    17    8  134 1    
    18    8  135 1    
    19    9   10 ar   
    20    9   14 ar   
    21   10   11 ar   
    22   10  136 1    
    23   11   12 ar   
    24   11  126 1    
    25   12   13 ar   
    26   12  137 1    
    27   13   14 ar   
    28   13   15 1    
    29   14  138 1    
    30   15   16 1    
    31   15  139 1    
    32   15  140 1    
    33   16   17 1    
    34   17   18 1    
    35   17  141 1    
    36   17  142 1    
    37   18   19 1    
    38   18   67 1    
    39   18  143 1    
    40   19   20 am   BACKBONE|DICT|INTERRES
    41   19  144 1    
    42   20   21 2    
    43   20   22 1    
    44   22   23 1    
    45   22   24 1    
    46   22  145 1    
    47   23  146 1    
    48   23  147 1    
    49   23  148 1    
    50   24   25 am   BACKBONE|DICT|INTERRES
    51   24  149 1    
    52   25   26 2    
    53   25   27 1    
    54   27   28 1    
    55   27   29 1    
    56   27  150 1    
    57   28  151 1    
    58   28  152 1    
    59   28  153 1    
    60   29   30 am   BACKBONE|DICT|INTERRES
    61   29  154 1    
    62   30   31 2    
    63   30   32 1    
    64   32   33 1    
    65   32   34 1    
    66   32  155 1    
    67   33  156 1    
    68   33  157 1    
    69   33  158 1    
    70   34   35 am   BACKBONE|DICT|INTERRES
    71   34  159 1    
    72   35   36 2    
    73   35   37 1    
    74   37   38 1    
    75   37   39 1    
    76   37  160 1    
    77   38  161 1    
    78   38  162 1    
    79   38  163 1    
    80   39   40 am   BACKBONE|DICT|INTERRES
    81   39  164 1    
    82   40   41 2    
    83   40   42 1    
    84   42   43 1    
    85   42   44 1    
    86   42  165 1    
    87   43  166 1    
    88   43  167 1    
    89   43  168 1    
    90   44   45 am   BACKBONE|DICT|INTERRES
    91   44  169 1    
    92   45   46 2    
    93   45   47 1    
    94   47   48 1    
    95   47   49 1    
    96   47  170 1    
    97   48  171 1    
    98   48  172 1    
    99   48  173 1    
   100   49   50 am   BACKBONE|DICT|INTERRES
   101   49  174 1    
   102   50   51 2    
   103   50   52 1    
   104   52   53 1    
   105   52   54 1    
   106   52  175 1    
   107   53  176 1    
   108   53  177 1    
   109   53  178 1    
   110   54   55 am   BACKBONE|DICT|INTERRES
   111   54  179 1    
   112   55   56 2    
   113   55   57 1    
   114   57   58 1    
   115   57   59 1    
   116   57  180 1    
   117   58  181 1    
   118   58  182 1    
   119   58  183 1    
   120   59   60 am   BACKBONE|DICT|INTERRES
   121   59  184 1    
   122   60   61 2    
   123   60   62 1    
   124   62   63 1    
   125   62   64 1    
   126   62  185 1    
   127   63  186 1    
   128   63  187 1    
   129   63  188 1    
   130   64   65 am   BACKBONE|DICT|INTERRES
   131   64  189 1    
   132   65   66 2    
   133   67   68 2    
   134   67   69 am   BACKBONE|DICT|INTERRES
   135   69   70 1    
   136   69  190 1    
   137   70   71 1    
   138   70   72 1    
   139   70  191 1    
   140   71  192 1    
   141   71  193 1    
   142   71  194 1    
   143   72   73 2    
   144   72   74 am   BACKBONE|DICT|INTERRES
   145   74   75 1    
   146   74  195 1    
   147   75   76 1    
   148   75   77 1    
   149   75  196 1    
   150   76  197 1    
   151   76  198 1    
   152   76  199 1    
   153   77   78 2    
   154   77   79 am   BACKBONE|DICT|INTERRES
   155   79   80 1    
   156   79  200 1    
   157   80   81 1    
   158   80   82 1    
   159   80  201 1    
   160   81  202 1    
   161   81  203 1    
   162   81  204 1    
   163   82   83 2    
   164   82   84 am   BACKBONE|DICT|INTERRES
   165   84   85 1    
   166   84  205 1    
   167   85   86 1    
   168   85   87 1    
   169   85  206 1    
   170   86  207 1    
   171   86  208 1    
   172   86  209 1    
   173   87   88 2    
   174   87   89 am   BACKBONE|DICT|INTERRES
   175   89   90 1    
   176   89  210 1    
   177   90   91 1    
   178   90   92 1    
   179   90  211 1    
   180   91  212 1    
   181   91  213 1    
   182   91  214 1    
   183   92   93 2    
   184   92   94 am   BACKBONE|DICT|INTERRES
   185   94   95 1    
   186   94  215 1    
   187   95   96 1    
   188   95   97 1    
   189   95  216 1    
   190   96  217 1    
   191   96  218 1    
   192   96  219 1    
   193   97   98 2    
   194   97   99 am   BACKBONE|DICT|INTERRES
   195   99  100 1    
   196   99  220 1    
   197  100  101 1    
   198  100  102 1    
   199  100  221 1    
   200  101  222 1    
   201  101  223 1    
   202  101  224 1    
   203  102  103 2    
   204  102  104 am   BACKBONE|DICT|INTERRES
   205  104  105 1    
   206  104  225 1    
   207  105  106 1    
   208  105  107 1    
   209  105  226 1    
   210  106  227 1    
   211  106  228 1    
   212  106  229 1    
   213  107  108 2    
   214  107  109 am   BACKBONE|DICT|INTERRES
   215  109  110 1    
   216  109  230 1    
   217  110  111 1    
   218  110  112 1    
   219  110  231 1    
   220  111  232 1    
   221  111  233 1    
   222  111  234 1    
   223  112  113 2    
   224  112  114 am   BACKBONE|DICT|INTERRES
   225  114  115 1    
   226  114  235 1    
   227  115  116 1    
   228  115  117 1    
   229  115  236 1    
   230  116  237 1    
   231  116  238 1    
   232  116  239 1    
   233  117  118 2    
   234  117  119 am   BACKBONE|DICT|INTERRES
   235  119  120 1    
   236  119  240 1    
   237  120  121 1    
   238  120  124 1    
   239  120  241 1    
   240  121  122 am   BACKBONE|DICT|INTERRES
   241  121  123 2    
   242  122  242 1    
   243  122  243 1    
   244  124  125 1    
   245  124  244 1    
   246  124  245 1    
   247  125  126 1    
   248  126  246 1    
   249  126  247 1    
@<TRIPOS>SUBSTRUCTURE
     1 UNK         1 GROUP             0       ****    0 ROOT    
