@<TRIPOS>MOLECULE
3R540
247   249    1
SMALL
USER_CHARGES


@<TRIPOS>ATOM
      1 CA          1.7182  -10.6507  -51.3408 C.3       0 UNK        -0.1800 
      2 C           2.9237  -10.6522  -50.4115 C.2       0 UNK         0.5000 
      3 O           3.7721   -9.7652  -50.5048 O.2       0 UNK        -0.5000 
      4 N           2.9996  -11.6416  -49.5129 N.am      1 UNK        -0.5000 
      5 CA          4.0817  -11.8150  -48.5339 C.3       1 UNK         0.1400 
      6 C6          4.2470  -13.3008  -48.1367 C.3       23 UNK        -0.0398 
      7 S7          2.7907  -14.0039  -47.2933 S.3       23 UNK        -0.2404 
      8 C8          3.2881  -15.7549  -47.1743 C.3       23 UNK        -0.0205 
      9 C9          2.6800  -16.6917  -48.2177 C.ar      23 UNK        -0.0193 
     10 C10         1.5128  -16.3801  -48.9309 C.ar      23 UNK        -0.1150 
     11 C11         0.9429  -17.3072  -49.8088 C.ar      23 UNK        -0.0193 
     12 C12         1.5537  -18.5496  -49.9863 C.ar      23 UNK        -0.1150 
     13 C13         2.7096  -18.8802  -49.2755 C.ar      23 UNK        -0.0193 
     14 C14         3.2689  -17.9468  -48.3997 C.ar      23 UNK        -0.1150 
     15 C15         3.3280  -20.2622  -49.4243 C.3       23 UNK        -0.0205 
     16 S16         2.7943  -21.3869  -48.0931 S.3       23 UNK        -0.2404 
     17 C17         0.9843  -21.3529  -48.3147 C.3       23 UNK        -0.0398 
     18 CA          0.2590  -22.4668  -47.5311 C.3       11 UNK         0.1400 
     19 N           0.3392  -22.2877  -46.0790 N.am      11 UNK        -0.5000 
     20 C          -0.0756  -23.1888  -45.1779 C.2       10 UNK         0.5000 
     21 O          -0.5442  -24.2875  -45.4767 O.2       10 UNK        -0.5000 
     22 CA         -0.0112  -22.7736  -43.6974 C.3       10 UNK         0.1400 
     23 CB          1.4260  -22.8465  -43.1603 C.3       10 UNK        -0.1800 
     24 N          -0.5637  -21.4377  -43.4699 N.am      10 UNK        -0.5000 
     25 C          -1.8481  -21.1096  -43.6740 C.2       9 UNK         0.5000 
     26 O          -2.7095  -21.9121  -44.0358 O.2       9 UNK        -0.5000 
     27 CA         -2.2290  -19.6305  -43.4773 C.3       9 UNK         0.1400 
     28 CB         -2.4340  -19.3141  -41.9884 C.3       9 UNK        -0.1800 
     29 N          -1.2441  -18.7079  -44.0419 N.am      9 UNK        -0.5000 
     30 C          -0.9244  -18.6328  -45.3418 C.2       8 UNK         0.5000 
     31 O          -1.4543  -19.3102  -46.2200 O.2       8 UNK        -0.5000 
     32 CA          0.2255  -17.6859  -45.7190 C.3       8 UNK         0.1400 
     33 CB         -0.2576  -16.2285  -45.7603 C.3       8 UNK        -0.1800 
     34 N           1.3705  -17.8140  -44.8172 N.am      8 UNK        -0.5000 
     35 C           2.0683  -18.9459  -44.6407 C.2       7 UNK         0.5000 
     36 O           1.8294  -19.9978  -45.2295 O.2       7 UNK        -0.5000 
     37 CA          3.1776  -18.9181  -43.5792 C.3       7 UNK         0.1400 
     38 CB          4.4696  -18.3113  -44.1465 C.3       7 UNK        -0.1800 
     39 N           2.7545  -18.1849  -42.3870 N.am      7 UNK        -0.5000 
     40 C           1.8295  -18.6303  -41.5240 C.2       6 UNK         0.5000 
     41 O           1.2843  -19.7312  -41.6124 O.2       6 UNK        -0.5000 
     42 CA          1.4136  -17.6631  -40.4003 C.3       6 UNK         0.1400 
     43 CB          2.4039  -17.7325  -39.2285 C.3       6 UNK        -0.1800 
     44 N           1.3049  -16.2786  -40.8645 N.am      6 UNK        -0.5000 
     45 C           0.3863  -15.8465  -41.7400 C.2       5 UNK         0.5000 
     46 O          -0.4934  -16.5651  -42.2133 O.2       5 UNK        -0.5000 
     47 CA          0.4893  -14.3779  -42.1933 C.3       5 UNK         0.1400 
     48 CB         -0.3328  -13.4680  -41.2694 C.3       5 UNK        -0.1800 
     49 N           1.8617  -13.8716  -42.2677 N.am      5 UNK        -0.5000 
     50 C           2.8310  -14.3512  -43.0568 C.2       4 UNK         0.5000 
     51 O           2.6823  -15.3485  -43.7639 O.2       4 UNK        -0.5000 
     52 CA          4.1852  -13.6029  -43.0320 C.3       4 UNK         0.1400 
     53 CB          5.1645  -14.1043  -44.1070 C.3       4 UNK        -0.1800 
     54 N           4.0466  -12.1486  -43.1659 N.am      4 UNK        -0.5000 
     55 C           3.6531  -11.3112  -42.1970 C.2       3 UNK         0.5000 
     56 O           3.3347  -11.6896  -41.0685 O.2       3 UNK        -0.5000 
     57 CA          3.5879   -9.8074  -42.5262 C.3       3 UNK         0.1400 
     58 CB          4.8089   -9.0806  -41.9417 C.3       3 UNK        -0.1800 
     59 N           3.4914   -9.4889  -43.9524 N.am      3 UNK        -0.5000 
     60 C           2.4474   -9.7614  -44.7465 C.2       2 UNK         0.5000 
     61 O           1.4680  -10.4166  -44.3884 O.2       2 UNK        -0.5000 
     62 CA          2.4799   -9.1757  -46.1730 C.3       2 UNK         0.1400 
     63 CB          3.3800   -7.9273  -46.3169 C.3       2 UNK        -0.1800 
     64 N           2.8193  -10.1745  -47.1878 N.am      2 UNK        -0.5000 
     65 C           3.9508  -10.8876  -47.2994 C.2       1 UNK         0.5000 
     66 O           4.8759  -10.8332  -46.4870 O.2       1 UNK        -0.5000 
     67 C          -1.1979  -22.5918  -48.0152 C.2       11 UNK         0.5000 
     68 O          -1.4785  -23.4670  -48.8310 O.2       11 UNK        -0.5000 
     69 N          -2.1028  -21.7519  -47.4917 N.am      12 UNK        -0.5000 
     70 CA         -3.5344  -21.7762  -47.7978 C.3       12 UNK         0.1400 
     71 CB         -4.2324  -20.5877  -47.1196 C.3       12 UNK        -0.1800 
     72 C          -4.2187  -23.0967  -47.4068 C.2       12 UNK         0.5000 
     73 O          -5.0849  -23.5674  -48.1449 O.2       12 UNK        -0.5000 
     74 N          -3.8026  -23.6815  -46.2765 N.am      13 UNK        -0.5000 
     75 CA         -4.2404  -25.0009  -45.8297 C.3       13 UNK         0.1400 
     76 CB         -3.8746  -25.1893  -44.3494 C.3       13 UNK        -0.1800 
     77 C          -3.6496  -26.1299  -46.6943 C.2       13 UNK         0.5000 
     78 O          -4.3865  -27.0293  -47.0990 O.2       13 UNK        -0.5000 
     79 N          -2.3382  -26.0613  -46.9642 N.am      14 UNK        -0.5000 
     80 CA         -1.5866  -27.0720  -47.7103 C.3       14 UNK         0.1400 
     81 CB         -0.0809  -26.8110  -47.5508 C.3       14 UNK        -0.1800 
     82 C          -1.9668  -27.1497  -49.1997 C.2       14 UNK         0.5000 
     83 O          -2.1731  -28.2487  -49.7162 O.2       14 UNK        -0.5000 
     84 N          -2.0487  -25.9896  -49.8636 N.am      15 UNK        -0.5000 
     85 CA         -2.3720  -25.8720  -51.2872 C.3       15 UNK         0.1400 
     86 CB         -1.7561  -24.5757  -51.8383 C.3       15 UNK        -0.1800 
     87 C          -3.8851  -25.9033  -51.5665 C.2       15 UNK         0.5000 
     88 O          -4.2660  -26.0791  -52.7229 O.2       15 UNK        -0.5000 
     89 N          -4.7027  -25.7286  -50.5168 N.am      16 UNK        -0.5000 
     90 CA         -6.1613  -25.6096  -50.5209 C.3       16 UNK         0.1400 
     91 CB         -6.8375  -26.8839  -51.0683 C.3       16 UNK        -0.1800 
     92 C          -6.6071  -24.3377  -51.2627 C.2       16 UNK         0.5000 
     93 O          -6.9251  -24.3865  -52.4514 O.2       16 UNK        -0.5000 
     94 N          -6.6252  -23.2105  -50.5408 N.am      17 UNK        -0.5000 
     95 CA         -6.9760  -21.8706  -51.0334 C.3       17 UNK         0.1400 
     96 CB         -6.7923  -20.8535  -49.8987 C.3       17 UNK        -0.1800 
     97 C          -8.3720  -21.7250  -51.6771 C.2       17 UNK         0.5000 
     98 O          -8.6090  -20.7517  -52.3926 O.2       17 UNK        -0.5000 
     99 N          -9.2646  -22.6944  -51.4395 N.am      18 UNK        -0.5000 
    100 CA       -10.5470  -22.8284  -52.1304 C.3       18 UNK         0.1400 
    101 CB       -11.4118  -23.8468  -51.3715 C.3       18 UNK        -0.1800 
    102 C        -10.4016  -23.2447  -53.6110 C.2       18 UNK         0.5000 
    103 O        -11.3130  -22.9786  -54.3959 O.2       18 UNK        -0.5000 
    104 N         -9.2824  -23.8938  -53.9625 N.am      19 UNK        -0.5000 
    105 CA        -8.9867  -24.4064  -55.2998 C.3       19 UNK         0.1400 
    106 CB        -8.7824  -25.9277  -55.2121 C.3       19 UNK        -0.1800 
    107 C         -7.7470  -23.7398  -55.9219 C.2       19 UNK         0.5000 
    108 O         -7.7440  -23.5050  -57.1315 O.2       19 UNK        -0.5000 
    109 N         -6.7184  -23.4584  -55.1115 N.am      20 UNK        -0.5000 
    110 CA        -5.4345  -22.9157  -55.5524 C.3       20 UNK         0.1400 
    111 CB        -4.4623  -24.0748  -55.8577 C.3       20 UNK        -0.1800 
    112 C         -4.9096  -21.8837  -54.5367 C.2       20 UNK         0.5000 
    113 O         -5.6355  -20.9405  -54.2215 O.2       20 UNK        -0.5000 
    114 N         -3.6594  -22.0528  -54.0775 N.am      21 UNK        -0.5000 
    115 CA        -2.8644  -21.1097  -53.2776 C.3       21 UNK         0.1400 
    116 CB        -3.4782  -20.9024  -51.8742 C.3       21 UNK        -0.1800 
    117 C         -2.5920  -19.7940  -54.0459 C.2       21 UNK         0.5000 
    118 O         -2.5013  -19.8214  -55.2764 O.2       21 UNK        -0.5000 
    119 N         -2.4300  -18.6766  -53.3253 N.am      22 UNK        -0.5000 
    120 CA        -2.2783  -17.3322  -53.9058 C.3       22 UNK         0.1400 
    121 C         -3.6019  -16.8325  -54.5489 C.2       22 UNK         0.5000 
    122 N         -3.5499  -16.2869  -55.7564 N.am      22 UNK        -0.7600 
    123 O         -4.6676  -16.8928  -53.9401 O.2       22 UNK        -0.5000 
    124 C124       -1.7691  -16.3014  -52.8663 C.3       23 UNK        -0.0398 
    125 S125       -0.0715  -16.6509  -52.2954 S.3       23 UNK        -0.2404 
    126 C126       -0.3568  -16.9931  -50.5330 C.3       23 UNK        -0.0205 
    127 H127        1.1466   -9.7315  -51.2128 H         1 UNK         0.0600 
    128 H128        1.0549  -11.4939  -51.1462 H         1 UNK         0.0600 
    129 H129        2.0451  -10.7085  -52.3790 H         1 UNK         0.0600 
    130 H130        2.2729  -12.3433  -49.4784 H         1 UNK         0.3000 
    131 H131        5.0140  -11.5213  -49.0212 H         1 UNK         0.0600 
    132 H132        5.1208  -13.4252  -47.4950 H         1 UNK         0.0800 
    133 H133        4.4480  -13.8958  -49.0289 H         1 UNK         0.0800 
    134 H134        4.3764  -15.8262  -47.1989 H         1 UNK         0.0800 
    135 H135        2.9906  -16.1180  -46.1938 H         1 UNK         0.0800 
    136 H136        1.0195  -15.4309  -48.7838 H         1 UNK         0.1150 
    137 H137        1.1103  -19.2692  -50.6601 H         1 UNK         0.1150 
    138 H138        4.1497  -18.2139  -47.8326 H         1 UNK         0.1150 
    139 H139        3.0688  -20.6957  -50.3915 H         1 UNK         0.0800 
    140 H140        4.4159  -20.1824  -49.4073 H         1 UNK         0.0800 
    141 H141        0.7830  -21.4458  -49.3838 H         1 UNK         0.0800 
    142 H142        0.6099  -20.3744  -48.0081 H         1 UNK         0.0800 
    143 H143        0.7505  -23.4132  -47.7659 H         1 UNK         0.0600 
    144 H144        0.7559  -21.4172  -45.7536 H         1 UNK         0.3000 
    145 H145       -0.6169  -23.4829  -43.1296 H         1 UNK         0.0600 
    146 H146        1.4612  -22.6109  -42.0965 H         1 UNK         0.0600 
    147 H147        1.8377  -23.8485  -43.2862 H         1 UNK         0.0600 
    148 H148        2.0891  -22.1532  -43.6772 H         1 UNK         0.0600 
    149 H149        0.0812  -20.7241  -43.1514 H         1 UNK         0.3000 
    150 H150       -3.1757  -19.4602  -43.9933 H         1 UNK         0.0600 
    151 H151       -3.1741  -19.9812  -41.5448 H         1 UNK         0.0600 
    152 H152       -2.7904  -18.2933  -41.8488 H         1 UNK         0.0600 
    153 H153       -1.5087  -19.4243  -41.4219 H         1 UNK         0.0600 
    154 H154       -0.7881  -18.0752  -43.3904 H         1 UNK         0.3000 
    155 H155        0.5657  -17.9642  -46.7177 H         1 UNK         0.0600 
    156 H156       -0.7039  -15.9221  -44.8152 H         1 UNK         0.0600 
    157 H157       -1.0128  -16.0955  -46.5356 H         1 UNK         0.0600 
    158 H158        0.5583  -15.5420  -45.9807 H         1 UNK         0.0600 
    159 H159        1.6575  -16.9817  -44.3120 H         1 UNK         0.3000 
    160 H160        3.3904  -19.9491  -43.2886 H         1 UNK         0.0600 
    161 H161        4.3245  -17.2855  -44.4816 H         1 UNK         0.0600 
    162 H162        4.8213  -18.8857  -45.0045 H         1 UNK         0.0600 
    163 H163        5.2671  -18.3132  -43.4036 H         1 UNK         0.0600 
    164 H164        3.1035  -17.2430  -42.2858 H         1 UNK         0.3000 
    165 H165        0.4326  -17.9776  -40.0376 H         1 UNK         0.0600 
    166 H166        2.0753  -17.1084  -38.3973 H         1 UNK         0.0600 
    167 H167        2.4916  -18.7528  -38.8525 H         1 UNK         0.0600 
    168 H168        3.4017  -17.4038  -39.5219 H         1 UNK         0.0600 
    169 H169        1.9910  -15.6219  -40.5230 H         1 UNK         0.3000 
    170 H170        0.0652  -14.3141  -43.1968 H         1 UNK         0.0600 
    171 H171       -1.3692  -13.8033  -41.2113 H         1 UNK         0.0600 
    172 H172        0.0677  -13.4574  -40.2549 H         1 UNK         0.0600 
    173 H173       -0.3440  -12.4415  -41.6366 H         1 UNK         0.0600 
    174 H174        2.0859  -13.0611  -41.6993 H         1 UNK         0.3000 
    175 H175        4.6367  -13.8150  -42.0609 H         1 UNK         0.0600 
    176 H176        4.7761  -13.9359  -45.1100 H         1 UNK         0.0600 
    177 H177        6.1260  -13.5964  -44.0323 H         1 UNK         0.0600 
    178 H178        5.3563  -15.1720  -44.0002 H         1 UNK         0.0600 
    179 H179        4.2534  -11.7569  -44.0749 H         1 UNK         0.3000 
    180 H180        2.6937   -9.4132  -42.0392 H         1 UNK         0.0600 
    181 H181        5.7361   -9.4124  -42.4109 H         1 UNK         0.0600 
    182 H182        4.8992   -9.2643  -40.8701 H         1 UNK         0.0600 
    183 H183        4.7297   -8.0018  -42.0781 H         1 UNK         0.0600 
    184 H184        4.2668   -8.9795  -44.3512 H         1 UNK         0.3000 
    185 H185        1.4584   -8.8590  -46.3891 H         1 UNK         0.0600 
    186 H186        3.1137   -7.1649  -45.5836 H         1 UNK         0.0600 
    187 H187        4.4381   -8.1565  -46.1882 H         1 UNK         0.0600 
    188 H188        3.2617   -7.4777  -47.3029 H         1 UNK         0.0600 
    189 H189        2.1126  -10.3327  -47.8916 H         1 UNK         0.3000 
    190 H190       -1.7916  -21.0144  -46.8628 H         1 UNK         0.3000 
    191 H191       -3.6389  -21.6649  -48.8781 H         1 UNK         0.0600 
    192 H192       -3.8712  -19.6400  -47.5189 H         1 UNK         0.0600 
    193 H193       -5.3111  -20.6166  -47.2749 H         1 UNK         0.0600 
    194 H194       -4.0623  -20.5848  -46.0433 H         1 UNK         0.0600 
    195 H195       -3.1231  -23.2009  -45.6973 H         1 UNK         0.3000 
    196 H196       -5.3282  -25.0481  -45.9151 H         1 UNK         0.0600 
    197 H197       -4.2065  -26.1624  -43.9857 H         1 UNK         0.0600 
    198 H198       -4.3494  -24.4295  -43.7282 H         1 UNK         0.0600 
    199 H199       -2.7985  -25.1262  -44.1859 H         1 UNK         0.0600 
    200 H200       -1.7954  -25.3014  -46.5628 H         1 UNK         0.3000 
    201 H201       -1.8057  -28.0442  -47.2640 H         1 UNK         0.0600 
    202 H202        0.2168  -26.8512  -46.5028 H         1 UNK         0.0600 
    203 H203        0.2011  -25.8324  -47.9404 H         1 UNK         0.0600 
    204 H204        0.5058  -27.5598  -48.0845 H         1 UNK         0.0600 
    205 H205       -1.8532  -25.1165  -49.3739 H         1 UNK         0.3000 
    206 H206       -1.9219  -26.7103  -51.8230 H         1 UNK         0.0600 
    207 H207       -0.6822  -24.5383  -51.6551 H         1 UNK         0.0600 
    208 H208       -1.9059  -24.4993  -52.9158 H         1 UNK         0.0600 
    209 H209       -2.2048  -23.6935  -51.3823 H         1 UNK         0.0600 
    210 H210       -4.2654  -25.5742  -49.6189 H         1 UNK         0.3000 
    211 H211       -6.4660  -25.5091  -49.4781 H         1 UNK         0.0600 
    212 H212       -6.6156  -27.0532  -52.1222 H         1 UNK         0.0600 
    213 H213       -7.9218  -26.8145  -50.9757 H         1 UNK         0.0600 
    214 H214       -6.5187  -27.7663  -50.5135 H         1 UNK         0.0600 
    215 H215       -6.2817  -23.2627  -49.5846 H         1 UNK         0.3000 
    216 H216       -6.2611  -21.6299  -51.8171 H         1 UNK         0.0600 
    217 H217       -7.0968  -19.8528  -50.2083 H         1 UNK         0.0600 
    218 H218       -5.7462  -20.7886  -49.6070 H         1 UNK         0.0600 
    219 H219       -7.3779  -21.1205  -49.0184 H         1 UNK         0.0600 
    220 H220       -8.9968  -23.4487  -50.8253 H         1 UNK         0.3000 
    221 H221      -11.0549  -21.8619  -52.1062 H         1 UNK         0.0600 
    222 H222      -10.9479  -24.8338  -51.3527 H         1 UNK         0.0600 
    223 H223      -11.5786  -23.5332  -50.3408 H         1 UNK         0.0600 
    224 H224      -12.3912  -23.9534  -51.8398 H         1 UNK         0.0600 
    225 H225       -8.5627  -24.0493  -53.2621 H         1 UNK         0.3000 
    226 H226       -9.8248  -24.2200  -55.9744 H         1 UNK         0.0600 
    227 H227       -9.6793  -26.4238  -54.8411 H         1 UNK         0.0600 
    228 H228       -8.5582  -26.3501  -56.1923 H         1 UNK         0.0600 
    229 H229       -7.9578  -26.1852  -54.5456 H         1 UNK         0.0600 
    230 H230       -6.7830  -23.6942  -54.1234 H         1 UNK         0.3000 
    231 H231       -5.5777  -22.3534  -56.4773 H         1 UNK         0.0600 
    232 H232       -4.8765  -24.7410  -56.6147 H         1 UNK         0.0600 
    233 H233       -4.2580  -24.6746  -54.9710 H         1 UNK         0.0600 
    234 H234       -3.5119  -23.7078  -56.2470 H         1 UNK         0.0600 
    235 H235       -3.1478  -22.8489  -54.4294 H         1 UNK         0.3000 
    236 H236       -1.8922  -21.5852  -53.1409 H         1 UNK         0.0600 
    237 H237       -2.7572  -20.4527  -51.1908 H         1 UNK         0.0600 
    238 H238       -4.3523  -20.2514  -51.9070 H         1 UNK         0.0600 
    239 H239       -3.7849  -21.8508  -51.4331 H         1 UNK         0.0600 
    240 H240       -2.5371  -18.7208  -52.3241 H         1 UNK         0.3000 
    241 H241       -1.5271  -17.4004  -54.6957 H         1 UNK         0.0600 
    242 H242       -4.4005  -15.9443  -56.1760 H         1 UNK         0.3800 
    243 H243       -2.6852  -16.2229  -56.2718 H         1 UNK         0.3800 
    244 H244       -2.4507  -16.2450  -52.0157 H         1 UNK         0.0800 
    245 H245       -1.7533  -15.3009  -53.3028 H         1 UNK         0.0800 
    246 H246       -1.0409  -17.8367  -50.4305 H         1 UNK         0.0800 
    247 H247       -0.8505  -16.1352  -50.0736 H         1 UNK         0.0800 
@<TRIPOS>BOND
     1    1    2 1    
     2    1  127 1    
     3    1  128 1    
     4    1  129 1    
     5    2    3 2    
     6    2    4 am   BACKBONE|DICT|INTERRES
     7    4    5 1    
     8    4  130 1    
     9    5    6 1    
    10    5   65 1    
    11    5  131 1    
    12    6    7 1    
    13    6  132 1    
    14    6  133 1    
    15    7    8 1    
    16    8    9 1    
    17    8  134 1    
    18    8  135 1    
    19    9   10 ar   
    20    9   14 ar   
    21   10   11 ar   
    22   10  136 1    
    23   11   12 ar   
    24   11  126 1    
    25   12   13 ar   
    26   12  137 1    
    27   13   14 ar   
    28   13   15 1    
    29   14  138 1    
    30   15   16 1    
    31   15  139 1    
    32   15  140 1    
    33   16   17 1    
    34   17   18 1    
    35   17  141 1    
    36   17  142 1    
    37   18   19 1    
    38   18   67 1    
    39   18  143 1    
    40   19   20 am   BACKBONE|DICT|INTERRES
    41   19  144 1    
    42   20   21 2    
    43   20   22 1    
    44   22   23 1    
    45   22   24 1    
    46   22  145 1    
    47   23  146 1    
    48   23  147 1    
    49   23  148 1    
    50   24   25 am   BACKBONE|DICT|INTERRES
    51   24  149 1    
    52   25   26 2    
    53   25   27 1    
    54   27   28 1    
    55   27   29 1    
    56   27  150 1    
    57   28  151 1    
    58   28  152 1    
    59   28  153 1    
    60   29   30 am   BACKBONE|DICT|INTERRES
    61   29  154 1    
    62   30   31 2    
    63   30   32 1    
    64   32   33 1    
    65   32   34 1    
    66   32  155 1    
    67   33  156 1    
    68   33  157 1    
    69   33  158 1    
    70   34   35 am   BACKBONE|DICT|INTERRES
    71   34  159 1    
    72   35   36 2    
    73   35   37 1    
    74   37   38 1    
    75   37   39 1    
    76   37  160 1    
    77   38  161 1    
    78   38  162 1    
    79   38  163 1    
    80   39   40 am   BACKBONE|DICT|INTERRES
    81   39  164 1    
    82   40   41 2    
    83   40   42 1    
    84   42   43 1    
    85   42   44 1    
    86   42  165 1    
    87   43  166 1    
    88   43  167 1    
    89   43  168 1    
    90   44   45 am   BACKBONE|DICT|INTERRES
    91   44  169 1    
    92   45   46 2    
    93   45   47 1    
    94   47   48 1    
    95   47   49 1    
    96   47  170 1    
    97   48  171 1    
    98   48  172 1    
    99   48  173 1    
   100   49   50 am   BACKBONE|DICT|INTERRES
   101   49  174 1    
   102   50   51 2    
   103   50   52 1    
   104   52   53 1    
   105   52   54 1    
   106   52  175 1    
   107   53  176 1    
   108   53  177 1    
   109   53  178 1    
   110   54   55 am   BACKBONE|DICT|INTERRES
   111   54  179 1    
   112   55   56 2    
   113   55   57 1    
   114   57   58 1    
   115   57   59 1    
   116   57  180 1    
   117   58  181 1    
   118   58  182 1    
   119   58  183 1    
   120   59   60 am   BACKBONE|DICT|INTERRES
   121   59  184 1    
   122   60   61 2    
   123   60   62 1    
   124   62   63 1    
   125   62   64 1    
   126   62  185 1    
   127   63  186 1    
   128   63  187 1    
   129   63  188 1    
   130   64   65 am   BACKBONE|DICT|INTERRES
   131   64  189 1    
   132   65   66 2    
   133   67   68 2    
   134   67   69 am   BACKBONE|DICT|INTERRES
   135   69   70 1    
   136   69  190 1    
   137   70   71 1    
   138   70   72 1    
   139   70  191 1    
   140   71  192 1    
   141   71  193 1    
   142   71  194 1    
   143   72   73 2    
   144   72   74 am   BACKBONE|DICT|INTERRES
   145   74   75 1    
   146   74  195 1    
   147   75   76 1    
   148   75   77 1    
   149   75  196 1    
   150   76  197 1    
   151   76  198 1    
   152   76  199 1    
   153   77   78 2    
   154   77   79 am   BACKBONE|DICT|INTERRES
   155   79   80 1    
   156   79  200 1    
   157   80   81 1    
   158   80   82 1    
   159   80  201 1    
   160   81  202 1    
   161   81  203 1    
   162   81  204 1    
   163   82   83 2    
   164   82   84 am   BACKBONE|DICT|INTERRES
   165   84   85 1    
   166   84  205 1    
   167   85   86 1    
   168   85   87 1    
   169   85  206 1    
   170   86  207 1    
   171   86  208 1    
   172   86  209 1    
   173   87   88 2    
   174   87   89 am   BACKBONE|DICT|INTERRES
   175   89   90 1    
   176   89  210 1    
   177   90   91 1    
   178   90   92 1    
   179   90  211 1    
   180   91  212 1    
   181   91  213 1    
   182   91  214 1    
   183   92   93 2    
   184   92   94 am   BACKBONE|DICT|INTERRES
   185   94   95 1    
   186   94  215 1    
   187   95   96 1    
   188   95   97 1    
   189   95  216 1    
   190   96  217 1    
   191   96  218 1    
   192   96  219 1    
   193   97   98 2    
   194   97   99 am   BACKBONE|DICT|INTERRES
   195   99  100 1    
   196   99  220 1    
   197  100  101 1    
   198  100  102 1    
   199  100  221 1    
   200  101  222 1    
   201  101  223 1    
   202  101  224 1    
   203  102  103 2    
   204  102  104 am   BACKBONE|DICT|INTERRES
   205  104  105 1    
   206  104  225 1    
   207  105  106 1    
   208  105  107 1    
   209  105  226 1    
   210  106  227 1    
   211  106  228 1    
   212  106  229 1    
   213  107  108 2    
   214  107  109 am   BACKBONE|DICT|INTERRES
   215  109  110 1    
   216  109  230 1    
   217  110  111 1    
   218  110  112 1    
   219  110  231 1    
   220  111  232 1    
   221  111  233 1    
   222  111  234 1    
   223  112  113 2    
   224  112  114 am   BACKBONE|DICT|INTERRES
   225  114  115 1    
   226  114  235 1    
   227  115  116 1    
   228  115  117 1    
   229  115  236 1    
   230  116  237 1    
   231  116  238 1    
   232  116  239 1    
   233  117  118 2    
   234  117  119 am   BACKBONE|DICT|INTERRES
   235  119  120 1    
   236  119  240 1    
   237  120  121 1    
   238  120  124 1    
   239  120  241 1    
   240  121  122 am   BACKBONE|DICT|INTERRES
   241  121  123 2    
   242  122  242 1    
   243  122  243 1    
   244  124  125 1    
   245  124  244 1    
   246  124  245 1    
   247  125  126 1    
   248  126  246 1    
   249  126  247 1    
@<TRIPOS>SUBSTRUCTURE
     1 UNK         1 GROUP             0       ****    0 ROOT    
