@<TRIPOS>MOLECULE
3R540
247   249    1
SMALL
USER_CHARGES


@<TRIPOS>ATOM
      1 CA         -3.0098  -10.3174  -48.8234 C.3       0 UNK        -0.1800 
      2 C          -1.9818  -11.3771  -48.4555 C.2       0 UNK         0.5000 
      3 O          -0.7974  -11.0665  -48.3365 O.2       0 UNK        -0.5000 
      4 N          -2.4293  -12.6247  -48.2538 N.am      1 UNK        -0.5000 
      5 CA         -1.5939  -13.7909  -47.9269 C.3       1 UNK         0.1400 
      6 C6         -2.4201  -15.0989  -48.0169 C.3       23 UNK        -0.0398 
      7 S7         -1.4294  -16.6290  -48.0890 S.3       23 UNK        -0.2404 
      8 C8         -0.6819  -16.5084  -49.7438 C.3       23 UNK        -0.0205 
      9 C9         -0.0259  -17.8231  -50.1254 C.ar      23 UNK        -0.0193 
     10 C10        -0.6486  -18.6860  -51.0307 C.ar      23 UNK        -0.1150 
     11 C11        -0.0726  -19.9192  -51.3423 C.ar      23 UNK        -0.0193 
     12 C12         1.1322  -20.2854  -50.7344 C.ar      23 UNK        -0.1150 
     13 C13         1.7679  -19.4344  -49.8238 C.ar      23 UNK        -0.0193 
     14 C14         1.1924  -18.1893  -49.5464 C.ar      23 UNK        -0.1150 
     15 C15         3.0731  -19.8959  -49.1738 C.3       23 UNK        -0.0205 
     16 S16         3.4277  -19.2439  -47.4992 S.3       23 UNK        -0.2404 
     17 C17         1.9217  -19.5913  -46.5257 C.3       23 UNK        -0.0398 
     18 CA          1.6759  -21.0935  -46.2131 C.3       11 UNK         0.1400 
     19 N           1.0648  -21.2861  -44.8964 N.am      11 UNK        -0.5000 
     20 C           1.0506  -22.4469  -44.2266 C.2       10 UNK         0.5000 
     21 O           1.5587  -23.4833  -44.6545 O.2       10 UNK        -0.5000 
     22 CA          0.3596  -22.4716  -42.8550 C.3       10 UNK         0.1400 
     23 CB          1.3017  -21.9681  -41.7513 C.3       10 UNK        -0.1800 
     24 N          -0.8768  -21.6879  -42.8369 N.am      10 UNK        -0.5000 
     25 C          -2.0443  -22.1404  -42.3572 C.2       9 UNK         0.5000 
     26 O          -2.1930  -23.2639  -41.8745 O.2       9 UNK        -0.5000 
     27 CA         -3.2636  -21.1954  -42.4038 C.3       9 UNK         0.1400 
     28 CB         -3.5522  -20.6278  -41.0052 C.3       9 UNK        -0.1800 
     29 N          -3.1399  -20.0792  -43.3405 N.am      9 UNK        -0.5000 
     30 C          -3.0537  -20.1870  -44.6720 C.2       8 UNK         0.5000 
     31 O          -3.0474  -21.2604  -45.2734 O.2       8 UNK        -0.5000 
     32 CA         -2.8829  -18.8720  -45.4582 C.3       8 UNK         0.1400 
     33 CB         -4.2414  -18.3496  -45.9450 C.3       8 UNK        -0.1800 
     34 N          -2.1880  -17.8110  -44.7216 N.am      8 UNK        -0.5000 
     35 C          -0.9387  -17.9086  -44.2480 C.2       7 UNK         0.5000 
     36 O          -0.2791  -18.9485  -44.3172 O.2       7 UNK        -0.5000 
     37 CA         -0.3412  -16.6335  -43.6194 C.3       7 UNK         0.1400 
     38 CB         -1.2126  -16.0879  -42.4691 C.3       7 UNK        -0.1800 
     39 N           1.0511  -16.7966  -43.1861 N.am      7 UNK        -0.5000 
     40 C           1.5329  -17.5944  -42.2187 C.2       6 UNK         0.5000 
     41 O           0.8398  -18.3102  -41.4954 O.2       6 UNK        -0.5000 
     42 CA          3.0615  -17.5711  -42.0149 C.3       6 UNK         0.1400 
     43 CB          3.7391  -18.6754  -42.8416 C.3       6 UNK        -0.1800 
     44 N           3.6585  -16.2852  -42.3768 N.am      6 UNK        -0.5000 
     45 C           3.4927  -15.1372  -41.7097 C.2       5 UNK         0.5000 
     46 O           2.8897  -15.0524  -40.6394 O.2       5 UNK        -0.5000 
     47 CA          4.0560  -13.8615  -42.3631 C.3       5 UNK         0.1400 
     48 CB          5.5382  -13.6475  -42.0018 C.3       5 UNK        -0.1800 
     49 N           3.8267  -13.7811  -43.8133 N.am      5 UNK        -0.5000 
     50 C           4.3808  -14.4935  -44.8089 C.2       4 UNK         0.5000 
     51 O           5.1981  -15.3951  -44.6217 O.2       4 UNK        -0.5000 
     52 CA          3.9201  -14.1923  -46.2523 C.3       4 UNK         0.1400 
     53 CB          3.2307  -15.4240  -46.8640 C.3       4 UNK        -0.1800 
     54 N           3.0140  -13.0446  -46.3420 N.am      4 UNK        -0.5000 
     55 C           3.3968  -11.7606  -46.2547 C.2       3 UNK         0.5000 
     56 O           4.5754  -11.4094  -46.1941 O.2       3 UNK        -0.5000 
     57 CA          2.2903  -10.6860  -46.1830 C.3       3 UNK         0.1400 
     58 CB          2.1649   -9.9569  -47.5288 C.3       3 UNK        -0.1800 
     59 N           0.9776  -11.2093  -45.7912 N.am      3 UNK        -0.5000 
     60 C           0.6930  -11.7632  -44.6010 C.2       2 UNK         0.5000 
     61 O           1.5053  -11.8324  -43.6781 O.2       2 UNK        -0.5000 
     62 CA         -0.7006  -12.4054  -44.4226 C.3       2 UNK         0.1400 
     63 CB         -1.6344  -11.4597  -43.6538 C.3       2 UNK        -0.1800 
     64 N          -1.3482  -12.7977  -45.6782 N.am      2 UNK        -0.5000 
     65 C          -0.8421  -13.6514  -46.5811 C.2       1 UNK         0.5000 
     66 O           0.2157  -14.2562  -46.4075 O.2       1 UNK        -0.5000 
     67 C           0.8137  -21.7637  -47.2970 C.2       11 UNK         0.5000 
     68 O           1.2828  -22.6735  -47.9821 O.2       11 UNK        -0.5000 
     69 N          -0.4389  -21.3016  -47.4219 N.am      12 UNK        -0.5000 
     70 CA         -1.3570  -21.7404  -48.4696 C.3       12 UNK         0.1400 
     71 CB         -2.5135  -20.7480  -48.6245 C.3       12 UNK        -0.1800 
     72 C          -1.8831  -23.1586  -48.2413 C.2       12 UNK         0.5000 
     73 O          -1.9998  -23.9100  -49.2067 O.2       12 UNK        -0.5000 
     74 N          -2.1488  -23.5112  -46.9759 N.am      13 UNK        -0.5000 
     75 CA         -2.6857  -24.7982  -46.5203 C.3       13 UNK         0.1400 
     76 CB         -2.8106  -24.7624  -44.9905 C.3       13 UNK        -0.1800 
     77 C          -1.9042  -26.0507  -46.9710 C.2       13 UNK         0.5000 
     78 O          -2.4781  -27.1399  -46.9898 O.2       13 UNK        -0.5000 
     79 N          -0.6321  -25.8797  -47.3556 N.am      14 UNK        -0.5000 
     80 CA          0.1988  -26.9071  -47.9837 C.3       14 UNK         0.1400 
     81 CB          1.6509  -26.4068  -48.0210 C.3       14 UNK        -0.1800 
     82 C          -0.2715  -27.3028  -49.4018 C.2       14 UNK         0.5000 
     83 O           0.0300  -28.4136  -49.8406 O.2       14 UNK        -0.5000 
     84 N          -0.9887  -26.4022  -50.0878 N.am      15 UNK        -0.5000 
     85 CA         -1.5460  -26.5977  -51.4249 C.3       15 UNK         0.1400 
     86 CB         -1.0005  -25.5081  -52.3654 C.3       15 UNK        -0.1800 
     87 C          -3.0821  -26.5654  -51.3748 C.2       15 UNK         0.5000 
     88 O          -3.7239  -27.5348  -51.7810 O.2       15 UNK        -0.5000 
     89 N          -3.6390  -25.4625  -50.8621 N.am      16 UNK        -0.5000 
     90 CA         -5.0631  -25.1934  -50.7049 C.3       16 UNK         0.1400 
     91 CB         -5.7543  -25.0187  -52.0714 C.3       16 UNK        -0.1800 
     92 C          -5.1932  -23.9153  -49.8688 C.2       16 UNK         0.5000 
     93 O          -4.7417  -22.8559  -50.3097 O.2       16 UNK        -0.5000 
     94 N          -5.8120  -24.0227  -48.6852 N.am      17 UNK        -0.5000 
     95 CA         -5.9463  -22.9482  -47.6893 C.3       17 UNK         0.1400 
     96 CB         -6.5468  -23.5359  -46.4027 C.3       17 UNK        -0.1800 
     97 C          -6.7508  -21.7139  -48.1535 C.2       17 UNK         0.5000 
     98 O          -6.7206  -20.6852  -47.4792 O.2       17 UNK        -0.5000 
     99 N          -7.4355  -21.8241  -49.2998 N.am      18 UNK        -0.5000 
    100 CA        -8.1063  -20.7276  -49.9973 C.3       18 UNK         0.1400 
    101 CB        -8.9777  -21.3186  -51.1168 C.3       18 UNK        -0.1800 
    102 C         -7.1371  -19.6758  -50.5782 C.2       18 UNK         0.5000 
    103 O         -7.5806  -18.5689  -50.8834 O.2       18 UNK        -0.5000 
    104 N         -5.8544  -20.0364  -50.7562 N.am      19 UNK        -0.5000 
    105 CA        -4.7249  -19.2184  -51.2296 C.3       19 UNK         0.1400 
    106 CB        -4.4824  -18.0085  -50.3060 C.3       19 UNK        -0.1800 
    107 C         -4.7773  -18.7979  -52.7111 C.2       19 UNK         0.5000 
    108 O         -3.7194  -18.6236  -53.3180 O.2       19 UNK        -0.5000 
    109 N         -5.9822  -18.7013  -53.2876 N.am      20 UNK        -0.5000 
    110 CA        -6.2599  -18.3645  -54.6874 C.3       20 UNK         0.1400 
    111 CB        -7.7813  -18.3292  -54.8945 C.3       20 UNK        -0.1800 
    112 C         -5.5992  -19.3095  -55.7114 C.2       20 UNK         0.5000 
    113 O         -5.3290  -18.8878  -56.8366 O.2       20 UNK        -0.5000 
    114 N         -5.2997  -20.5471  -55.2902 N.am      21 UNK        -0.5000 
    115 CA        -4.5430  -21.5515  -56.0420 C.3       21 UNK         0.1400 
    116 CB        -4.4814  -22.8442  -55.2132 C.3       21 UNK        -0.1800 
    117 C         -3.1201  -21.1008  -56.4368 C.2       21 UNK         0.5000 
    118 O         -2.6001  -21.5769  -57.4469 O.2       21 UNK        -0.5000 
    119 N         -2.5325  -20.1842  -55.6564 N.am      22 UNK        -0.5000 
    120 CA        -1.2441  -19.5342  -55.9435 C.3       22 UNK         0.1400 
    121 C         -1.3864  -18.1975  -56.7323 C.2       22 UNK         0.5000 
    122 N         -2.5760  -17.7774  -57.1490 N.am      22 UNK        -0.7600 
    123 O         -0.3898  -17.5296  -56.9945 O.2       22 UNK        -0.5000 
    124 C124       -0.3979  -19.3534  -54.6570 C.3       23 UNK        -0.0398 
    125 S125        0.0673  -20.9546  -53.9112 S.3       23 UNK        -0.2404 
    126 C126       -0.7695  -20.8769  -52.2992 C.3       23 UNK        -0.0205 
    127 H127       -2.7568   -9.8681  -49.7836 H         1 UNK         0.0600 
    128 H128       -3.0218   -9.5298  -48.0700 H         1 UNK         0.0600 
    129 H129       -4.0143  -10.7345  -48.8968 H         1 UNK         0.0600 
    130 H130       -3.4176  -12.8082  -48.3559 H         1 UNK         0.3000 
    131 H131       -0.8232  -13.8262  -48.6984 H         1 UNK         0.0600 
    132 H132       -3.1083  -15.1739  -47.1735 H         1 UNK         0.0800 
    133 H133       -3.0484  -15.0832  -48.9088 H         1 UNK         0.0800 
    134 H134       -1.4416  -16.2320  -50.4762 H         1 UNK         0.0800 
    135 H135        0.0672  -15.7159  -49.7535 H         1 UNK         0.0800 
    136 H136       -1.5887  -18.4052  -51.4829 H         1 UNK         0.1150 
    137 H137        1.5685  -21.2477  -50.9638 H         1 UNK         0.1150 
    138 H138        1.6694  -17.5123  -48.8522 H         1 UNK         0.1150 
    139 H139        3.0992  -20.9851  -49.1242 H         1 UNK         0.0800 
    140 H140        3.8952  -19.6072  -49.8294 H         1 UNK         0.0800 
    141 H141        2.0693  -19.0512  -45.5907 H         1 UNK         0.0800 
    142 H142        1.0564  -19.1071  -46.9795 H         1 UNK         0.0800 
    143 H143        2.6436  -21.6000  -46.1959 H         1 UNK         0.0600 
    144 H144        0.6131  -20.4636  -44.5018 H         1 UNK         0.3000 
    145 H145        0.1432  -23.5222  -42.6496 H         1 UNK         0.0600 
    146 H146        0.8677  -22.1275  -40.7642 H         1 UNK         0.0600 
    147 H147        2.2575  -22.4932  -41.7764 H         1 UNK         0.0600 
    148 H148        1.5043  -20.9034  -41.8555 H         1 UNK         0.0600 
    149 H149       -0.8357  -20.7504  -43.2170 H         1 UNK         0.3000 
    150 H150       -4.1219  -21.7946  -42.7148 H         1 UNK         0.0600 
    151 H151       -3.6883  -21.4286  -40.2771 H         1 UNK         0.0600 
    152 H152       -4.4638  -20.0300  -41.0011 H         1 UNK         0.0600 
    153 H153       -2.7343  -19.9984  -40.6518 H         1 UNK         0.0600 
    154 H154       -3.1082  -19.1547  -42.9374 H         1 UNK         0.3000 
    155 H155       -2.2732  -19.0947  -46.3339 H         1 UNK         0.0600 
    156 H156       -4.1237  -17.4794  -46.5904 H         1 UNK         0.0600 
    157 H157       -4.8879  -18.0690  -45.1128 H         1 UNK         0.0600 
    158 H158       -4.7645  -19.1095  -46.5260 H         1 UNK         0.0600 
    159 H159       -2.6791  -16.9338  -44.6342 H         1 UNK         0.3000 
    160 H160       -0.3194  -15.8835  -44.4090 H         1 UNK         0.0600 
    161 H161       -1.3840  -16.8386  -41.6969 H         1 UNK         0.0600 
    162 H162       -2.1885  -15.7614  -42.8290 H         1 UNK         0.0600 
    163 H163       -0.7429  -15.2254  -41.9959 H         1 UNK         0.0600 
    164 H164        1.7284  -16.2714  -43.7176 H         1 UNK         0.3000 
    165 H165        3.2591  -17.7596  -40.9576 H         1 UNK         0.0600 
    166 H166        3.6361  -18.4973  -43.9121 H         1 UNK         0.0600 
    167 H167        4.8040  -18.7348  -42.6167 H         1 UNK         0.0600 
    168 H168        3.3092  -19.6536  -42.6274 H         1 UNK         0.0600 
    169 H169        4.2111  -16.2503  -43.2289 H         1 UNK         0.3000 
    170 H170        3.4974  -13.0255  -41.9389 H         1 UNK         0.0600 
    171 H171        5.6661  -13.5789  -40.9209 H         1 UNK         0.0600 
    172 H172        6.1688  -14.4658  -42.3500 H         1 UNK         0.0600 
    173 H173        5.9191  -12.7220  -42.4337 H         1 UNK         0.0600 
    174 H174        3.1270  -13.0946  -44.0729 H         1 UNK         0.3000 
    175 H175        4.8132  -13.9769  -46.8423 H         1 UNK         0.0600 
    176 H176        2.3855  -15.7584  -46.2619 H         1 UNK         0.0600 
    177 H177        2.8648  -15.2182  -47.8701 H         1 UNK         0.0600 
    178 H178        3.9264  -16.2603  -46.9383 H         1 UNK         0.0600 
    179 H179        2.0242  -13.2633  -46.3912 H         1 UNK         0.3000 
    180 H180        2.5940   -9.9574  -45.4286 H         1 UNK         0.0600 
    181 H181        1.8924  -10.6426  -48.3320 H         1 UNK         0.0600 
    182 H182        3.1081   -9.4851  -47.8074 H         1 UNK         0.0600 
    183 H183        1.4092   -9.1723  -47.4859 H         1 UNK         0.0600 
    184 H184        0.2657  -11.2063  -46.5138 H         1 UNK         0.3000 
    185 H185       -0.5632  -13.3097  -43.8268 H         1 UNK         0.0600 
    186 H186       -1.1956  -11.1678  -42.6986 H         1 UNK         0.0600 
    187 H187       -1.8336  -10.5469  -44.2166 H         1 UNK         0.0600 
    188 H188       -2.5900  -11.9378  -43.4374 H         1 UNK         0.0600 
    189 H189       -2.2082  -12.3217  -45.9081 H         1 UNK         0.3000 
    190 H190       -0.7654  -20.5856  -46.7920 H         1 UNK         0.3000 
    191 H191       -0.8063  -21.7583  -49.4091 H         1 UNK         0.0600 
    192 H192       -3.1153  -21.0242  -49.4854 H         1 UNK         0.0600 
    193 H193       -2.1555  -19.7312  -48.7837 H         1 UNK         0.0600 
    194 H194       -3.1827  -20.7486  -47.7673 H         1 UNK         0.0600 
    195 H195       -2.0861  -22.7863  -46.2692 H         1 UNK         0.3000 
    196 H196       -3.6872  -24.8923  -46.9411 H         1 UNK         0.0600 
    197 H197       -3.2224  -25.6961  -44.6053 H         1 UNK         0.0600 
    198 H198       -3.4749  -23.9606  -44.6675 H         1 UNK         0.0600 
    199 H199       -1.8416  -24.6081  -44.5139 H         1 UNK         0.0600 
    200 H200       -0.2405  -24.9491  -47.3109 H         1 UNK         0.3000 
    201 H201        0.1602  -27.8031  -47.3608 H         1 UNK         0.0600 
    202 H202        2.0180  -26.1841  -47.0189 H         1 UNK         0.0600 
    203 H203        1.7474  -25.5010  -48.6214 H         1 UNK         0.0600 
    204 H204        2.3137  -27.1590  -48.4508 H         1 UNK         0.0600 
    205 H205       -1.2262  -25.5223  -49.6363 H         1 UNK         0.3000 
    206 H206       -1.2503  -27.5682  -51.8285 H         1 UNK         0.0600 
    207 H207        0.0819  -25.5864  -52.4672 H         1 UNK         0.0600 
    208 H208       -1.4291  -25.6025  -53.3640 H         1 UNK         0.0600 
    209 H209       -1.2271  -24.5044  -52.0033 H         1 UNK         0.0600 
    210 H210       -3.0346  -24.7335  -50.4861 H         1 UNK         0.3000 
    211 H211       -5.5226  -26.0279  -50.1715 H         1 UNK         0.0600 
    212 H212       -5.7311  -25.9384  -52.6553 H         1 UNK         0.0600 
    213 H213       -5.2774  -24.2365  -52.6623 H         1 UNK         0.0600 
    214 H214       -6.8024  -24.7438  -51.9472 H         1 UNK         0.0600 
    215 H215       -6.1811  -24.9225  -48.4125 H         1 UNK         0.3000 
    216 H216       -4.9411  -22.5913  -47.4567 H         1 UNK         0.0600 
    217 H217       -6.6108  -22.7791  -45.6195 H         1 UNK         0.0600 
    218 H218       -5.9342  -24.3483  -46.0121 H         1 UNK         0.0600 
    219 H219       -7.5528  -23.9224  -46.5698 H         1 UNK         0.0600 
    220 H220       -7.4064  -22.7115  -49.7786 H         1 UNK         0.3000 
    221 H221       -8.7568  -20.2168  -49.2845 H         1 UNK         0.0600 
    222 H222       -8.3777  -21.8543  -51.8538 H         1 UNK         0.0600 
    223 H223       -9.7174  -22.0123  -50.7168 H         1 UNK         0.0600 
    224 H224       -9.5227  -20.5348  -51.6448 H         1 UNK         0.0600 
    225 H225       -5.6067  -20.9938  -50.5247 H         1 UNK         0.3000 
    226 H226       -3.8505  -19.8621  -51.1604 H         1 UNK         0.0600 
    227 H227       -4.3335  -18.3243  -49.2733 H         1 UNK         0.0600 
    228 H228       -3.5918  -17.4577  -50.6071 H         1 UNK         0.0600 
    229 H229       -5.3149  -17.3054  -50.3248 H         1 UNK         0.0600 
    230 H230       -6.7851  -18.7968  -52.6755 H         1 UNK         0.3000 
    231 H231       -5.8631  -17.3635  -54.8676 H         1 UNK         0.0600 
    232 H232       -8.0313  -18.0539  -55.9200 H         1 UNK         0.0600 
    233 H233       -8.2519  -17.5964  -54.2385 H         1 UNK         0.0600 
    234 H234       -8.2363  -19.3001  -54.6938 H         1 UNK         0.0600 
    235 H235       -5.5615  -20.7958  -54.3482 H         1 UNK         0.3000 
    236 H236       -5.0902  -21.7567  -56.9642 H         1 UNK         0.0600 
    237 H237       -5.4805  -23.2244  -54.9999 H         1 UNK         0.0600 
    238 H238       -3.9450  -23.6281  -55.7495 H         1 UNK         0.0600 
    239 H239       -3.9687  -22.6879  -54.2628 H         1 UNK         0.0600 
    240 H240       -3.0389  -19.8138  -54.8597 H         1 UNK         0.3000 
    241 H241       -0.6681  -20.1823  -56.6065 H         1 UNK         0.0600 
    242 H242       -2.6360  -16.9140  -57.6649 H         1 UNK         0.3800 
    243 H243       -3.4195  -18.3137  -56.9802 H         1 UNK         0.3800 
    244 H244        0.5314  -18.8242  -54.8740 H         1 UNK         0.0800 
    245 H245       -0.9346  -18.7369  -53.9350 H         1 UNK         0.0800 
    246 H246       -1.8142  -20.5988  -52.4444 H         1 UNK         0.0800 
    247 H247       -0.7801  -21.8768  -51.8635 H         1 UNK         0.0800 
@<TRIPOS>BOND
     1    1    2 1    
     2    1  127 1    
     3    1  128 1    
     4    1  129 1    
     5    2    3 2    
     6    2    4 am   BACKBONE|DICT|INTERRES
     7    4    5 1    
     8    4  130 1    
     9    5    6 1    
    10    5   65 1    
    11    5  131 1    
    12    6    7 1    
    13    6  132 1    
    14    6  133 1    
    15    7    8 1    
    16    8    9 1    
    17    8  134 1    
    18    8  135 1    
    19    9   10 ar   
    20    9   14 ar   
    21   10   11 ar   
    22   10  136 1    
    23   11   12 ar   
    24   11  126 1    
    25   12   13 ar   
    26   12  137 1    
    27   13   14 ar   
    28   13   15 1    
    29   14  138 1    
    30   15   16 1    
    31   15  139 1    
    32   15  140 1    
    33   16   17 1    
    34   17   18 1    
    35   17  141 1    
    36   17  142 1    
    37   18   19 1    
    38   18   67 1    
    39   18  143 1    
    40   19   20 am   BACKBONE|DICT|INTERRES
    41   19  144 1    
    42   20   21 2    
    43   20   22 1    
    44   22   23 1    
    45   22   24 1    
    46   22  145 1    
    47   23  146 1    
    48   23  147 1    
    49   23  148 1    
    50   24   25 am   BACKBONE|DICT|INTERRES
    51   24  149 1    
    52   25   26 2    
    53   25   27 1    
    54   27   28 1    
    55   27   29 1    
    56   27  150 1    
    57   28  151 1    
    58   28  152 1    
    59   28  153 1    
    60   29   30 am   BACKBONE|DICT|INTERRES
    61   29  154 1    
    62   30   31 2    
    63   30   32 1    
    64   32   33 1    
    65   32   34 1    
    66   32  155 1    
    67   33  156 1    
    68   33  157 1    
    69   33  158 1    
    70   34   35 am   BACKBONE|DICT|INTERRES
    71   34  159 1    
    72   35   36 2    
    73   35   37 1    
    74   37   38 1    
    75   37   39 1    
    76   37  160 1    
    77   38  161 1    
    78   38  162 1    
    79   38  163 1    
    80   39   40 am   BACKBONE|DICT|INTERRES
    81   39  164 1    
    82   40   41 2    
    83   40   42 1    
    84   42   43 1    
    85   42   44 1    
    86   42  165 1    
    87   43  166 1    
    88   43  167 1    
    89   43  168 1    
    90   44   45 am   BACKBONE|DICT|INTERRES
    91   44  169 1    
    92   45   46 2    
    93   45   47 1    
    94   47   48 1    
    95   47   49 1    
    96   47  170 1    
    97   48  171 1    
    98   48  172 1    
    99   48  173 1    
   100   49   50 am   BACKBONE|DICT|INTERRES
   101   49  174 1    
   102   50   51 2    
   103   50   52 1    
   104   52   53 1    
   105   52   54 1    
   106   52  175 1    
   107   53  176 1    
   108   53  177 1    
   109   53  178 1    
   110   54   55 am   BACKBONE|DICT|INTERRES
   111   54  179 1    
   112   55   56 2    
   113   55   57 1    
   114   57   58 1    
   115   57   59 1    
   116   57  180 1    
   117   58  181 1    
   118   58  182 1    
   119   58  183 1    
   120   59   60 am   BACKBONE|DICT|INTERRES
   121   59  184 1    
   122   60   61 2    
   123   60   62 1    
   124   62   63 1    
   125   62   64 1    
   126   62  185 1    
   127   63  186 1    
   128   63  187 1    
   129   63  188 1    
   130   64   65 am   BACKBONE|DICT|INTERRES
   131   64  189 1    
   132   65   66 2    
   133   67   68 2    
   134   67   69 am   BACKBONE|DICT|INTERRES
   135   69   70 1    
   136   69  190 1    
   137   70   71 1    
   138   70   72 1    
   139   70  191 1    
   140   71  192 1    
   141   71  193 1    
   142   71  194 1    
   143   72   73 2    
   144   72   74 am   BACKBONE|DICT|INTERRES
   145   74   75 1    
   146   74  195 1    
   147   75   76 1    
   148   75   77 1    
   149   75  196 1    
   150   76  197 1    
   151   76  198 1    
   152   76  199 1    
   153   77   78 2    
   154   77   79 am   BACKBONE|DICT|INTERRES
   155   79   80 1    
   156   79  200 1    
   157   80   81 1    
   158   80   82 1    
   159   80  201 1    
   160   81  202 1    
   161   81  203 1    
   162   81  204 1    
   163   82   83 2    
   164   82   84 am   BACKBONE|DICT|INTERRES
   165   84   85 1    
   166   84  205 1    
   167   85   86 1    
   168   85   87 1    
   169   85  206 1    
   170   86  207 1    
   171   86  208 1    
   172   86  209 1    
   173   87   88 2    
   174   87   89 am   BACKBONE|DICT|INTERRES
   175   89   90 1    
   176   89  210 1    
   177   90   91 1    
   178   90   92 1    
   179   90  211 1    
   180   91  212 1    
   181   91  213 1    
   182   91  214 1    
   183   92   93 2    
   184   92   94 am   BACKBONE|DICT|INTERRES
   185   94   95 1    
   186   94  215 1    
   187   95   96 1    
   188   95   97 1    
   189   95  216 1    
   190   96  217 1    
   191   96  218 1    
   192   96  219 1    
   193   97   98 2    
   194   97   99 am   BACKBONE|DICT|INTERRES
   195   99  100 1    
   196   99  220 1    
   197  100  101 1    
   198  100  102 1    
   199  100  221 1    
   200  101  222 1    
   201  101  223 1    
   202  101  224 1    
   203  102  103 2    
   204  102  104 am   BACKBONE|DICT|INTERRES
   205  104  105 1    
   206  104  225 1    
   207  105  106 1    
   208  105  107 1    
   209  105  226 1    
   210  106  227 1    
   211  106  228 1    
   212  106  229 1    
   213  107  108 2    
   214  107  109 am   BACKBONE|DICT|INTERRES
   215  109  110 1    
   216  109  230 1    
   217  110  111 1    
   218  110  112 1    
   219  110  231 1    
   220  111  232 1    
   221  111  233 1    
   222  111  234 1    
   223  112  113 2    
   224  112  114 am   BACKBONE|DICT|INTERRES
   225  114  115 1    
   226  114  235 1    
   227  115  116 1    
   228  115  117 1    
   229  115  236 1    
   230  116  237 1    
   231  116  238 1    
   232  116  239 1    
   233  117  118 2    
   234  117  119 am   BACKBONE|DICT|INTERRES
   235  119  120 1    
   236  119  240 1    
   237  120  121 1    
   238  120  124 1    
   239  120  241 1    
   240  121  122 am   BACKBONE|DICT|INTERRES
   241  121  123 2    
   242  122  242 1    
   243  122  243 1    
   244  124  125 1    
   245  124  244 1    
   246  124  245 1    
   247  125  126 1    
   248  126  246 1    
   249  126  247 1    
@<TRIPOS>SUBSTRUCTURE
     1 UNK         1 GROUP             0       ****    0 ROOT    
