@<TRIPOS>MOLECULE
3R540
247   249    1
SMALL
USER_CHARGES


@<TRIPOS>ATOM
      1 CA         -2.8169  -11.4180  -47.6979 C.3       0 UNK        -0.1800 
      2 C          -2.2638  -12.3072  -46.5951 C.2       0 UNK         0.5000 
      3 O          -1.4095  -11.8688  -45.8253 O.2       0 UNK        -0.5000 
      4 N          -2.7591  -13.5480  -46.4995 N.am      1 UNK        -0.5000 
      5 CA         -2.3132  -14.5912  -45.5618 C.3       1 UNK         0.1400 
      6 C6         -2.9781  -15.9584  -45.8647 C.3       23 UNK        -0.0398 
      7 S7         -2.7822  -16.5342  -47.5870 S.3       23 UNK        -0.2404 
      8 C8         -0.9732  -16.5438  -47.7737 C.3       23 UNK        -0.0205 
      9 C9         -0.5511  -17.3021  -49.0210 C.ar      23 UNK        -0.0193 
     10 C10        -0.6086  -16.6899  -50.2761 C.ar      23 UNK        -0.1150 
     11 C11        -0.2164  -17.3888  -51.4218 C.ar      23 UNK        -0.0193 
     12 C12         0.2563  -18.7001  -51.3050 C.ar      23 UNK        -0.1150 
     13 C13         0.3198  -19.3199  -50.0549 C.ar      23 UNK        -0.0193 
     14 C14        -0.0966  -18.6188  -48.9209 C.ar      23 UNK        -0.1150 
     15 C15         0.8263  -20.7467  -49.9231 C.3       23 UNK        -0.0205 
     16 S16        -0.5546  -21.9221  -49.9748 S.3       23 UNK        -0.2404 
     17 C17         0.2290  -23.4343  -49.3072 C.3       23 UNK        -0.0398 
     18 CA          0.1355  -23.6625  -47.7652 C.3       11 UNK         0.1400 
     19 N           1.2244  -23.0511  -46.9950 N.am      11 UNK        -0.5000 
     20 C           2.4692  -23.5557  -46.9810 C.2       10 UNK         0.5000 
     21 O           2.8066  -24.5334  -47.6507 O.2       10 UNK        -0.5000 
     22 CA          3.5291  -22.8960  -46.0803 C.3       10 UNK         0.1400 
     23 CB          4.4460  -21.9772  -46.9044 C.3       10 UNK        -0.1800 
     24 N           2.9567  -22.1477  -44.9630 N.am      10 UNK        -0.5000 
     25 C           2.6048  -22.6887  -43.7878 C.2       9 UNK         0.5000 
     26 O           2.7002  -23.8909  -43.5384 O.2       9 UNK        -0.5000 
     27 CA          2.0683  -21.7379  -42.6960 C.3       9 UNK         0.1400 
     28 CB          3.1804  -21.3927  -41.6939 C.3       9 UNK        -0.1800 
     29 N           1.5116  -20.4924  -43.2210 N.am      9 UNK        -0.5000 
     30 C           0.4039  -20.4109  -43.9667 C.2       8 UNK         0.5000 
     31 O          -0.3041  -21.3766  -44.2485 O.2       8 UNK        -0.5000 
     32 CA          0.0836  -19.0291  -44.5619 C.3       8 UNK         0.1400 
     33 CB         -0.6464  -18.1527  -43.5370 C.3       8 UNK        -0.1800 
     34 N           1.2694  -18.3351  -45.0650 N.am      8 UNK        -0.5000 
     35 C           2.0731  -18.8121  -46.0263 C.2       7 UNK         0.5000 
     36 O           1.8897  -19.8924  -46.5841 O.2       7 UNK        -0.5000 
     37 CA          3.3020  -17.9687  -46.3950 C.3       7 UNK         0.1400 
     38 CB          2.9309  -16.8782  -47.4113 C.3       7 UNK        -0.1800 
     39 N           3.8980  -17.3658  -45.2039 N.am      7 UNK        -0.5000 
     40 C           4.6428  -18.0420  -44.3167 C.2       6 UNK         0.5000 
     41 O           4.9827  -19.2160  -44.4622 O.2       6 UNK        -0.5000 
     42 CA          5.0453  -17.2908  -43.0334 C.3       6 UNK         0.1400 
     43 CB          6.3390  -16.4933  -43.2556 C.3       6 UNK        -0.1800 
     44 N           3.9970  -16.3884  -42.5538 N.am      6 UNK        -0.5000 
     45 C           2.8063  -16.7879  -42.0844 C.2       5 UNK         0.5000 
     46 O           2.4844  -17.9699  -41.9607 O.2       5 UNK        -0.5000 
     47 CA          1.7908  -15.6800  -41.7401 C.3       5 UNK         0.1400 
     48 CB          1.9318  -15.2539  -40.2720 C.3       5 UNK        -0.1800 
     49 N           1.8967  -14.4959  -42.5969 N.am      5 UNK        -0.5000 
     50 C           1.7206  -14.4815  -43.9240 C.2       4 UNK         0.5000 
     51 O           1.4815  -15.4929  -44.5860 O.2       4 UNK        -0.5000 
     52 CA          1.8410  -13.1086  -44.6137 C.3       4 UNK         0.1400 
     53 CB          1.7384  -13.2049  -46.1467 C.3       4 UNK        -0.1800 
     54 N           0.8249  -12.1752  -44.1313 N.am      4 UNK        -0.5000 
     55 C           0.8752  -11.4849  -42.9840 C.2       3 UNK         0.5000 
     56 O           1.8026  -11.5724  -42.1776 O.2       3 UNK        -0.5000 
     57 CA         -0.3208  -10.5708  -42.6765 C.3       3 UNK         0.1400 
     58 CB         -0.2743   -9.3020  -43.5429 C.3       3 UNK        -0.1800 
     59 N          -1.5769  -11.2769  -42.9200 N.am      3 UNK        -0.5000 
     60 C          -2.3198  -11.8650  -41.9720 C.2       2 UNK         0.5000 
     61 O          -2.0700  -11.8025  -40.7676 O.2       2 UNK        -0.5000 
     62 CA         -3.5485  -12.6695  -42.4457 C.3       2 UNK         0.1400 
     63 CB         -4.8031  -11.7830  -42.4502 C.3       2 UNK        -0.1800 
     64 N          -3.3726  -13.2543  -43.7763 N.am      2 UNK        -0.5000 
     65 C          -2.4928  -14.2219  -44.0716 C.2       1 UNK         0.5000 
     66 O          -1.8144  -14.7981  -43.2222 O.2       1 UNK        -0.5000 
     67 C          -1.2539  -23.3745  -47.1694 C.2       11 UNK         0.5000 
     68 O          -2.0241  -24.3190  -46.9902 O.2       11 UNK        -0.5000 
     69 N          -1.5735  -22.0980  -46.8955 N.am      12 UNK        -0.5000 
     70 CA         -2.9378  -21.6224  -46.6124 C.3       12 UNK         0.1400 
     71 CB         -2.9567  -20.0984  -46.4308 C.3       12 UNK        -0.1800 
     72 C          -3.6310  -22.3003  -45.4182 C.2       12 UNK         0.5000 
     73 O          -4.8512  -22.4543  -45.4402 O.2       12 UNK        -0.5000 
     74 N          -2.8386  -22.7392  -44.4338 N.am      13 UNK        -0.5000 
     75 CA         -3.2651  -23.5182  -43.2715 C.3       13 UNK         0.1400 
     76 CB         -2.0434  -23.7532  -42.3692 C.3       13 UNK        -0.1800 
     77 C          -3.9534  -24.8602  -43.6100 C.2       13 UNK         0.5000 
     78 O          -4.7051  -25.3650  -42.7745 O.2       13 UNK        -0.5000 
     79 N          -3.6983  -25.4090  -44.8070 N.am      14 UNK        -0.5000 
     80 CA         -4.3025  -26.6464  -45.3025 C.3       14 UNK         0.1400 
     81 CB         -3.2215  -27.7365  -45.3804 C.3       14 UNK        -0.1800 
     82 C          -4.9752  -26.4572  -46.6733 C.2       14 UNK         0.5000 
     83 O          -6.0645  -26.9896  -46.8890 O.2       14 UNK        -0.5000 
     84 N          -4.3175  -25.7271  -47.5833 N.am      15 UNK        -0.5000 
     85 CA         -4.7164  -25.5897  -48.9858 C.3       15 UNK         0.1400 
     86 CB         -3.4450  -25.4236  -49.8365 C.3       15 UNK        -0.1800 
     87 C          -5.6748  -24.4146  -49.2495 C.2       15 UNK         0.5000 
     88 O          -6.2378  -24.3466  -50.3411 O.2       15 UNK        -0.5000 
     89 N          -5.8042  -23.4904  -48.2848 N.am      16 UNK        -0.5000 
     90 CA         -6.5654  -22.2299  -48.3367 C.3       16 UNK         0.1400 
     91 CB         -8.0630  -22.4876  -48.6037 C.3       16 UNK        -0.1800 
     92 C          -5.9854  -21.1527  -49.2849 C.2       16 UNK         0.5000 
     93 O          -6.5527  -20.0619  -49.3612 O.2       16 UNK        -0.5000 
     94 N          -4.8600  -21.4534  -49.9516 N.am      17 UNK        -0.5000 
     95 CA         -4.1365  -20.6176  -50.9155 C.3       17 UNK         0.1400 
     96 CB         -3.4684  -19.4217  -50.2031 C.3       17 UNK        -0.1800 
     97 C          -5.0037  -20.2255  -52.1347 C.2       17 UNK         0.5000 
     98 O          -5.8317  -21.0285  -52.5698 O.2       17 UNK        -0.5000 
     99 N          -4.7842  -19.0173  -52.6727 N.am      18 UNK        -0.5000 
    100 CA        -5.4557  -18.4216  -53.8295 C.3       18 UNK         0.1400 
    101 CB        -6.9501  -18.1630  -53.5280 C.3       18 UNK        -0.1800 
    102 C         -5.1897  -19.2138  -55.1269 C.2       18 UNK         0.5000 
    103 O         -4.0427  -19.2500  -55.5780 O.2       18 UNK        -0.5000 
    104 N         -6.2437  -19.7949  -55.7188 N.am      19 UNK        -0.5000 
    105 CA        -6.2354  -20.5208  -56.9908 C.3       19 UNK         0.1400 
    106 CB        -7.6366  -21.0946  -57.2509 C.3       19 UNK        -0.1800 
    107 C         -5.1738  -21.6350  -57.0465 C.2       19 UNK         0.5000 
    108 O         -5.0888  -22.4476  -56.1229 O.2       19 UNK        -0.5000 
    109 N         -4.3719  -21.6226  -58.1197 N.am      20 UNK        -0.5000 
    110 CA        -3.2050  -22.4666  -58.4107 C.3       20 UNK         0.1400 
    111 CB        -3.5764  -23.9609  -58.4694 C.3       20 UNK        -0.1800 
    112 C         -2.0018  -22.2211  -57.4774 C.2       20 UNK         0.5000 
    113 O         -0.8842  -22.0645  -57.9708 O.2       20 UNK        -0.5000 
    114 N         -2.2452  -22.1624  -56.1620 N.am      21 UNK        -0.5000 
    115 CA        -1.2543  -21.9586  -55.1027 C.3       21 UNK         0.1400 
    116 CB        -1.9630  -21.9946  -53.7423 C.3       21 UNK        -0.1800 
    117 C         -0.4469  -20.6561  -55.2474 C.2       21 UNK         0.5000 
    118 O          0.7665  -20.6706  -55.0362 O.2       21 UNK        -0.5000 
    119 N         -1.1283  -19.5705  -55.6303 N.am      22 UNK        -0.5000 
    120 CA        -0.5255  -18.2570  -55.9063 C.3       22 UNK         0.1400 
    121 C         -0.1272  -18.0558  -57.3990 C.2       22 UNK         0.5000 
    122 N         -0.1883  -19.0694  -58.2558 N.am      22 UNK        -0.7600 
    123 O          0.2631  -16.9594  -57.7913 O.2       22 UNK        -0.5000 
    124 C124       -1.4008  -17.0880  -55.3761 C.3       23 UNK        -0.0398 
    125 S125       -1.8531  -17.2679  -53.6164 S.3       23 UNK        -0.2404 
    126 C126       -0.3204  -16.7437  -52.7918 C.3       23 UNK        -0.0205 
    127 H127       -3.2727  -10.5267  -47.2669 H         1 UNK         0.0600 
    128 H128       -3.5702  -11.9329  -48.2946 H         1 UNK         0.0600 
    129 H129       -2.0121  -11.1037  -48.3623 H         1 UNK         0.0600 
    130 H130       -3.4585  -13.8466  -47.1649 H         1 UNK         0.3000 
    131 H131       -1.2368  -14.7018  -45.7000 H         1 UNK         0.0600 
    132 H132       -4.0483  -15.9100  -45.6561 H         1 UNK         0.0800 
    133 H133       -2.5831  -16.7356  -45.2106 H         1 UNK         0.0800 
    134 H134       -0.5162  -16.9866  -46.8881 H         1 UNK         0.0800 
    135 H135       -0.6052  -15.5187  -47.8331 H         1 UNK         0.0800 
    136 H136       -0.9750  -15.6766  -50.3610 H         1 UNK         0.1150 
    137 H137        0.5557  -19.2435  -52.1906 H         1 UNK         0.1150 
    138 H138       -0.0712  -19.1030  -47.9579 H         1 UNK         0.1150 
    139 H139        1.5314  -20.9786  -50.7226 H         1 UNK         0.0800 
    140 H140        1.3727  -20.8595  -48.9863 H         1 UNK         0.0800 
    141 H141        1.2649  -23.4769  -49.6452 H         1 UNK         0.0800 
    142 H142       -0.2606  -24.2711  -49.8075 H         1 UNK         0.0800 
    143 H143        0.2530  -24.7399  -47.6227 H         1 UNK         0.0600 
    144 H144        1.0036  -22.2587  -46.4068 H         1 UNK         0.3000 
    145 H145        4.1537  -23.6955  -45.6759 H         1 UNK         0.0600 
    146 H146        3.8861  -21.2166  -47.4467 H         1 UNK         0.0600 
    147 H147        5.1752  -21.4717  -46.2708 H         1 UNK         0.0600 
    148 H148        5.0029  -22.5528  -47.6445 H         1 UNK         0.0600 
    149 H149        2.8071  -21.1588  -45.1167 H         1 UNK         0.3000 
    150 H150        1.2745  -22.2649  -42.1624 H         1 UNK         0.0600 
    151 H151        3.6075  -22.2949  -41.2542 H         1 UNK         0.0600 
    152 H152        2.7982  -20.7813  -40.8761 H         1 UNK         0.0600 
    153 H153        3.9919  -20.8417  -42.1715 H         1 UNK         0.0600 
    154 H154        2.0088  -19.6363  -42.9945 H         1 UNK         0.3000 
    155 H155       -0.5647  -19.1713  -45.4237 H         1 UNK         0.0600 
    156 H156       -0.1343  -18.1414  -42.5755 H         1 UNK         0.0600 
    157 H157       -1.6568  -18.5224  -43.3600 H         1 UNK         0.0600 
    158 H158       -0.7252  -17.1230  -43.8812 H         1 UNK         0.0600 
    159 H159        1.4517  -17.4060  -44.6963 H         1 UNK         0.3000 
    160 H160        4.0377  -18.6278  -46.8611 H         1 UNK         0.0600 
    161 H161        2.1399  -16.2264  -47.0412 H         1 UNK         0.0600 
    162 H162        2.5740  -17.3231  -48.3411 H         1 UNK         0.0600 
    163 H163        3.7917  -16.2570  -47.6584 H         1 UNK         0.0600 
    164 H164        3.6112  -16.4231  -44.9830 H         1 UNK         0.3000 
    165 H165        5.2314  -18.0364  -42.2573 H         1 UNK         0.0600 
    166 H166        6.6734  -16.0191  -42.3327 H         1 UNK         0.0600 
    167 H167        7.1451  -17.1451  -43.5952 H         1 UNK         0.0600 
    168 H168        6.2089  -15.7134  -44.0069 H         1 UNK         0.0600 
    169 H169        4.1802  -15.3979  -42.6163 H         1 UNK         0.3000 
    170 H170        0.7899  -16.0916  -41.8782 H         1 UNK         0.0600 
    171 H171        1.8307  -16.1111  -39.6049 H         1 UNK         0.0600 
    172 H172        2.9028  -14.7970  -40.0767 H         1 UNK         0.0600 
    173 H173        1.1603  -14.5349  -39.9952 H         1 UNK         0.0600 
    174 H174        2.0556  -13.6061  -42.1364 H         1 UNK         0.3000 
    175 H175        2.8287  -12.7092  -44.3744 H         1 UNK         0.0600 
    176 H176        0.7846  -13.6258  -46.4650 H         1 UNK         0.0600 
    177 H177        1.8395  -12.2235  -46.6103 H         1 UNK         0.0600 
    178 H178        2.5296  -13.8363  -46.5519 H         1 UNK         0.0600 
    179 H179        0.0156  -12.0530  -44.7365 H         1 UNK         0.3000 
    180 H180       -0.2520  -10.2649  -41.6304 H         1 UNK         0.0600 
    181 H181       -0.3452   -9.5323  -44.6067 H         1 UNK         0.0600 
    182 H182        0.6570   -8.7564  -43.3857 H         1 UNK         0.0600 
    183 H183       -1.0928   -8.6269  -43.2929 H         1 UNK         0.0600 
    184 H184       -1.8258  -11.4199  -43.8923 H         1 UNK         0.3000 
    185 H185       -3.7060  -13.4832  -41.7345 H         1 UNK         0.0600 
    186 H186       -4.9783  -11.3497  -41.4646 H         1 UNK         0.0600 
    187 H187       -4.7117  -10.9593  -43.1594 H         1 UNK         0.0600 
    188 H188       -5.6915  -12.3573  -42.7139 H         1 UNK         0.0600 
    189 H189       -3.8934  -12.8342  -44.5322 H         1 UNK         0.3000 
    190 H190       -0.8821  -21.3850  -47.0691 H         1 UNK         0.3000 
    191 H191       -3.5220  -21.8550  -47.5027 H         1 UNK         0.0600 
    192 H192       -2.6780  -19.8104  -45.4179 H         1 UNK         0.0600 
    193 H193       -3.9598  -19.7069  -46.6043 H         1 UNK         0.0600 
    194 H194       -2.2903  -19.5932  -47.1275 H         1 UNK         0.0600 
    195 H195       -1.8516  -22.4992  -44.4828 H         1 UNK         0.3000 
    196 H196       -3.9883  -22.9140  -42.7206 H         1 UNK         0.0600 
    197 H197       -2.3169  -24.3131  -41.4740 H         1 UNK         0.0600 
    198 H198       -1.6080  -22.8089  -42.0411 H         1 UNK         0.0600 
    199 H199       -1.2662  -24.3169  -42.8870 H         1 UNK         0.0600 
    200 H200       -3.0689  -24.9239  -45.4382 H         1 UNK         0.3000 
    201 H201       -5.0796  -26.9932  -44.6183 H         1 UNK         0.0600 
    202 H202       -2.8000  -27.9415  -44.3962 H         1 UNK         0.0600 
    203 H203       -2.4031  -27.4458  -46.0405 H         1 UNK         0.0600 
    204 H204       -3.6346  -28.6725  -45.7588 H         1 UNK         0.0600 
    205 H205       -3.4244  -25.3052  -47.3351 H         1 UNK         0.3000 
    206 H206       -5.2202  -26.5034  -49.3085 H         1 UNK         0.0600 
    207 H207       -2.7502  -26.2480  -49.6750 H         1 UNK         0.0600 
    208 H208       -3.6847  -25.4068  -50.9005 H         1 UNK         0.0600 
    209 H209       -2.9223  -24.4948  -49.6061 H         1 UNK         0.0600 
    210 H210       -5.3159  -23.6548  -47.4141 H         1 UNK         0.3000 
    211 H211       -6.4952  -21.8011  -47.3372 H         1 UNK         0.0600 
    212 H212       -8.2443  -22.8242  -49.6245 H         1 UNK         0.0600 
    213 H213       -8.6463  -21.5780  -48.4570 H         1 UNK         0.0600 
    214 H214       -8.4619  -23.2403  -47.9236 H         1 UNK         0.0600 
    215 H215       -4.5175  -22.3971  -49.8602 H         1 UNK         0.3000 
    216 H216       -3.3373  -21.2470  -51.3062 H         1 UNK         0.0600 
    217 H217       -2.7934  -18.8841  -50.8692 H         1 UNK         0.0600 
    218 H218       -2.8636  -19.7628  -49.3652 H         1 UNK         0.0600 
    219 H219       -4.1988  -18.7091  -49.8189 H         1 UNK         0.0600 
    220 H220       -4.0438  -18.4547  -52.2772 H         1 UNK         0.3000 
    221 H221       -4.9879  -17.4475  -53.9791 H         1 UNK         0.0600 
    222 H222       -7.5041  -19.0829  -53.3396 H         1 UNK         0.0600 
    223 H223       -7.0623  -17.5291  -52.6483 H         1 UNK         0.0600 
    224 H224       -7.4346  -17.6457  -54.3571 H         1 UNK         0.0600 
    225 H225       -7.1326  -19.7447  -55.2441 H         1 UNK         0.3000 
    226 H226       -6.0170  -19.7897  -57.7717 H         1 UNK         0.0600 
    227 H227       -8.3868  -20.3047  -57.2931 H         1 UNK         0.0600 
    228 H228       -7.6710  -21.6255  -58.2032 H         1 UNK         0.0600 
    229 H229       -7.9322  -21.7986  -56.4718 H         1 UNK         0.0600 
    230 H230       -4.5263  -20.8895  -58.7982 H         1 UNK         0.3000 
    231 H231       -2.8824  -22.1775  -59.4123 H         1 UNK         0.0600 
    232 H232       -2.7273  -24.5568  -58.8062 H         1 UNK         0.0600 
    233 H233       -4.3941  -24.1366  -59.1683 H         1 UNK         0.0600 
    234 H234       -3.8770  -24.3493  -57.4962 H         1 UNK         0.0600 
    235 H235       -3.2116  -22.2789  -55.8694 H         1 UNK         0.3000 
    236 H236       -0.5505  -22.7919  -55.1465 H         1 UNK         0.0600 
    237 H237       -2.7112  -21.2054  -53.6730 H         1 UNK         0.0600 
    238 H238       -2.4626  -22.9492  -53.5769 H         1 UNK         0.0600 
    239 H239       -1.2533  -21.8495  -52.9272 H         1 UNK         0.0600 
    240 H240       -2.1370  -19.6268  -55.7429 H         1 UNK         0.3000 
    241 H241        0.4223  -18.1999  -55.3703 H         1 UNK         0.0600 
    242 H242        0.0816  -18.9190  -59.2151 H         1 UNK         0.3800 
    243 H243       -0.4564  -19.9973  -57.9528 H         1 UNK         0.3800 
    244 H244       -0.8919  -16.1312  -55.5049 H         1 UNK         0.0800 
    245 H245       -2.3246  -17.0220  -55.9528 H         1 UNK         0.0800 
    246 H246        0.5503  -17.0231  -53.3853 H         1 UNK         0.0800 
    247 H247       -0.3045  -15.6557  -52.7126 H         1 UNK         0.0800 
@<TRIPOS>BOND
     1    1    2 1    
     2    1  127 1    
     3    1  128 1    
     4    1  129 1    
     5    2    3 2    
     6    2    4 am   BACKBONE|DICT|INTERRES
     7    4    5 1    
     8    4  130 1    
     9    5    6 1    
    10    5   65 1    
    11    5  131 1    
    12    6    7 1    
    13    6  132 1    
    14    6  133 1    
    15    7    8 1    
    16    8    9 1    
    17    8  134 1    
    18    8  135 1    
    19    9   10 ar   
    20    9   14 ar   
    21   10   11 ar   
    22   10  136 1    
    23   11   12 ar   
    24   11  126 1    
    25   12   13 ar   
    26   12  137 1    
    27   13   14 ar   
    28   13   15 1    
    29   14  138 1    
    30   15   16 1    
    31   15  139 1    
    32   15  140 1    
    33   16   17 1    
    34   17   18 1    
    35   17  141 1    
    36   17  142 1    
    37   18   19 1    
    38   18   67 1    
    39   18  143 1    
    40   19   20 am   BACKBONE|DICT|INTERRES
    41   19  144 1    
    42   20   21 2    
    43   20   22 1    
    44   22   23 1    
    45   22   24 1    
    46   22  145 1    
    47   23  146 1    
    48   23  147 1    
    49   23  148 1    
    50   24   25 am   BACKBONE|DICT|INTERRES
    51   24  149 1    
    52   25   26 2    
    53   25   27 1    
    54   27   28 1    
    55   27   29 1    
    56   27  150 1    
    57   28  151 1    
    58   28  152 1    
    59   28  153 1    
    60   29   30 am   BACKBONE|DICT|INTERRES
    61   29  154 1    
    62   30   31 2    
    63   30   32 1    
    64   32   33 1    
    65   32   34 1    
    66   32  155 1    
    67   33  156 1    
    68   33  157 1    
    69   33  158 1    
    70   34   35 am   BACKBONE|DICT|INTERRES
    71   34  159 1    
    72   35   36 2    
    73   35   37 1    
    74   37   38 1    
    75   37   39 1    
    76   37  160 1    
    77   38  161 1    
    78   38  162 1    
    79   38  163 1    
    80   39   40 am   BACKBONE|DICT|INTERRES
    81   39  164 1    
    82   40   41 2    
    83   40   42 1    
    84   42   43 1    
    85   42   44 1    
    86   42  165 1    
    87   43  166 1    
    88   43  167 1    
    89   43  168 1    
    90   44   45 am   BACKBONE|DICT|INTERRES
    91   44  169 1    
    92   45   46 2    
    93   45   47 1    
    94   47   48 1    
    95   47   49 1    
    96   47  170 1    
    97   48  171 1    
    98   48  172 1    
    99   48  173 1    
   100   49   50 am   BACKBONE|DICT|INTERRES
   101   49  174 1    
   102   50   51 2    
   103   50   52 1    
   104   52   53 1    
   105   52   54 1    
   106   52  175 1    
   107   53  176 1    
   108   53  177 1    
   109   53  178 1    
   110   54   55 am   BACKBONE|DICT|INTERRES
   111   54  179 1    
   112   55   56 2    
   113   55   57 1    
   114   57   58 1    
   115   57   59 1    
   116   57  180 1    
   117   58  181 1    
   118   58  182 1    
   119   58  183 1    
   120   59   60 am   BACKBONE|DICT|INTERRES
   121   59  184 1    
   122   60   61 2    
   123   60   62 1    
   124   62   63 1    
   125   62   64 1    
   126   62  185 1    
   127   63  186 1    
   128   63  187 1    
   129   63  188 1    
   130   64   65 am   BACKBONE|DICT|INTERRES
   131   64  189 1    
   132   65   66 2    
   133   67   68 2    
   134   67   69 am   BACKBONE|DICT|INTERRES
   135   69   70 1    
   136   69  190 1    
   137   70   71 1    
   138   70   72 1    
   139   70  191 1    
   140   71  192 1    
   141   71  193 1    
   142   71  194 1    
   143   72   73 2    
   144   72   74 am   BACKBONE|DICT|INTERRES
   145   74   75 1    
   146   74  195 1    
   147   75   76 1    
   148   75   77 1    
   149   75  196 1    
   150   76  197 1    
   151   76  198 1    
   152   76  199 1    
   153   77   78 2    
   154   77   79 am   BACKBONE|DICT|INTERRES
   155   79   80 1    
   156   79  200 1    
   157   80   81 1    
   158   80   82 1    
   159   80  201 1    
   160   81  202 1    
   161   81  203 1    
   162   81  204 1    
   163   82   83 2    
   164   82   84 am   BACKBONE|DICT|INTERRES
   165   84   85 1    
   166   84  205 1    
   167   85   86 1    
   168   85   87 1    
   169   85  206 1    
   170   86  207 1    
   171   86  208 1    
   172   86  209 1    
   173   87   88 2    
   174   87   89 am   BACKBONE|DICT|INTERRES
   175   89   90 1    
   176   89  210 1    
   177   90   91 1    
   178   90   92 1    
   179   90  211 1    
   180   91  212 1    
   181   91  213 1    
   182   91  214 1    
   183   92   93 2    
   184   92   94 am   BACKBONE|DICT|INTERRES
   185   94   95 1    
   186   94  215 1    
   187   95   96 1    
   188   95   97 1    
   189   95  216 1    
   190   96  217 1    
   191   96  218 1    
   192   96  219 1    
   193   97   98 2    
   194   97   99 am   BACKBONE|DICT|INTERRES
   195   99  100 1    
   196   99  220 1    
   197  100  101 1    
   198  100  102 1    
   199  100  221 1    
   200  101  222 1    
   201  101  223 1    
   202  101  224 1    
   203  102  103 2    
   204  102  104 am   BACKBONE|DICT|INTERRES
   205  104  105 1    
   206  104  225 1    
   207  105  106 1    
   208  105  107 1    
   209  105  226 1    
   210  106  227 1    
   211  106  228 1    
   212  106  229 1    
   213  107  108 2    
   214  107  109 am   BACKBONE|DICT|INTERRES
   215  109  110 1    
   216  109  230 1    
   217  110  111 1    
   218  110  112 1    
   219  110  231 1    
   220  111  232 1    
   221  111  233 1    
   222  111  234 1    
   223  112  113 2    
   224  112  114 am   BACKBONE|DICT|INTERRES
   225  114  115 1    
   226  114  235 1    
   227  115  116 1    
   228  115  117 1    
   229  115  236 1    
   230  116  237 1    
   231  116  238 1    
   232  116  239 1    
   233  117  118 2    
   234  117  119 am   BACKBONE|DICT|INTERRES
   235  119  120 1    
   236  119  240 1    
   237  120  121 1    
   238  120  124 1    
   239  120  241 1    
   240  121  122 am   BACKBONE|DICT|INTERRES
   241  121  123 2    
   242  122  242 1    
   243  122  243 1    
   244  124  125 1    
   245  124  244 1    
   246  124  245 1    
   247  125  126 1    
   248  126  246 1    
   249  126  247 1    
@<TRIPOS>SUBSTRUCTURE
     1 UNK         1 GROUP             0       ****    0 ROOT    
