@<TRIPOS>MOLECULE
3R540
247   249    1
SMALL
USER_CHARGES


@<TRIPOS>ATOM
      1 CA         -2.1442  -17.3052  -41.5508 C.3       0 UNK        -0.1800 
      2 C          -3.1155  -16.5868  -42.4746 C.2       0 UNK         0.5000 
      3 O          -3.9456  -15.8106  -42.0039 O.2       0 UNK        -0.5000 
      4 N          -3.0134  -16.8536  -43.7846 N.am      1 UNK        -0.5000 
      5 CA         -3.8523  -16.2701  -44.8389 C.3       1 UNK         0.1400 
      6 C6         -3.6223  -16.9844  -46.1968 C.3       23 UNK        -0.0398 
      7 S7         -4.8069  -16.5127  -47.5089 S.3       23 UNK        -0.2404 
      8 C8         -3.8983  -15.2512  -48.4700 C.3       23 UNK        -0.0205 
      9 C9         -2.7961  -15.8546  -49.3274 C.ar      23 UNK        -0.0193 
     10 C10        -3.0852  -16.3378  -50.6077 C.ar      23 UNK        -0.1150 
     11 C11        -2.0817  -16.9166  -51.3908 C.ar      23 UNK        -0.0193 
     12 C12        -0.7802  -16.9957  -50.8912 C.ar      23 UNK        -0.1150 
     13 C13        -0.4920  -16.5622  -49.5966 C.ar      23 UNK        -0.0193 
     14 C14        -1.4916  -15.9534  -48.8346 C.ar      23 UNK        -0.1150 
     15 C15         0.8627  -16.8714  -48.9799 C.3       23 UNK        -0.0205 
     16 S16         1.0907  -18.6719  -48.7457 S.3       23 UNK        -0.2404 
     17 C17        -0.4927  -19.1728  -47.9794 C.3       23 UNK        -0.0398 
     18 CA         -0.5758  -20.6836  -47.6632 C.3       11 UNK         0.1400 
     19 N           0.4550  -21.1248  -46.7172 N.am      11 UNK        -0.5000 
     20 C           0.6679  -22.4010  -46.3624 C.2       10 UNK         0.5000 
     21 O           0.0580  -23.3573  -46.8399 O.2       10 UNK        -0.5000 
     22 CA          1.6765  -22.6423  -45.2258 C.3       10 UNK         0.1400 
     23 CB          3.1194  -22.6714  -45.7521 C.3       10 UNK        -0.1800 
     24 N           1.5420  -21.6378  -44.1693 N.am      10 UNK        -0.5000 
     25 C           0.4854  -21.5572  -43.3468 C.2       9 UNK         0.5000 
     26 O          -0.4420  -22.3647  -43.3511 O.2       9 UNK        -0.5000 
     27 CA          0.4199  -20.3456  -42.4026 C.3       9 UNK         0.1400 
     28 CB          1.1601  -20.6336  -41.0891 C.3       9 UNK        -0.1800 
     29 N           0.9620  -19.1396  -43.0274 N.am      9 UNK        -0.5000 
     30 C           0.3409  -18.4521  -43.9975 C.2       8 UNK         0.5000 
     31 O          -0.7981  -18.7046  -44.3958 O.2       8 UNK        -0.5000 
     32 CA          1.1129  -17.2913  -44.6507 C.3       8 UNK         0.1400 
     33 CB          0.6854  -15.9564  -44.0304 C.3       8 UNK        -0.1800 
     34 N           2.5656  -17.4293  -44.5616 N.am      8 UNK        -0.5000 
     35 C           3.2665  -18.4049  -45.1598 C.2       7 UNK         0.5000 
     36 O           2.7462  -19.2771  -45.8540 O.2       7 UNK        -0.5000 
     37 CA          4.7847  -18.4572  -44.8961 C.3       7 UNK         0.1400 
     38 CB          5.5455  -17.7526  -46.0285 C.3       7 UNK        -0.1800 
     39 N           5.1812  -17.8679  -43.6149 N.am      7 UNK        -0.5000 
     40 C           4.7634  -18.2789  -42.4086 C.2       6 UNK         0.5000 
     41 O           4.0325  -19.2548  -42.2393 O.2       6 UNK        -0.5000 
     42 CA          5.1793  -17.4217  -41.1955 C.3       6 UNK         0.1400 
     43 CB          6.4208  -18.0204  -40.5178 C.3       6 UNK        -0.1800 
     44 N           5.4369  -16.0101  -41.5110 N.am      6 UNK        -0.5000 
     45 C           4.5480  -15.1633  -42.0480 C.2       5 UNK         0.5000 
     46 O           3.4044  -15.4895  -42.3787 O.2       5 UNK        -0.5000 
     47 CA          5.0320  -13.7303  -42.3038 C.3       5 UNK         0.1400 
     48 CB          6.0171  -13.6882  -43.4879 C.3       5 UNK        -0.1800 
     49 N           3.8690  -12.9009  -42.5960 N.am      5 UNK        -0.5000 
     50 C           3.8067  -11.5677  -42.5246 C.2       4 UNK         0.5000 
     51 O           4.7533  -10.8569  -42.1840 O.2       4 UNK        -0.5000 
     52 CA          2.4666  -10.9114  -42.9078 C.3       4 UNK         0.1400 
     53 CB          2.5184  -10.4000  -44.3562 C.3       4 UNK        -0.1800 
     54 N           1.3192  -11.8116  -42.7739 N.am      4 UNK        -0.5000 
     55 C           0.7015  -12.1048  -41.6215 C.2       3 UNK         0.5000 
     56 O           1.0795  -11.6796  -40.5289 O.2       3 UNK        -0.5000 
     57 CA         -0.5322  -13.0367  -41.6926 C.3       3 UNK         0.1400 
     58 CB         -1.6627  -12.5849  -40.7459 C.3       3 UNK        -0.1800 
     59 N          -1.0554  -13.2686  -43.0476 N.am      3 UNK        -0.5000 
     60 C          -1.5836  -12.3761  -43.9017 C.2       2 UNK         0.5000 
     61 O          -1.7129  -11.1769  -43.6579 O.2       2 UNK        -0.5000 
     62 CA         -2.0087  -12.9179  -45.2792 C.3       2 UNK         0.1400 
     63 CB         -0.8572  -12.7723  -46.2873 C.3       2 UNK        -0.1800 
     64 N          -2.4108  -14.3251  -45.2206 N.am      2 UNK        -0.5000 
     65 C          -3.6505  -14.7409  -44.9257 C.2       1 UNK         0.5000 
     66 O          -4.5962  -13.9814  -44.7111 O.2       1 UNK        -0.5000 
     67 C          -1.9970  -21.0455  -47.1761 C.2       11 UNK         0.5000 
     68 O          -2.8092  -21.5229  -47.9699 O.2       11 UNK        -0.5000 
     69 N          -2.2603  -20.8409  -45.8756 N.am      12 UNK        -0.5000 
     70 CA         -3.5112  -21.2171  -45.2158 C.3       12 UNK         0.1400 
     71 CB         -3.5675  -20.6040  -43.8094 C.3       12 UNK        -0.1800 
     72 C          -3.7182  -22.7409  -45.1557 C.2       12 UNK         0.5000 
     73 O          -4.8221  -23.2065  -45.4352 O.2       12 UNK        -0.5000 
     74 N          -2.6554  -23.4930  -44.8334 N.am      13 UNK        -0.5000 
     75 CA         -2.6504  -24.9591  -44.7925 C.3       13 UNK         0.1400 
     76 CB         -1.3267  -25.4553  -44.1923 C.3       13 UNK        -0.1800 
     77 C          -2.9002  -25.6071  -46.1680 C.2       13 UNK         0.5000 
     78 O          -3.5610  -26.6438  -46.2392 O.2       13 UNK        -0.5000 
     79 N          -2.4053  -24.9657  -47.2358 N.am      14 UNK        -0.5000 
     80 CA         -2.6688  -25.3304  -48.6298 C.3       14 UNK         0.1400 
     81 CB         -1.6496  -24.6194  -49.5311 C.3       14 UNK        -0.1800 
     82 C          -4.1058  -25.0074  -49.0899 C.2       14 UNK         0.5000 
     83 O          -4.5199  -25.4931  -50.1432 O.2       14 UNK        -0.5000 
     84 N          -4.8292  -24.1797  -48.3182 N.am      15 UNK        -0.5000 
     85 CA         -6.2378  -23.7928  -48.4737 C.3       15 UNK         0.1400 
     86 CB         -7.1470  -25.0057  -48.1890 C.3       15 UNK        -0.1800 
     87 C          -6.5741  -23.1152  -49.8197 C.2       15 UNK         0.5000 
     88 O          -7.7362  -23.1168  -50.2293 O.2       15 UNK        -0.5000 
     89 N          -5.5475  -22.5703  -50.4902 N.am      16 UNK        -0.5000 
     90 CA         -5.5686  -22.0193  -51.8489 C.3       16 UNK         0.1400 
     91 CB         -6.3755  -20.7050  -51.8917 C.3       16 UNK        -0.1800 
     92 C          -6.0186  -23.0384  -52.9221 C.2       16 UNK         0.5000 
     93 O          -6.5981  -22.6405  -53.9342 O.2       16 UNK        -0.5000 
     94 N          -5.7470  -24.3349  -52.6896 N.am      17 UNK        -0.5000 
     95 CA         -6.1180  -25.4398  -53.5815 C.3       17 UNK         0.1400 
     96 CB         -5.8343  -26.7786  -52.8848 C.3       17 UNK        -0.1800 
     97 C          -5.4101  -25.3740  -54.9474 C.2       17 UNK         0.5000 
     98 O          -6.0201  -25.6874  -55.9708 O.2       17 UNK        -0.5000 
     99 N          -4.1524  -24.9150  -54.9394 N.am      18 UNK        -0.5000 
    100 CA        -3.4263  -24.4651  -56.1213 C.3       18 UNK         0.1400 
    101 CB        -1.9163  -24.6076  -55.8631 C.3       18 UNK        -0.1800 
    102 C         -3.8394  -23.0069  -56.3773 C.2       18 UNK         0.5000 
    103 O         -3.2659  -22.1039  -55.7662 O.2       18 UNK        -0.5000 
    104 N         -4.8831  -22.8204  -57.1960 N.am      19 UNK        -0.5000 
    105 CA        -5.6031  -21.5630  -57.4200 C.3       19 UNK         0.1400 
    106 CB        -6.6234  -21.7653  -58.5515 C.3       19 UNK        -0.1800 
    107 C         -4.6866  -20.3588  -57.7135 C.2       19 UNK         0.5000 
    108 O         -4.0087  -20.3431  -58.7422 O.2       19 UNK        -0.5000 
    109 N         -4.6687  -19.4026  -56.7739 N.am      20 UNK        -0.5000 
    110 CA        -3.8899  -18.1562  -56.7391 C.3       20 UNK         0.1400 
    111 CB        -4.2077  -17.2671  -57.9585 C.3       20 UNK        -0.1800 
    112 C         -2.3667  -18.3260  -56.5424 C.2       20 UNK         0.5000 
    113 O         -1.6854  -17.3243  -56.3189 O.2       20 UNK        -0.5000 
    114 N         -1.8535  -19.5606  -56.5968 N.am      21 UNK        -0.5000 
    115 CA        -0.4595  -19.8965  -56.3121 C.3       21 UNK         0.1400 
    116 CB        -0.0385  -21.0942  -57.1777 C.3       21 UNK        -0.1800 
    117 C         -0.2775  -20.2067  -54.8185 C.2       21 UNK         0.5000 
    118 O          0.6652  -19.7101  -54.2018 O.2       21 UNK        -0.5000 
    119 N         -1.2089  -20.9987  -54.2706 N.am      22 UNK        -0.5000 
    120 CA        -1.3376  -21.3656  -52.8519 C.3       22 UNK         0.1400 
    121 C         -0.1555  -22.2113  -52.2865 C.2       22 UNK         0.5000 
    122 N          0.5974  -22.9227  -53.1167 N.am      22 UNK        -0.7600 
    123 O          0.0746  -22.2440  -51.0822 O.2       22 UNK        -0.5000 
    124 C124       -1.6965  -20.1549  -51.9488 C.3       23 UNK        -0.0398 
    125 S125       -3.1264  -19.1874  -52.5626 S.3       23 UNK        -0.2404 
    126 C126       -2.4141  -17.5203  -52.7460 C.3       23 UNK        -0.0205 
    127 H127       -2.0459  -18.3514  -41.8364 H         1 UNK         0.0600 
    128 H128       -2.4971  -17.2721  -40.5199 H         1 UNK         0.0600 
    129 H129       -1.1612  -16.8367  -41.5902 H         1 UNK         0.0600 
    130 H130       -2.3171  -17.5288  -44.0874 H         1 UNK         0.3000 
    131 H131       -4.8912  -16.4428  -44.5490 H         1 UNK         0.0600 
    132 H132       -3.7395  -18.0595  -46.0537 H         1 UNK         0.0800 
    133 H133       -2.5980  -16.8587  -46.5388 H         1 UNK         0.0800 
    134 H134       -3.4903  -14.4873  -47.8089 H         1 UNK         0.0800 
    135 H135       -4.6102  -14.7324  -49.1137 H         1 UNK         0.0800 
    136 H136       -4.0974  -16.2897  -50.9844 H         1 UNK         0.1150 
    137 H137       -0.0028  -17.4648  -51.4775 H         1 UNK         0.1150 
    138 H138       -1.2633  -15.6014  -47.8399 H         1 UNK         0.1150 
    139 H139        1.6544  -16.4900  -49.6259 H         1 UNK         0.0800 
    140 H140        0.9777  -16.3678  -48.0193 H         1 UNK         0.0800 
    141 H141       -1.2981  -18.9122  -48.6683 H         1 UNK         0.0800 
    142 H142       -0.6524  -18.5767  -47.0813 H         1 UNK         0.0800 
    143 H143       -0.4100  -21.2299  -48.5939 H         1 UNK         0.0600 
    144 H144        1.0575  -20.4067  -46.3297 H         1 UNK         0.3000 
    145 H145        1.4625  -23.6203  -44.7900 H         1 UNK         0.0600 
    146 H146        3.8312  -22.8438  -44.9448 H         1 UNK         0.0600 
    147 H147        3.2482  -23.4764  -46.4766 H         1 UNK         0.0600 
    148 H148        3.3943  -21.7422  -46.2501 H         1 UNK         0.0600 
    149 H149        2.2418  -20.9102  -44.1399 H         1 UNK         0.3000 
    150 H150       -0.6294  -20.1697  -42.1620 H         1 UNK         0.0600 
    151 H151        0.7045  -21.4747  -40.5650 H         1 UNK         0.0600 
    152 H152        1.1254  -19.7746  -40.4188 H         1 UNK         0.0600 
    153 H153        2.2068  -20.8860  -41.2598 H         1 UNK         0.0600 
    154 H154        1.9060  -18.8811  -42.7671 H         1 UNK         0.3000 
    155 H155        0.8468  -17.2753  -45.7086 H         1 UNK         0.0600 
    156 H156        0.8929  -15.9260  -42.9603 H         1 UNK         0.0600 
    157 H157       -0.3833  -15.8046  -44.1578 H         1 UNK         0.0600 
    158 H158        1.1997  -15.1171  -44.4991 H         1 UNK         0.0600 
    159 H159        3.0453  -16.7718  -43.9562 H         1 UNK         0.3000 
    160 H160        5.0778  -19.5089  -44.8847 H         1 UNK         0.0600 
    161 H161        5.3126  -16.6876  -46.0676 H         1 UNK         0.0600 
    162 H162        5.2871  -18.1810  -46.9981 H         1 UNK         0.0600 
    163 H163        6.6236  -17.8574  -45.9054 H         1 UNK         0.0600 
    164 H164        5.7773  -17.0550  -43.6571 H         1 UNK         0.3000 
    165 H165        4.3526  -17.4526  -40.4828 H         1 UNK         0.0600 
    166 H166        6.6677  -17.4847  -39.6011 H         1 UNK         0.0600 
    167 H167        6.2535  -19.0639  -40.2468 H         1 UNK         0.0600 
    168 H168        7.2922  -17.9870  -41.1729 H         1 UNK         0.0600 
    169 H169        6.3581  -15.6653  -41.2813 H         1 UNK         0.3000 
    170 H170        5.5194  -13.3637  -41.3981 H         1 UNK         0.0600 
    171 H171        6.8967  -14.3029  -43.2943 H         1 UNK         0.0600 
    172 H172        5.5551  -14.0535  -44.4061 H         1 UNK         0.0600 
    173 H173        6.3714  -12.6744  -43.6744 H         1 UNK         0.0600 
    174 H174        3.0370  -13.4293  -42.8258 H         1 UNK         0.3000 
    175 H175        2.3183  -10.0530  -42.2491 H         1 UNK         0.0600 
    176 H176        2.6607  -11.2152  -45.0668 H         1 UNK         0.0600 
    177 H177        1.5989   -9.8783  -44.6231 H         1 UNK         0.0600 
    178 H178        3.3412   -9.6972  -44.4936 H         1 UNK         0.0600 
    179 H179        0.9399  -12.1917  -43.6271 H         1 UNK         0.3000 
    180 H180       -0.1837  -14.0083  -41.3393 H         1 UNK         0.0600 
    181 H181       -2.5104  -13.2690  -40.7920 H         1 UNK         0.0600 
    182 H182       -2.0232  -11.5862  -40.9930 H         1 UNK         0.0600 
    183 H183       -1.3231  -12.5620  -39.7099 H         1 UNK         0.0600 
    184 H184       -1.0151  -14.2261  -43.3577 H         1 UNK         0.3000 
    185 H185       -2.8454  -12.3114  -45.6330 H         1 UNK         0.0600 
    186 H186       -1.1688  -13.0776  -47.2864 H         1 UNK         0.0600 
    187 H187       -0.5278  -11.7345  -46.3568 H         1 UNK         0.0600 
    188 H188        0.0090  -13.3729  -46.0081 H         1 UNK         0.0600 
    189 H189       -1.6958  -15.0106  -45.4021 H         1 UNK         0.3000 
    190 H190       -1.5572  -20.3984  -45.2953 H         1 UNK         0.3000 
    191 H191       -4.3338  -20.7957  -45.7978 H         1 UNK         0.0600 
    192 H192       -4.4974  -20.8691  -43.3049 H         1 UNK         0.0600 
    193 H193       -3.5245  -19.5181  -43.8534 H         1 UNK         0.0600 
    194 H194       -2.7456  -20.9479  -43.1824 H         1 UNK         0.0600 
    195 H195       -1.7955  -23.0312  -44.5510 H         1 UNK         0.3000 
    196 H196       -3.4601  -25.2728  -44.1305 H         1 UNK         0.0600 
    197 H197       -0.4729  -25.1567  -44.8002 H         1 UNK         0.0600 
    198 H198       -1.1771  -25.0621  -43.1867 H         1 UNK         0.0600 
    199 H199       -1.3139  -26.5436  -44.1207 H         1 UNK         0.0600 
    200 H200       -1.8019  -24.1637  -47.0828 H         1 UNK         0.3000 
    201 H201       -2.5266  -26.4076  -48.7367 H         1 UNK         0.0600 
    202 H202       -1.7406  -23.5354  -49.4597 H         1 UNK         0.0600 
    203 H203       -1.7882  -24.8921  -50.5780 H         1 UNK         0.0600 
    204 H204       -0.6276  -24.8845  -49.2596 H         1 UNK         0.0600 
    205 H205       -4.3860  -23.8177  -47.4829 H         1 UNK         0.3000 
    206 H206       -6.4331  -23.0440  -47.7051 H         1 UNK         0.0600 
    207 H207       -6.9052  -25.4603  -47.2281 H         1 UNK         0.0600 
    208 H208       -8.1968  -24.7125  -48.1513 H         1 UNK         0.0600 
    209 H209       -7.0476  -25.7727  -48.9579 H         1 UNK         0.0600 
    210 H210       -4.6411  -22.6102  -50.0446 H         1 UNK         0.3000 
    211 H211       -4.5339  -21.7777  -52.0898 H         1 UNK         0.0600 
    212 H212       -6.2699  -20.2129  -52.8592 H         1 UNK         0.0600 
    213 H213       -6.0240  -20.0031  -51.1353 H         1 UNK         0.0600 
    214 H214       -7.4393  -20.8754  -51.7252 H         1 UNK         0.0600 
    215 H215       -5.2977  -24.5955  -51.8171 H         1 UNK         0.3000 
    216 H216       -7.1926  -25.3725  -53.7636 H         1 UNK         0.0600 
    217 H217       -4.7749  -26.8949  -52.6526 H         1 UNK         0.0600 
    218 H218       -6.1279  -27.6184  -53.5158 H         1 UNK         0.0600 
    219 H219       -6.3915  -26.8623  -51.9514 H         1 UNK         0.0600 
    220 H220       -3.7538  -24.6596  -54.0483 H         1 UNK         0.3000 
    221 H221       -3.6876  -25.0766  -56.9877 H         1 UNK         0.0600 
    222 H222       -1.6480  -25.6479  -55.6785 H         1 UNK         0.0600 
    223 H223       -1.5900  -24.0239  -55.0017 H         1 UNK         0.0600 
    224 H224       -1.3416  -24.2745  -56.7275 H         1 UNK         0.0600 
    225 H225       -5.2979  -23.6387  -57.6183 H         1 UNK         0.3000 
    226 H226       -6.1624  -21.3564  -56.5052 H         1 UNK         0.0600 
    227 H227       -6.1368  -22.0486  -59.4857 H         1 UNK         0.0600 
    228 H228       -7.3447  -22.5427  -58.2990 H         1 UNK         0.0600 
    229 H229       -7.1862  -20.8498  -58.7387 H         1 UNK         0.0600 
    230 H230       -5.2303  -19.5605  -55.9486 H         1 UNK         0.3000 
    231 H231       -4.2395  -17.6250  -55.8525 H         1 UNK         0.0600 
    232 H232       -3.8325  -17.6986  -58.8867 H         1 UNK         0.0600 
    233 H233       -3.7503  -16.2827  -57.8527 H         1 UNK         0.0600 
    234 H234       -5.2814  -17.1144  -58.0675 H         1 UNK         0.0600 
    235 H235       -2.4884  -20.3364  -56.7378 H         1 UNK         0.3000 
    236 H236        0.1866  -19.0537  -56.5668 H         1 UNK         0.0600 
    237 H237       -0.1111  -20.8549  -58.2387 H         1 UNK         0.0600 
    238 H238        0.9956  -21.3772  -56.9773 H         1 UNK         0.0600 
    239 H239       -0.6622  -21.9680  -56.9909 H         1 UNK         0.0600 
    240 H240       -1.9538  -21.3524  -54.8689 H         1 UNK         0.3000 
    241 H241       -2.1893  -22.0449  -52.8171 H         1 UNK         0.0600 
    242 H242        1.3573  -23.4701  -52.7453 H         1 UNK         0.3800 
    243 H243        0.4340  -22.8963  -54.1095 H         1 UNK         0.3800 
    244 H244       -0.8220  -19.5157  -51.8501 H         1 UNK         0.0800 
    245 H245       -1.9384  -20.4908  -50.9389 H         1 UNK         0.0800 
    246 H246       -3.1290  -16.8823  -53.2672 H         1 UNK         0.0800 
    247 H247       -1.5266  -17.5686  -53.3792 H         1 UNK         0.0800 
@<TRIPOS>BOND
     1    1    2 1    
     2    1  127 1    
     3    1  128 1    
     4    1  129 1    
     5    2    3 2    
     6    2    4 am   BACKBONE|DICT|INTERRES
     7    4    5 1    
     8    4  130 1    
     9    5    6 1    
    10    5   65 1    
    11    5  131 1    
    12    6    7 1    
    13    6  132 1    
    14    6  133 1    
    15    7    8 1    
    16    8    9 1    
    17    8  134 1    
    18    8  135 1    
    19    9   10 ar   
    20    9   14 ar   
    21   10   11 ar   
    22   10  136 1    
    23   11   12 ar   
    24   11  126 1    
    25   12   13 ar   
    26   12  137 1    
    27   13   14 ar   
    28   13   15 1    
    29   14  138 1    
    30   15   16 1    
    31   15  139 1    
    32   15  140 1    
    33   16   17 1    
    34   17   18 1    
    35   17  141 1    
    36   17  142 1    
    37   18   19 1    
    38   18   67 1    
    39   18  143 1    
    40   19   20 am   BACKBONE|DICT|INTERRES
    41   19  144 1    
    42   20   21 2    
    43   20   22 1    
    44   22   23 1    
    45   22   24 1    
    46   22  145 1    
    47   23  146 1    
    48   23  147 1    
    49   23  148 1    
    50   24   25 am   BACKBONE|DICT|INTERRES
    51   24  149 1    
    52   25   26 2    
    53   25   27 1    
    54   27   28 1    
    55   27   29 1    
    56   27  150 1    
    57   28  151 1    
    58   28  152 1    
    59   28  153 1    
    60   29   30 am   BACKBONE|DICT|INTERRES
    61   29  154 1    
    62   30   31 2    
    63   30   32 1    
    64   32   33 1    
    65   32   34 1    
    66   32  155 1    
    67   33  156 1    
    68   33  157 1    
    69   33  158 1    
    70   34   35 am   BACKBONE|DICT|INTERRES
    71   34  159 1    
    72   35   36 2    
    73   35   37 1    
    74   37   38 1    
    75   37   39 1    
    76   37  160 1    
    77   38  161 1    
    78   38  162 1    
    79   38  163 1    
    80   39   40 am   BACKBONE|DICT|INTERRES
    81   39  164 1    
    82   40   41 2    
    83   40   42 1    
    84   42   43 1    
    85   42   44 1    
    86   42  165 1    
    87   43  166 1    
    88   43  167 1    
    89   43  168 1    
    90   44   45 am   BACKBONE|DICT|INTERRES
    91   44  169 1    
    92   45   46 2    
    93   45   47 1    
    94   47   48 1    
    95   47   49 1    
    96   47  170 1    
    97   48  171 1    
    98   48  172 1    
    99   48  173 1    
   100   49   50 am   BACKBONE|DICT|INTERRES
   101   49  174 1    
   102   50   51 2    
   103   50   52 1    
   104   52   53 1    
   105   52   54 1    
   106   52  175 1    
   107   53  176 1    
   108   53  177 1    
   109   53  178 1    
   110   54   55 am   BACKBONE|DICT|INTERRES
   111   54  179 1    
   112   55   56 2    
   113   55   57 1    
   114   57   58 1    
   115   57   59 1    
   116   57  180 1    
   117   58  181 1    
   118   58  182 1    
   119   58  183 1    
   120   59   60 am   BACKBONE|DICT|INTERRES
   121   59  184 1    
   122   60   61 2    
   123   60   62 1    
   124   62   63 1    
   125   62   64 1    
   126   62  185 1    
   127   63  186 1    
   128   63  187 1    
   129   63  188 1    
   130   64   65 am   BACKBONE|DICT|INTERRES
   131   64  189 1    
   132   65   66 2    
   133   67   68 2    
   134   67   69 am   BACKBONE|DICT|INTERRES
   135   69   70 1    
   136   69  190 1    
   137   70   71 1    
   138   70   72 1    
   139   70  191 1    
   140   71  192 1    
   141   71  193 1    
   142   71  194 1    
   143   72   73 2    
   144   72   74 am   BACKBONE|DICT|INTERRES
   145   74   75 1    
   146   74  195 1    
   147   75   76 1    
   148   75   77 1    
   149   75  196 1    
   150   76  197 1    
   151   76  198 1    
   152   76  199 1    
   153   77   78 2    
   154   77   79 am   BACKBONE|DICT|INTERRES
   155   79   80 1    
   156   79  200 1    
   157   80   81 1    
   158   80   82 1    
   159   80  201 1    
   160   81  202 1    
   161   81  203 1    
   162   81  204 1    
   163   82   83 2    
   164   82   84 am   BACKBONE|DICT|INTERRES
   165   84   85 1    
   166   84  205 1    
   167   85   86 1    
   168   85   87 1    
   169   85  206 1    
   170   86  207 1    
   171   86  208 1    
   172   86  209 1    
   173   87   88 2    
   174   87   89 am   BACKBONE|DICT|INTERRES
   175   89   90 1    
   176   89  210 1    
   177   90   91 1    
   178   90   92 1    
   179   90  211 1    
   180   91  212 1    
   181   91  213 1    
   182   91  214 1    
   183   92   93 2    
   184   92   94 am   BACKBONE|DICT|INTERRES
   185   94   95 1    
   186   94  215 1    
   187   95   96 1    
   188   95   97 1    
   189   95  216 1    
   190   96  217 1    
   191   96  218 1    
   192   96  219 1    
   193   97   98 2    
   194   97   99 am   BACKBONE|DICT|INTERRES
   195   99  100 1    
   196   99  220 1    
   197  100  101 1    
   198  100  102 1    
   199  100  221 1    
   200  101  222 1    
   201  101  223 1    
   202  101  224 1    
   203  102  103 2    
   204  102  104 am   BACKBONE|DICT|INTERRES
   205  104  105 1    
   206  104  225 1    
   207  105  106 1    
   208  105  107 1    
   209  105  226 1    
   210  106  227 1    
   211  106  228 1    
   212  106  229 1    
   213  107  108 2    
   214  107  109 am   BACKBONE|DICT|INTERRES
   215  109  110 1    
   216  109  230 1    
   217  110  111 1    
   218  110  112 1    
   219  110  231 1    
   220  111  232 1    
   221  111  233 1    
   222  111  234 1    
   223  112  113 2    
   224  112  114 am   BACKBONE|DICT|INTERRES
   225  114  115 1    
   226  114  235 1    
   227  115  116 1    
   228  115  117 1    
   229  115  236 1    
   230  116  237 1    
   231  116  238 1    
   232  116  239 1    
   233  117  118 2    
   234  117  119 am   BACKBONE|DICT|INTERRES
   235  119  120 1    
   236  119  240 1    
   237  120  121 1    
   238  120  124 1    
   239  120  241 1    
   240  121  122 am   BACKBONE|DICT|INTERRES
   241  121  123 2    
   242  122  242 1    
   243  122  243 1    
   244  124  125 1    
   245  124  244 1    
   246  124  245 1    
   247  125  126 1    
   248  126  246 1    
   249  126  247 1    
@<TRIPOS>SUBSTRUCTURE
     1 UNK         1 GROUP             0       ****    0 ROOT    
