@<TRIPOS>MOLECULE
3R540
247   249    1
SMALL
USER_CHARGES


@<TRIPOS>ATOM
      1 CA          3.7437  -11.7680  -52.0198 C.3       0 UNK        -0.1800 
      2 C           3.6238  -11.8007  -50.5032 C.2       0 UNK         0.5000 
      3 O           4.0639  -10.8680  -49.8299 O.2       0 UNK        -0.5000 
      4 N           3.0140  -12.8606  -49.9596 N.am      1 UNK        -0.5000 
      5 CA          2.8151  -13.0949  -48.5231 C.3       1 UNK         0.1400 
      6 C6          2.7159  -14.6065  -48.1863 C.3       23 UNK        -0.0398 
      7 S7          4.1932  -15.5669  -48.6735 S.3       23 UNK        -0.2404 
      8 C8          3.7191  -16.2642  -50.2914 C.3       23 UNK        -0.0205 
      9 C9          2.7101  -17.3979  -50.1737 C.ar      23 UNK        -0.0193 
     10 C10         1.3413  -17.1368  -50.2841 C.ar      23 UNK        -0.1150 
     11 C11         0.4091  -18.1716  -50.1875 C.ar      23 UNK        -0.0193 
     12 C12         0.8554  -19.4820  -49.9949 C.ar      23 UNK        -0.1150 
     13 C13         2.2230  -19.7641  -49.9180 C.ar      23 UNK        -0.0193 
     14 C14         3.1451  -18.7156  -49.9973 C.ar      23 UNK        -0.1150 
     15 C15         2.7003  -21.2062  -49.7960 C.3       23 UNK        -0.0205 
     16 S16         3.4413  -21.5952  -48.1755 S.3       23 UNK        -0.2404 
     17 C17         2.0829  -21.2236  -47.0174 C.3       23 UNK        -0.0398 
     18 CA          1.2323  -22.4481  -46.6002 C.3       11 UNK         0.1400 
     19 N           0.4323  -22.1459  -45.4112 N.am      11 UNK        -0.5000 
     20 C          -0.3348  -23.0111  -44.7350 C.2       10 UNK         0.5000 
     21 O          -0.4029  -24.2126  -44.9924 O.2       10 UNK        -0.5000 
     22 CA         -1.2133  -22.4199  -43.6151 C.3       10 UNK         0.1400 
     23 CB         -0.4073  -22.2393  -42.3205 C.3       10 UNK        -0.1800 
     24 N          -1.8298  -21.1464  -43.9990 N.am      10 UNK        -0.5000 
     25 C          -2.7375  -21.0176  -44.9781 C.2       9 UNK         0.5000 
     26 O          -3.1901  -21.9695  -45.6119 O.2       9 UNK        -0.5000 
     27 CA         -3.1827  -19.5909  -45.3485 C.3       9 UNK         0.1400 
     28 CB         -4.2733  -19.0870  -44.3926 C.3       9 UNK        -0.1800 
     29 N          -2.0720  -18.6400  -45.3786 N.am      9 UNK        -0.5000 
     30 C          -1.0463  -18.7014  -46.2394 C.2       8 UNK         0.5000 
     31 O          -0.9638  -19.5395  -47.1360 O.2       8 UNK        -0.5000 
     32 CA          0.1062  -17.7012  -46.0220 C.3       8 UNK         0.1400 
     33 CB         -0.2406  -16.3269  -46.6121 C.3       8 UNK        -0.1800 
     34 N           0.4538  -17.5585  -44.6055 N.am      8 UNK        -0.5000 
     35 C           0.9201  -18.5529  -43.8357 C.2       7 UNK         0.5000 
     36 O           1.1750  -19.6782  -44.2580 O.2       7 UNK        -0.5000 
     37 CA          1.0669  -18.2690  -42.3325 C.3       7 UNK         0.1400 
     38 CB          2.4275  -17.6293  -42.0180 C.3       7 UNK        -0.1800 
     39 N          -0.0194  -17.4218  -41.8420 N.am      7 UNK        -0.5000 
     40 C          -1.2792  -17.8474  -41.6679 C.2       6 UNK         0.5000 
     41 O          -1.6341  -19.0123  -41.8494 O.2       6 UNK        -0.5000 
     42 CA         -2.3240  -16.7882  -41.2657 C.3       6 UNK         0.1400 
     43 CB         -2.3393  -16.5953  -39.7423 C.3       6 UNK        -0.1800 
     44 N          -2.0971  -15.4958  -41.9160 N.am      6 UNK        -0.5000 
     45 C          -2.2242  -15.2805  -43.2331 C.2       5 UNK         0.5000 
     46 O          -2.6190  -16.1366  -44.0232 O.2       5 UNK        -0.5000 
     47 CA         -1.7891  -13.8996  -43.7664 C.3       5 UNK         0.1400 
     48 CB         -2.9870  -12.9410  -43.8243 C.3       5 UNK        -0.1800 
     49 N          -0.7055  -13.2728  -43.0011 N.am      5 UNK        -0.5000 
     50 C           0.5080  -13.8082  -42.8067 C.2       4 UNK         0.5000 
     51 O           0.8326  -14.9188  -43.2289 O.2       4 UNK        -0.5000 
     52 CA          1.5042  -12.9477  -42.0026 C.3       4 UNK         0.1400 
     53 CB          2.8537  -13.6542  -41.7542 C.3       4 UNK        -0.1800 
     54 N           1.7013  -11.6274  -42.6125 N.am      4 UNK        -0.5000 
     55 C           2.1769  -11.3778  -43.8406 C.2       3 UNK         0.5000 
     56 O           2.5956  -12.2413  -44.6160 O.2       3 UNK        -0.5000 
     57 CA          2.2113   -9.9012  -44.2694 C.3       3 UNK         0.1400 
     58 CB          3.5961   -9.2911  -44.0039 C.3       3 UNK        -0.1800 
     59 N           1.9135   -9.8060  -45.6947 N.am      3 UNK        -0.5000 
     60 C           0.6801   -9.8352  -46.2156 C.2       2 UNK         0.5000 
     61 O          -0.3517   -9.7472  -45.5487 O.2       2 UNK        -0.5000 
     62 CA          0.5946  -10.0368  -47.7392 C.3       2 UNK         0.1400 
     63 CB          0.7468   -8.6994  -48.4796 C.3       2 UNK        -0.1800 
     64 N           1.6110  -10.9752  -48.2192 N.am      2 UNK        -0.5000 
     65 C           1.5942  -12.2981  -48.0047 C.2       1 UNK         0.5000 
     66 O           0.6564  -12.8802  -47.4570 O.2       1 UNK        -0.5000 
     67 C           0.3476  -22.9616  -47.7557 C.2       11 UNK         0.5000 
     68 O           0.6701  -23.9844  -48.3609 O.2       11 UNK        -0.5000 
     69 N          -0.7755  -22.2733  -48.0097 N.am      12 UNK        -0.5000 
     70 CA         -1.7841  -22.6767  -48.9874 C.3       12 UNK         0.1400 
     71 CB         -2.8529  -21.5880  -49.1258 C.3       12 UNK        -0.1800 
     72 C          -2.4319  -24.0252  -48.6406 C.2       12 UNK         0.5000 
     73 O          -2.5302  -24.8801  -49.5173 O.2       12 UNK        -0.5000 
     74 N          -2.8142  -24.2143  -47.3698 N.am      13 UNK        -0.5000 
     75 CA         -3.3973  -25.4553  -46.8573 C.3       13 UNK         0.1400 
     76 CB         -3.8379  -25.2617  -45.3990 C.3       13 UNK        -0.1800 
     77 C          -2.4512  -26.6627  -46.9916 C.2       13 UNK         0.5000 
     78 O          -2.8992  -27.7383  -47.3891 O.2       13 UNK        -0.5000 
     79 N          -1.1543  -26.4529  -46.7232 N.am      14 UNK        -0.5000 
     80 CA         -0.0897  -27.4388  -46.9291 C.3       14 UNK         0.1400 
     81 CB          1.2143  -26.9187  -46.3058 C.3       14 UNK        -0.1800 
     82 C           0.1199  -27.8036  -48.4136 C.2       14 UNK         0.5000 
     83 O           0.4440  -28.9522  -48.7165 O.2       14 UNK        -0.5000 
     84 N          -0.1048  -26.8346  -49.3106 N.am      15 UNK        -0.5000 
     85 CA         -0.0902  -27.0039  -50.7657 C.3       15 UNK         0.1400 
     86 CB          0.2664  -25.6545  -51.4132 C.3       15 UNK        -0.1800 
     87 C          -1.4189  -27.5547  -51.3334 C.2       15 UNK         0.5000 
     88 O          -1.5005  -27.7824  -52.5412 O.2       15 UNK        -0.5000 
     89 N          -2.4275  -27.7520  -50.4699 N.am      16 UNK        -0.5000 
     90 CA         -3.7952  -28.1948  -50.7623 C.3       16 UNK         0.1400 
     91 CB         -3.8053  -29.6295  -51.3309 C.3       16 UNK        -0.1800 
     92 C          -4.5973  -27.1907  -51.6204 C.2       16 UNK         0.5000 
     93 O          -5.4304  -27.5993  -52.4321 O.2       16 UNK        -0.5000 
     94 N          -4.3444  -25.8943  -51.4125 N.am      17 UNK        -0.5000 
     95 CA         -5.0386  -24.7708  -52.0349 C.3       17 UNK         0.1400 
     96 CB         -3.9879  -23.8704  -52.7101 C.3       17 UNK        -0.1800 
     97 C          -5.8103  -23.9728  -50.9697 C.2       17 UNK         0.5000 
     98 O          -5.5603  -24.1214  -49.7713 O.2       17 UNK        -0.5000 
     99 N          -6.7159  -23.1023  -51.4290 N.am      18 UNK        -0.5000 
    100 CA        -7.3085  -22.0438  -50.6109 C.3       18 UNK         0.1400 
    101 CB        -8.6246  -21.5839  -51.2570 C.3       18 UNK        -0.1800 
    102 C         -6.3259  -20.8646  -50.4919 C.2       18 UNK         0.5000 
    103 O         -5.4978  -20.6684  -51.3846 O.2       18 UNK        -0.5000 
    104 N         -6.4595  -20.0679  -49.4240 N.am      19 UNK        -0.5000 
    105 CA        -5.5817  -18.9335  -49.1026 C.3       19 UNK         0.1400 
    106 CB        -5.9931  -18.3578  -47.7391 C.3       19 UNK        -0.1800 
    107 C         -5.5390  -17.8180  -50.1691 C.2       19 UNK         0.5000 
    108 O         -4.5560  -17.0812  -50.2285 O.2       19 UNK        -0.5000 
    109 N         -6.5921  -17.7214  -50.9905 N.am      20 UNK        -0.5000 
    110 CA        -6.6974  -16.7925  -52.1169 C.3       20 UNK         0.1400 
    111 CB        -8.1371  -16.2535  -52.1602 C.3       20 UNK        -0.1800 
    112 C         -6.3273  -17.4410  -53.4683 C.2       20 UNK         0.5000 
    113 O         -6.2773  -16.7296  -54.4726 O.2       20 UNK        -0.5000 
    114 N         -6.1038  -18.7629  -53.4914 N.am      21 UNK        -0.5000 
    115 CA        -5.8710  -19.5586  -54.7012 C.3       21 UNK         0.1400 
    116 CB        -6.8467  -20.7475  -54.6961 C.3       21 UNK        -0.1800 
    117 C         -4.4167  -20.0529  -54.8214 C.2       21 UNK         0.5000 
    118 O         -4.1070  -20.7761  -55.7699 O.2       21 UNK        -0.5000 
    119 N         -3.5568  -19.6817  -53.8658 N.am      22 UNK        -0.5000 
    120 CA        -2.1248  -20.0090  -53.8371 C.3       22 UNK         0.1400 
    121 C         -1.3092  -19.4310  -55.0330 C.2       22 UNK         0.5000 
    122 N         -0.1891  -20.0519  -55.3796 N.am      22 UNK        -0.7600 
    123 O         -1.6611  -18.4170  -55.6329 O.2       22 UNK        -0.5000 
    124 C124       -1.4920  -19.6383  -52.4718 C.3       23 UNK        -0.0398 
    125 S125       -1.6397  -17.8695  -52.0335 S.3       23 UNK        -0.2404 
    126 C126       -1.0772  -17.8678  -50.3028 C.3       23 UNK        -0.0205 
    127 H127        3.2261  -10.8954  -52.4182 H         1 UNK         0.0600 
    128 H128        3.3145  -12.6584  -52.4800 H         1 UNK         0.0600 
    129 H129        4.7922  -11.7068  -52.3113 H         1 UNK         0.0600 
    130 H130        2.6332  -13.5684  -50.5690 H         1 UNK         0.3000 
    131 H131        3.6841  -12.7068  -47.9869 H         1 UNK         0.0600 
    132 H132        2.6079  -14.7319  -47.1075 H         1 UNK         0.0800 
    133 H133        1.8212  -15.0432  -48.6254 H         1 UNK         0.0800 
    134 H134        3.3324  -15.4779  -50.9395 H         1 UNK         0.0800 
    135 H135        4.6202  -16.6344  -50.7826 H         1 UNK         0.0800 
    136 H136        0.9953  -16.1273  -50.4535 H         1 UNK         0.1150 
    137 H137        0.1354  -20.2846  -49.9251 H         1 UNK         0.1150 
    138 H138        4.2031  -18.9286  -49.9336 H         1 UNK         0.1150 
    139 H139        1.8839  -21.9010  -49.9965 H         1 UNK         0.0800 
    140 H140        3.4455  -21.3951  -50.5698 H         1 UNK         0.0800 
    141 H141        1.4589  -20.4207  -47.4054 H         1 UNK         0.0800 
    142 H142        2.5661  -20.8079  -46.1331 H         1 UNK         0.0800 
    143 H143        1.9117  -23.2568  -46.3231 H         1 UNK         0.0600 
    144 H144        0.4769  -21.1855  -45.0791 H         1 UNK         0.3000 
    145 H145       -2.0170  -23.1309  -43.4135 H         1 UNK         0.0600 
    146 H146        0.0132  -23.1895  -41.9889 H         1 UNK         0.0600 
    147 H147        0.4209  -21.5437  -42.4525 H         1 UNK         0.0600 
    148 H148       -1.0360  -21.8618  -41.5139 H         1 UNK         0.0600 
    149 H149       -1.5434  -20.3223  -43.4825 H         1 UNK         0.3000 
    150 H150       -3.6062  -19.6320  -46.3537 H         1 UNK         0.0600 
    151 H151       -5.1256  -19.7673  -44.3798 H         1 UNK         0.0600 
    152 H152       -4.6427  -18.1080  -44.6985 H         1 UNK         0.0600 
    153 H153       -3.9059  -19.0004  -43.3701 H         1 UNK         0.0600 
    154 H154       -2.1067  -17.8742  -44.7121 H         1 UNK         0.3000 
    155 H155        0.9884  -18.0805  -46.5421 H         1 UNK         0.0600 
    156 H156       -1.2090  -15.9666  -46.2673 H         1 UNK         0.0600 
    157 H157        0.5047  -15.5784  -46.3448 H         1 UNK         0.0600 
    158 H158       -0.2817  -16.3735  -47.6998 H         1 UNK         0.0600 
    159 H159        0.3242  -16.6451  -44.1834 H         1 UNK         0.3000 
    160 H160        1.0198  -19.2233  -41.8039 H         1 UNK         0.0600 
    161 H161        2.5863  -16.7073  -42.5764 H         1 UNK         0.0600 
    162 H162        3.2404  -18.3078  -42.2793 H         1 UNK         0.0600 
    163 H163        2.5228  -17.4016  -40.9563 H         1 UNK         0.0600 
    164 H164        0.1815  -16.4342  -41.7657 H         1 UNK         0.3000 
    165 H165       -3.3053  -17.1561  -41.5731 H         1 UNK         0.0600 
    166 H166       -3.1260  -15.9038  -39.4403 H         1 UNK         0.0600 
    167 H167       -2.5260  -17.5411  -39.2317 H         1 UNK         0.0600 
    168 H168       -1.3892  -16.2056  -39.3746 H         1 UNK         0.0600 
    169 H169       -1.7745  -14.7382  -41.3326 H         1 UNK         0.3000 
    170 H170       -1.4226  -14.0445  -44.7844 H         1 UNK         0.0600 
    171 H171       -3.8015  -13.3688  -44.4105 H         1 UNK         0.0600 
    172 H172       -3.3770  -12.7230  -42.8293 H         1 UNK         0.0600 
    173 H173       -2.7128  -11.9958  -44.2938 H         1 UNK         0.0600 
    174 H174       -0.8902  -12.3499  -42.6359 H         1 UNK         0.3000 
    175 H175        1.0455  -12.7741  -41.0281 H         1 UNK         0.0600 
    176 H176        3.3528  -13.9249  -42.6852 H         1 UNK         0.0600 
    177 H177        3.5315  -13.0202  -41.1829 H         1 UNK         0.0600 
    178 H178        2.7107  -14.5723  -41.1836 H         1 UNK         0.0600 
    179 H179        1.3951  -10.8435  -42.0528 H         1 UNK         0.3000 
    180 H180        1.4660   -9.3388  -43.7028 H         1 UNK         0.0600 
    181 H181        4.3817   -9.8225  -44.5429 H         1 UNK         0.0600 
    182 H182        3.8424   -9.3304  -42.9421 H         1 UNK         0.0600 
    183 H183        3.6302   -8.2444  -44.3069 H         1 UNK         0.0600 
    184 H184        2.6936   -9.9408  -46.3203 H         1 UNK         0.3000 
    185 H185       -0.3916  -10.4455  -47.9699 H         1 UNK         0.0600 
    186 H186       -0.0084   -7.9840  -48.1514 H         1 UNK         0.0600 
    187 H187        1.7248   -8.2493  -48.3044 H         1 UNK         0.0600 
    188 H188        0.6256   -8.8291  -49.5552 H         1 UNK         0.0600 
    189 H189        2.4091  -10.5889  -48.7131 H         1 UNK         0.3000 
    190 H190       -0.9505  -21.4099  -47.5018 H         1 UNK         0.3000 
    191 H191       -1.2831  -22.7819  -49.9519 H         1 UNK         0.0600 
    192 H192       -3.4380  -21.4700  -48.2142 H         1 UNK         0.0600 
    193 H193       -3.5451  -21.8352  -49.9301 H         1 UNK         0.0600 
    194 H194       -2.4076  -20.6257  -49.3622 H         1 UNK         0.0600 
    195 H195       -2.7451  -23.4385  -46.7160 H         1 UNK         0.3000 
    196 H196       -4.2872  -25.6658  -47.4545 H         1 UNK         0.0600 
    197 H197       -4.3088  -26.1655  -45.0105 H         1 UNK         0.0600 
    198 H198       -4.5636  -24.4530  -45.3112 H         1 UNK         0.0600 
    199 H199       -2.9943  -25.0263  -44.7505 H         1 UNK         0.0600 
    200 H200       -0.8739  -25.5498  -46.3505 H         1 UNK         0.3000 
    201 H201       -0.3760  -28.3520  -46.4034 H         1 UNK         0.0600 
    202 H202        1.0922  -26.7273  -45.2395 H         1 UNK         0.0600 
    203 H203        1.5439  -25.9916  -46.7752 H         1 UNK         0.0600 
    204 H204        2.0184  -27.6472  -46.4162 H         1 UNK         0.0600 
    205 H205       -0.3375  -25.9081  -48.9722 H         1 UNK         0.3000 
    206 H206        0.6926  -27.7182  -51.0281 H         1 UNK         0.0600 
    207 H207        1.2110  -25.2693  -51.0284 H         1 UNK         0.0600 
    208 H208        0.3724  -25.7537  -52.4940 H         1 UNK         0.0600 
    209 H209       -0.5001  -24.9020  -51.2284 H         1 UNK         0.0600 
    210 H210       -2.2599  -27.5079  -49.5020 H         1 UNK         0.3000 
    211 H211       -4.3051  -28.2276  -49.7986 H         1 UNK         0.0600 
    212 H212       -3.3782  -29.6733  -52.3330 H         1 UNK         0.0600 
    213 H213       -4.8227  -30.0173  -51.3937 H         1 UNK         0.0600 
    214 H214       -3.2396  -30.3095  -50.6940 H         1 UNK         0.0600 
    215 H215       -3.6794  -25.6333  -50.6847 H         1 UNK         0.3000 
    216 H216       -5.7482  -25.1190  -52.7879 H         1 UNK         0.0600 
    217 H217       -4.4531  -23.0167  -53.2049 H         1 UNK         0.0600 
    218 H218       -3.4289  -24.4195  -53.4680 H         1 UNK         0.0600 
    219 H219       -3.2712  -23.4778  -51.9875 H         1 UNK         0.0600 
    220 H220       -6.8461  -23.0179  -52.4257 H         1 UNK         0.3000 
    221 H221       -7.5241  -22.4304  -49.6125 H         1 UNK         0.0600 
    222 H222       -8.4650  -21.1456  -52.2420 H         1 UNK         0.0600 
    223 H223       -9.3190  -22.4166  -51.3702 H         1 UNK         0.0600 
    224 H224       -9.1205  -20.8320  -50.6420 H         1 UNK         0.0600 
    225 H225       -7.1802  -20.2767  -48.7480 H         1 UNK         0.3000 
    226 H226       -4.5659  -19.3206  -49.0118 H         1 UNK         0.0600 
    227 H227       -5.9759  -19.1236  -46.9638 H         1 UNK         0.0600 
    228 H228       -5.3110  -17.5655  -47.4271 H         1 UNK         0.0600 
    229 H229       -6.9978  -17.9344  -47.7690 H         1 UNK         0.0600 
    230 H230       -7.3632  -18.3584  -50.8562 H         1 UNK         0.3000 
    231 H231       -6.0244  -15.9455  -51.9689 H         1 UNK         0.0600 
    232 H232       -8.2596  -15.5220  -52.9601 H         1 UNK         0.0600 
    233 H233       -8.3995  -15.7562  -51.2262 H         1 UNK         0.0600 
    234 H234       -8.8611  -17.0513  -52.3310 H         1 UNK         0.0600 
    235 H235       -6.0717  -19.2795  -52.6180 H         1 UNK         0.3000 
    236 H236       -6.0757  -18.9636  -55.5934 H         1 UNK         0.0600 
    237 H237       -7.8798  -20.4108  -54.6093 H         1 UNK         0.0600 
    238 H238       -6.7714  -21.3219  -55.6202 H         1 UNK         0.0600 
    239 H239       -6.6404  -21.4282  -53.8709 H         1 UNK         0.0600 
    240 H240       -3.8871  -19.0751  -53.1303 H         1 UNK         0.3000 
    241 H241       -2.0691  -21.0957  -53.9278 H         1 UNK         0.0600 
    242 H242        0.1268  -20.8852  -54.9084 H         1 UNK         0.3800 
    243 H243        0.3545  -19.6838  -56.1450 H         1 UNK         0.3800 
    244 H244       -1.9697  -20.2259  -51.6878 H         1 UNK         0.0800 
    245 H245       -0.4381  -19.9190  -52.4566 H         1 UNK         0.0800 
    246 H246       -1.2866  -16.8860  -49.8763 H         1 UNK         0.0800 
    247 H247       -1.6637  -18.5729  -49.7164 H         1 UNK         0.0800 
@<TRIPOS>BOND
     1    1    2 1    
     2    1  127 1    
     3    1  128 1    
     4    1  129 1    
     5    2    3 2    
     6    2    4 am   BACKBONE|DICT|INTERRES
     7    4    5 1    
     8    4  130 1    
     9    5    6 1    
    10    5   65 1    
    11    5  131 1    
    12    6    7 1    
    13    6  132 1    
    14    6  133 1    
    15    7    8 1    
    16    8    9 1    
    17    8  134 1    
    18    8  135 1    
    19    9   10 ar   
    20    9   14 ar   
    21   10   11 ar   
    22   10  136 1    
    23   11   12 ar   
    24   11  126 1    
    25   12   13 ar   
    26   12  137 1    
    27   13   14 ar   
    28   13   15 1    
    29   14  138 1    
    30   15   16 1    
    31   15  139 1    
    32   15  140 1    
    33   16   17 1    
    34   17   18 1    
    35   17  141 1    
    36   17  142 1    
    37   18   19 1    
    38   18   67 1    
    39   18  143 1    
    40   19   20 am   BACKBONE|DICT|INTERRES
    41   19  144 1    
    42   20   21 2    
    43   20   22 1    
    44   22   23 1    
    45   22   24 1    
    46   22  145 1    
    47   23  146 1    
    48   23  147 1    
    49   23  148 1    
    50   24   25 am   BACKBONE|DICT|INTERRES
    51   24  149 1    
    52   25   26 2    
    53   25   27 1    
    54   27   28 1    
    55   27   29 1    
    56   27  150 1    
    57   28  151 1    
    58   28  152 1    
    59   28  153 1    
    60   29   30 am   BACKBONE|DICT|INTERRES
    61   29  154 1    
    62   30   31 2    
    63   30   32 1    
    64   32   33 1    
    65   32   34 1    
    66   32  155 1    
    67   33  156 1    
    68   33  157 1    
    69   33  158 1    
    70   34   35 am   BACKBONE|DICT|INTERRES
    71   34  159 1    
    72   35   36 2    
    73   35   37 1    
    74   37   38 1    
    75   37   39 1    
    76   37  160 1    
    77   38  161 1    
    78   38  162 1    
    79   38  163 1    
    80   39   40 am   BACKBONE|DICT|INTERRES
    81   39  164 1    
    82   40   41 2    
    83   40   42 1    
    84   42   43 1    
    85   42   44 1    
    86   42  165 1    
    87   43  166 1    
    88   43  167 1    
    89   43  168 1    
    90   44   45 am   BACKBONE|DICT|INTERRES
    91   44  169 1    
    92   45   46 2    
    93   45   47 1    
    94   47   48 1    
    95   47   49 1    
    96   47  170 1    
    97   48  171 1    
    98   48  172 1    
    99   48  173 1    
   100   49   50 am   BACKBONE|DICT|INTERRES
   101   49  174 1    
   102   50   51 2    
   103   50   52 1    
   104   52   53 1    
   105   52   54 1    
   106   52  175 1    
   107   53  176 1    
   108   53  177 1    
   109   53  178 1    
   110   54   55 am   BACKBONE|DICT|INTERRES
   111   54  179 1    
   112   55   56 2    
   113   55   57 1    
   114   57   58 1    
   115   57   59 1    
   116   57  180 1    
   117   58  181 1    
   118   58  182 1    
   119   58  183 1    
   120   59   60 am   BACKBONE|DICT|INTERRES
   121   59  184 1    
   122   60   61 2    
   123   60   62 1    
   124   62   63 1    
   125   62   64 1    
   126   62  185 1    
   127   63  186 1    
   128   63  187 1    
   129   63  188 1    
   130   64   65 am   BACKBONE|DICT|INTERRES
   131   64  189 1    
   132   65   66 2    
   133   67   68 2    
   134   67   69 am   BACKBONE|DICT|INTERRES
   135   69   70 1    
   136   69  190 1    
   137   70   71 1    
   138   70   72 1    
   139   70  191 1    
   140   71  192 1    
   141   71  193 1    
   142   71  194 1    
   143   72   73 2    
   144   72   74 am   BACKBONE|DICT|INTERRES
   145   74   75 1    
   146   74  195 1    
   147   75   76 1    
   148   75   77 1    
   149   75  196 1    
   150   76  197 1    
   151   76  198 1    
   152   76  199 1    
   153   77   78 2    
   154   77   79 am   BACKBONE|DICT|INTERRES
   155   79   80 1    
   156   79  200 1    
   157   80   81 1    
   158   80   82 1    
   159   80  201 1    
   160   81  202 1    
   161   81  203 1    
   162   81  204 1    
   163   82   83 2    
   164   82   84 am   BACKBONE|DICT|INTERRES
   165   84   85 1    
   166   84  205 1    
   167   85   86 1    
   168   85   87 1    
   169   85  206 1    
   170   86  207 1    
   171   86  208 1    
   172   86  209 1    
   173   87   88 2    
   174   87   89 am   BACKBONE|DICT|INTERRES
   175   89   90 1    
   176   89  210 1    
   177   90   91 1    
   178   90   92 1    
   179   90  211 1    
   180   91  212 1    
   181   91  213 1    
   182   91  214 1    
   183   92   93 2    
   184   92   94 am   BACKBONE|DICT|INTERRES
   185   94   95 1    
   186   94  215 1    
   187   95   96 1    
   188   95   97 1    
   189   95  216 1    
   190   96  217 1    
   191   96  218 1    
   192   96  219 1    
   193   97   98 2    
   194   97   99 am   BACKBONE|DICT|INTERRES
   195   99  100 1    
   196   99  220 1    
   197  100  101 1    
   198  100  102 1    
   199  100  221 1    
   200  101  222 1    
   201  101  223 1    
   202  101  224 1    
   203  102  103 2    
   204  102  104 am   BACKBONE|DICT|INTERRES
   205  104  105 1    
   206  104  225 1    
   207  105  106 1    
   208  105  107 1    
   209  105  226 1    
   210  106  227 1    
   211  106  228 1    
   212  106  229 1    
   213  107  108 2    
   214  107  109 am   BACKBONE|DICT|INTERRES
   215  109  110 1    
   216  109  230 1    
   217  110  111 1    
   218  110  112 1    
   219  110  231 1    
   220  111  232 1    
   221  111  233 1    
   222  111  234 1    
   223  112  113 2    
   224  112  114 am   BACKBONE|DICT|INTERRES
   225  114  115 1    
   226  114  235 1    
   227  115  116 1    
   228  115  117 1    
   229  115  236 1    
   230  116  237 1    
   231  116  238 1    
   232  116  239 1    
   233  117  118 2    
   234  117  119 am   BACKBONE|DICT|INTERRES
   235  119  120 1    
   236  119  240 1    
   237  120  121 1    
   238  120  124 1    
   239  120  241 1    
   240  121  122 am   BACKBONE|DICT|INTERRES
   241  121  123 2    
   242  122  242 1    
   243  122  243 1    
   244  124  125 1    
   245  124  244 1    
   246  124  245 1    
   247  125  126 1    
   248  126  246 1    
   249  126  247 1    
@<TRIPOS>SUBSTRUCTURE
     1 UNK         1 GROUP             0       ****    0 ROOT    
