@<TRIPOS>MOLECULE
3R540
247   249    1
SMALL
USER_CHARGES


@<TRIPOS>ATOM
      1 CA         -3.6271  -15.6518  -47.9290 C.3       0 UNK        -0.1800 
      2 C          -2.4934  -14.6552  -47.7445 C.2       0 UNK         0.5000 
      3 O          -1.4637  -14.9913  -47.1571 O.2       0 UNK        -0.5000 
      4 N          -2.6907  -13.4260  -48.2403 N.am      1 UNK        -0.5000 
      5 CA         -1.7776  -12.2828  -48.1209 C.3       1 UNK         0.1400 
      6 C6         -0.4667  -12.4493  -48.9432 C.3       23 UNK        -0.0398 
      7 S7         -0.7681  -12.4049  -50.7428 S.3       23 UNK        -0.2404 
      8 C8          0.1391  -13.8693  -51.3350 C.3       23 UNK        -0.0205 
      9 C9         -0.7236  -15.1209  -51.3073 C.ar      23 UNK        -0.0193 
     10 C10        -1.6627  -15.3387  -52.3188 C.ar      23 UNK        -0.1150 
     11 C11        -2.4592  -16.4867  -52.3167 C.ar      23 UNK        -0.0193 
     12 C12        -2.3218  -17.4140  -51.2800 C.ar      23 UNK        -0.1150 
     13 C13        -1.3811  -17.2126  -50.2652 C.ar      23 UNK        -0.0193 
     14 C14        -0.5797  -16.0663  -50.2885 C.ar      23 UNK        -0.1150 
     15 C15        -1.2642  -18.2045  -49.1175 C.3       23 UNK        -0.0205 
     16 S16        -0.7519  -19.8621  -49.6757 S.3       23 UNK        -0.2404 
     17 C17        -0.4210  -20.6697  -48.0713 C.3       23 UNK        -0.0398 
     18 CA         -1.5557  -21.5633  -47.5080 C.3       11 UNK         0.1400 
     19 N          -1.1529  -22.1712  -46.2371 N.am      11 UNK        -0.5000 
     20 C          -1.8358  -23.1159  -45.5756 C.2       10 UNK         0.5000 
     21 O          -2.8674  -23.6394  -45.9923 O.2       10 UNK        -0.5000 
     22 CA         -1.2942  -23.5056  -44.1891 C.3       10 UNK         0.1400 
     23 CB         -0.1858  -24.5607  -44.3182 C.3       10 UNK        -0.1800 
     24 N          -0.7895  -22.3524  -43.4388 N.am      10 UNK        -0.5000 
     25 C          -1.5603  -21.3509  -42.9900 C.2       9 UNK         0.5000 
     26 O          -2.7767  -21.2985  -43.1564 O.2       9 UNK        -0.5000 
     27 CA         -0.8464  -20.1870  -42.2822 C.3       9 UNK         0.1400 
     28 CB         -0.5508  -20.5460  -40.8183 C.3       9 UNK        -0.1800 
     29 N           0.3947  -19.7886  -42.9477 N.am      9 UNK        -0.5000 
     30 C           0.4831  -19.3167  -44.1996 C.2       8 UNK         0.5000 
     31 O          -0.4934  -19.1880  -44.9397 O.2       8 UNK        -0.5000 
     32 CA          1.8886  -18.9160  -44.6921 C.3       8 UNK         0.1400 
     33 CB          1.8403  -17.8678  -45.8198 C.3       8 UNK        -0.1800 
     34 N           2.6925  -18.3805  -43.5940 N.am      8 UNK        -0.5000 
     35 C           3.6053  -19.0529  -42.8810 C.2       7 UNK         0.5000 
     36 O           3.8563  -20.2448  -43.0625 O.2       7 UNK        -0.5000 
     37 CA          4.3201  -18.2767  -41.7513 C.3       7 UNK         0.1400 
     38 CB          5.7410  -18.8064  -41.4672 C.3       7 UNK        -0.1800 
     39 N           4.3273  -16.8220  -41.9497 N.am      7 UNK        -0.5000 
     40 C           4.9122  -16.1345  -42.9448 C.2       6 UNK         0.5000 
     41 O           5.6072  -16.6575  -43.8166 O.2       6 UNK        -0.5000 
     42 CA          4.6622  -14.6129  -42.9918 C.3       6 UNK         0.1400 
     43 CB          4.2910  -14.1515  -44.4106 C.3       6 UNK        -0.1800 
     44 N           3.5911  -14.2124  -42.0765 N.am      6 UNK        -0.5000 
     45 C           3.7596  -13.5258  -40.9380 C.2       5 UNK         0.5000 
     46 O           4.8411  -13.0667  -40.5698 O.2       5 UNK        -0.5000 
     47 CA          2.5202  -13.3443  -40.0359 C.3       5 UNK         0.1400 
     48 CB          1.9195  -11.9420  -40.2129 C.3       5 UNK        -0.1800 
     49 N           1.4803  -14.3548  -40.2585 N.am      5 UNK        -0.5000 
     50 C           1.6172  -15.6557  -39.9594 C.2       4 UNK         0.5000 
     51 O           2.6310  -16.1280  -39.4456 O.2       4 UNK        -0.5000 
     52 CA          0.4708  -16.6097  -40.3491 C.3       4 UNK         0.1400 
     53 CB         -0.4443  -16.8726  -39.1445 C.3       4 UNK        -0.1800 
     54 N          -0.3463  -16.1629  -41.4787 N.am      4 UNK        -0.5000 
     55 C           0.1017  -15.8923  -42.7115 C.2       3 UNK         0.5000 
     56 O           1.2944  -15.9443  -43.0233 O.2       3 UNK        -0.5000 
     57 CA         -0.9421  -15.4786  -43.7713 C.3       3 UNK         0.1400 
     58 CB         -2.3927  -15.4116  -43.2437 C.3       3 UNK        -0.1800 
     59 N          -0.5875  -14.2170  -44.4234 N.am      3 UNK        -0.5000 
     60 C          -0.3296  -13.0425  -43.8255 C.2       2 UNK         0.5000 
     61 O          -0.3699  -12.8735  -42.6058 O.2       2 UNK        -0.5000 
     62 CA          0.0420  -11.8503  -44.7310 C.3       2 UNK         0.1400 
     63 CB          1.5483  -11.5642  -44.6544 C.3       2 UNK        -0.1800 
     64 N          -0.3177  -12.0524  -46.1354 N.am      2 UNK        -0.5000 
     65 C          -1.5584  -11.9394  -46.6279 C.2       1 UNK         0.5000 
     66 O          -2.5264  -11.5920  -45.9480 O.2       1 UNK        -0.5000 
     67 C          -2.8952  -20.8124  -47.3517 C.2       11 UNK         0.5000 
     68 O          -3.7972  -20.9942  -48.1675 O.2       11 UNK        -0.5000 
     69 N          -3.0134  -20.0103  -46.2858 N.am      12 UNK        -0.5000 
     70 CA         -4.2214  -19.2558  -45.9640 C.3       12 UNK         0.1400 
     71 CB         -3.8970  -18.2398  -44.8590 C.3       12 UNK        -0.1800 
     72 C          -5.4112  -20.1500  -45.5631 C.2       12 UNK         0.5000 
     73 O          -6.5260  -19.9175  -46.0321 O.2       12 UNK        -0.5000 
     74 N          -5.1629  -21.1379  -44.6935 N.am      13 UNK        -0.5000 
     75 CA         -6.2024  -21.9678  -44.0860 C.3       13 UNK         0.1400 
     76 CB         -5.7029  -22.4917  -42.7304 C.3       13 UNK        -0.1800 
     77 C          -6.6626  -23.1450  -44.9618 C.2       13 UNK         0.5000 
     78 O          -7.8515  -23.4675  -44.9418 O.2       13 UNK        -0.5000 
     79 N          -5.7288  -23.7967  -45.6675 N.am      14 UNK        -0.5000 
     80 CA         -5.9453  -25.1051  -46.2935 C.3       14 UNK         0.1400 
     81 CB         -5.3249  -26.1863  -45.3885 C.3       14 UNK        -0.1800 
     82 C          -5.4016  -25.1889  -47.7304 C.2       14 UNK         0.5000 
     83 O          -5.2743  -26.2948  -48.2591 O.2       14 UNK        -0.5000 
     84 N          -5.0742  -24.0407  -48.3396 N.am      15 UNK        -0.5000 
     85 CA         -4.5182  -23.8393  -49.6859 C.3       15 UNK         0.1400 
     86 CB         -5.4465  -24.3937  -50.7841 C.3       15 UNK        -0.1800 
     87 C          -3.0764  -24.3480  -49.8750 C.2       15 UNK         0.5000 
     88 O          -2.2773  -23.6599  -50.5134 O.2       15 UNK        -0.5000 
     89 N          -2.7738  -25.5416  -49.3442 N.am      16 UNK        -0.5000 
     90 CA         -1.4724  -26.2249  -49.3031 C.3       16 UNK         0.1400 
     91 CB         -0.5136  -25.4607  -48.3671 C.3       16 UNK        -0.1800 
     92 C          -0.8395  -26.4904  -50.6883 C.2       16 UNK         0.5000 
     93 O           0.3731  -26.6861  -50.7767 O.2       16 UNK        -0.5000 
     94 N          -1.6656  -26.4447  -51.7460 N.am      17 UNK        -0.5000 
     95 CA         -1.3090  -26.4205  -53.1723 C.3       17 UNK         0.1400 
     96 CB         -0.6125  -27.7295  -53.5964 C.3       17 UNK        -0.1800 
     97 C          -0.5097  -25.1650  -53.5996 C.2       17 UNK         0.5000 
     98 O          -0.0286  -25.1102  -54.7317 O.2       17 UNK        -0.5000 
     99 N          -0.4025  -24.1716  -52.7077 N.am      18 UNK        -0.5000 
    100 CA         0.2902  -22.9054  -52.9204 C.3       18 UNK         0.1400 
    101 CB         0.9925  -22.4938  -51.6175 C.3       18 UNK        -0.1800 
    102 C         -0.7024  -21.8298  -53.3800 C.2       18 UNK         0.5000 
    103 O         -0.4312  -21.1305  -54.3558 O.2       18 UNK        -0.5000 
    104 N         -1.8678  -21.7625  -52.7179 N.am      19 UNK        -0.5000 
    105 CA        -2.9639  -20.8543  -53.0698 C.3       19 UNK         0.1400 
    106 CB        -3.9916  -20.8280  -51.9314 C.3       19 UNK        -0.1800 
    107 C         -3.6532  -21.2306  -54.3951 C.2       19 UNK         0.5000 
    108 O         -4.3013  -20.3821  -55.0048 O.2       19 UNK        -0.5000 
    109 N         -3.4788  -22.4846  -54.8375 N.am      20 UNK        -0.5000 
    110 CA        -3.9598  -23.0102  -56.1169 C.3       20 UNK         0.1400 
    111 CB        -3.6576  -24.5151  -56.1798 C.3       20 UNK        -0.1800 
    112 C         -3.3636  -22.2855  -57.3416 C.2       20 UNK         0.5000 
    113 O         -4.0149  -22.2225  -58.3850 O.2       20 UNK        -0.5000 
    114 N         -2.1590  -21.7163  -57.1847 N.am      21 UNK        -0.5000 
    115 CA        -1.4832  -20.8984  -58.1930 C.3       21 UNK         0.1400 
    116 CB        -0.0100  -20.7306  -57.7908 C.3       21 UNK        -0.1800 
    117 C         -2.1432  -19.5206  -58.4110 C.2       21 UNK         0.5000 
    118 O         -1.8883  -18.8926  -59.4396 O.2       21 UNK        -0.5000 
    119 N         -2.9725  -19.0731  -57.4580 N.am      22 UNK        -0.5000 
    120 CA        -3.7144  -17.8031  -57.5171 C.3       22 UNK         0.1400 
    121 C         -4.9743  -17.8438  -58.4330 C.2       22 UNK         0.5000 
    122 N         -5.3904  -18.9934  -58.9527 N.am      22 UNK        -0.7600 
    123 O         -5.5828  -16.8074  -58.6856 O.2       22 UNK        -0.5000 
    124 C124       -4.0793  -17.2745  -56.1047 C.3       23 UNK        -0.0398 
    125 S125       -2.6394  -17.1473  -54.9907 S.3       23 UNK        -0.2404 
    126 C126       -3.4686  -16.7122  -53.4316 C.3       23 UNK        -0.0205 
    127 H127       -3.7391  -15.9105  -48.9818 H         1 UNK         0.0600 
    128 H128       -4.5687  -15.2364  -47.5701 H         1 UNK         0.0600 
    129 H129       -3.4259  -16.5650  -47.3715 H         1 UNK         0.0600 
    130 H130       -3.5667  -13.2230  -48.7001 H         1 UNK         0.3000 
    131 H131       -2.3127  -11.4252  -48.5319 H         1 UNK         0.0600 
    132 H132        0.2260  -11.6321  -48.7352 H         1 UNK         0.0800 
    133 H133        0.0503  -13.3710  -48.6735 H         1 UNK         0.0800 
    134 H134        0.4626  -13.6846  -52.3605 H         1 UNK         0.0800 
    135 H135        1.0523  -14.0093  -50.7547 H         1 UNK         0.0800 
    136 H136       -1.7713  -14.6144  -53.1141 H         1 UNK         0.1150 
    137 H137       -2.9457  -18.2947  -51.2571 H         1 UNK         0.1150 
    138 H138        0.1407  -15.8979  -49.5002 H         1 UNK         0.1150 
    139 H139       -0.5594  -17.8346  -48.3711 H         1 UNK         0.0800 
    140 H140       -2.2304  -18.2762  -48.6190 H         1 UNK         0.0800 
    141 H141        0.4745  -21.2780  -48.2051 H         1 UNK         0.0800 
    142 H142       -0.1460  -19.9063  -47.3475 H         1 UNK         0.0800 
    143 H143       -1.7199  -22.3753  -48.2164 H         1 UNK         0.0600 
    144 H144       -0.3402  -21.7772  -45.7891 H         1 UNK         0.3000 
    145 H145       -2.1189  -23.9441  -43.6228 H         1 UNK         0.0600 
    146 H146        0.1612  -24.8896  -43.3385 H         1 UNK         0.0600 
    147 H147       -0.5486  -25.4440  -44.8456 H         1 UNK         0.0600 
    148 H148        0.6748  -24.1794  -44.8693 H         1 UNK         0.0600 
    149 H149        0.2035  -22.3177  -43.2611 H         1 UNK         0.3000 
    150 H150       -1.5197  -19.3271  -42.2946 H         1 UNK         0.0600 
    151 H151       -1.4672  -20.8140  -40.2907 H         1 UNK         0.0600 
    152 H152       -0.1050  -19.7083  -40.2843 H         1 UNK         0.0600 
    153 H153        0.1324  -21.3926  -40.7397 H         1 UNK         0.0600 
    154 H154        1.2471  -19.8817  -42.4160 H         1 UNK         0.3000 
    155 H155        2.3573  -19.8163  -45.0936 H         1 UNK         0.0600 
    156 H156        2.8448  -17.5663  -46.1176 H         1 UNK         0.0600 
    157 H157        1.3010  -16.9696  -45.5193 H         1 UNK         0.0600 
    158 H158        1.3486  -18.2613  -46.7083 H         1 UNK         0.0600 
    159 H159        2.4882  -17.4172  -43.3427 H         1 UNK         0.3000 
    160 H160        3.7252  -18.4492  -40.8534 H         1 UNK         0.0600 
    161 H161        6.3812  -18.7472  -42.3476 H         1 UNK         0.0600 
    162 H162        5.7141  -19.8510  -41.1550 H         1 UNK         0.0600 
    163 H163        6.2186  -18.2429  -40.6656 H         1 UNK         0.0600 
    164 H164        3.8031  -16.2960  -41.2614 H         1 UNK         0.3000 
    165 H165        5.6041  -14.1343  -42.7176 H         1 UNK         0.0600 
    166 H166        3.3380  -14.5729  -44.7340 H         1 UNK         0.0600 
    167 H167        4.2193  -13.0655  -44.4541 H         1 UNK         0.0600 
    168 H168        5.0473  -14.4476  -45.1385 H         1 UNK         0.0600 
    169 H169        2.6692  -14.5747  -42.2976 H         1 UNK         0.3000 
    170 H170        2.8567  -13.4362  -39.0010 H         1 UNK         0.0600 
    171 H171        2.6519  -11.1715  -39.9689 H         1 UNK         0.0600 
    172 H172        1.5950  -11.7686  -41.2381 H         1 UNK         0.0600 
    173 H173        1.0608  -11.7930  -39.5582 H         1 UNK         0.0600 
    174 H174        0.6380  -14.0444  -40.7261 H         1 UNK         0.3000 
    175 H175        0.9321  -17.5547  -40.6416 H         1 UNK         0.0600 
    176 H176       -0.9484  -15.9621  -38.8178 H         1 UNK         0.0600 
    177 H177       -1.2089  -17.6129  -39.3807 H         1 UNK         0.0600 
    178 H178        0.1252  -17.2552  -38.2964 H         1 UNK         0.0600 
    179 H179       -1.3342  -16.0574  -41.2995 H         1 UNK         0.3000 
    180 H180       -0.9075  -16.2465  -44.5454 H         1 UNK         0.0600 
    181 H181       -2.5137  -14.6568  -42.4658 H         1 UNK         0.0600 
    182 H182       -2.7135  -16.3708  -42.8356 H         1 UNK         0.0600 
    183 H183       -3.0835  -15.1634  -44.0498 H         1 UNK         0.0600 
    184 H184       -0.5618  -14.2594  -45.4364 H         1 UNK         0.3000 
    185 H185       -0.4898  -10.9759  -44.3500 H         1 UNK         0.0600 
    186 H186        1.7993  -10.6376  -45.1708 H         1 UNK         0.0600 
    187 H187        1.8849  -11.4616  -43.6224 H         1 UNK         0.0600 
    188 H188        2.1230  -12.3677  -45.1125 H         1 UNK         0.0600 
    189 H189        0.4259  -12.3608  -46.7436 H         1 UNK         0.3000 
    190 H190       -2.2159  -19.8838  -45.6703 H         1 UNK         0.3000 
    191 H191       -4.5148  -18.7001  -46.8570 H         1 UNK         0.0600 
    192 H192       -3.0868  -17.5775  -45.1634 H         1 UNK         0.0600 
    193 H193       -4.7627  -17.6162  -44.6331 H         1 UNK         0.0600 
    194 H194       -3.5934  -18.7313  -43.9342 H         1 UNK         0.0600 
    195 H195       -4.2247  -21.2362  -44.3116 H         1 UNK         0.3000 
    196 H196       -7.0764  -21.3420  -43.8916 H         1 UNK         0.0600 
    197 H197       -6.4736  -23.0781  -42.2286 H         1 UNK         0.0600 
    198 H198       -5.4343  -21.6709  -42.0650 H         1 UNK         0.0600 
    199 H199       -4.8263  -23.1309  -42.8443 H         1 UNK         0.0600 
    200 H200       -4.7629  -23.4793  -45.6484 H         1 UNK         0.3000 
    201 H201       -7.0133  -25.3130  -46.3797 H         1 UNK         0.0600 
    202 H202       -5.7468  -26.1493  -44.3840 H         1 UNK         0.0600 
    203 H203       -4.2446  -26.0620  -45.3025 H         1 UNK         0.0600 
    204 H204       -5.5122  -27.1875  -45.7782 H         1 UNK         0.0600 
    205 H205       -5.1724  -23.1928  -47.7975 H         1 UNK         0.3000 
    206 H206       -4.4812  -22.7607  -49.8195 H         1 UNK         0.0600 
    207 H207       -6.4445  -23.9621  -50.7088 H         1 UNK         0.0600 
    208 H208       -5.0635  -24.1534  -51.7767 H         1 UNK         0.0600 
    209 H209       -5.5455  -25.4779  -50.7334 H         1 UNK         0.0600 
    210 H210       -3.5401  -26.0278  -48.8839 H         1 UNK         0.3000 
    211 H211       -1.6564  -27.2057  -48.8629 H         1 UNK         0.0600 
    212 H212       -0.2571  -24.4779  -48.7642 H         1 UNK         0.0600 
    213 H213        0.4177  -26.0084  -48.2190 H         1 UNK         0.0600 
    214 H214       -0.9607  -25.3198  -47.3842 H         1 UNK         0.0600 
    215 H215       -2.6431  -26.2885  -51.5452 H         1 UNK         0.3000 
    216 H216       -2.2549  -26.3657  -53.7130 H         1 UNK         0.0600 
    217 H217       -1.1895  -28.6014  -53.2885 H         1 UNK         0.0600 
    218 H218        0.3857  -27.8178  -53.1673 H         1 UNK         0.0600 
    219 H219       -0.5042  -27.7806  -54.6804 H         1 UNK         0.0600 
    220 H220       -0.8813  -24.2695  -51.8191 H         1 UNK         0.3000 
    221 H221        1.0517  -23.0184  -53.6952 H         1 UNK         0.0600 
    222 H222        0.2947  -22.4444  -50.7812 H         1 UNK         0.0600 
    223 H223        1.7736  -23.2067  -51.3532 H         1 UNK         0.0600 
    224 H224        1.4622  -21.5143  -51.7154 H         1 UNK         0.0600 
    225 H225       -2.0128  -22.3683  -51.9150 H         1 UNK         0.3000 
    226 H226       -2.5465  -19.8516  -53.1830 H         1 UNK         0.0600 
    227 H227       -3.5169  -20.6608  -50.9644 H         1 UNK         0.0600 
    228 H228       -4.7164  -20.0275  -52.0831 H         1 UNK         0.0600 
    229 H229       -4.5489  -21.7620  -51.8803 H         1 UNK         0.0600 
    230 H230       -2.9272  -23.1083  -54.2687 H         1 UNK         0.3000 
    231 H231       -5.0426  -22.8728  -56.1481 H         1 UNK         0.0600 
    232 H232       -4.0347  -24.9502  -57.1063 H         1 UNK         0.0600 
    233 H233       -4.1312  -25.0489  -55.3556 H         1 UNK         0.0600 
    234 H234       -2.5855  -24.7123  -56.1380 H         1 UNK         0.0600 
    235 H235       -1.6994  -21.7887  -56.2866 H         1 UNK         0.3000 
    236 H236       -1.5181  -21.4332  -59.1444 H         1 UNK         0.0600 
    237 H237        0.4776  -21.6966  -57.6582 H         1 UNK         0.0600 
    238 H238        0.5449  -20.1888  -58.5577 H         1 UNK         0.0600 
    239 H239        0.0902  -20.1724  -56.8592 H         1 UNK         0.0600 
    240 H240       -3.1555  -19.6475  -56.6444 H         1 UNK         0.3000 
    241 H241       -3.0514  -17.0621  -57.9677 H         1 UNK         0.0600 
    242 H242       -6.2040  -19.0034  -59.5477 H         1 UNK         0.3800 
    243 H243       -4.9010  -19.8544  -58.7579 H         1 UNK         0.3800 
    244 H244       -4.8288  -17.9163  -55.6399 H         1 UNK         0.0800 
    245 H245       -4.5315  -16.2838  -56.1778 H         1 UNK         0.0800 
    246 H246       -4.1686  -17.5051  -53.1631 H         1 UNK         0.0800 
    247 H247       -4.0604  -15.8066  -53.5728 H         1 UNK         0.0800 
@<TRIPOS>BOND
     1    1    2 1    
     2    1  127 1    
     3    1  128 1    
     4    1  129 1    
     5    2    3 2    
     6    2    4 am   BACKBONE|DICT|INTERRES
     7    4    5 1    
     8    4  130 1    
     9    5    6 1    
    10    5   65 1    
    11    5  131 1    
    12    6    7 1    
    13    6  132 1    
    14    6  133 1    
    15    7    8 1    
    16    8    9 1    
    17    8  134 1    
    18    8  135 1    
    19    9   10 ar   
    20    9   14 ar   
    21   10   11 ar   
    22   10  136 1    
    23   11   12 ar   
    24   11  126 1    
    25   12   13 ar   
    26   12  137 1    
    27   13   14 ar   
    28   13   15 1    
    29   14  138 1    
    30   15   16 1    
    31   15  139 1    
    32   15  140 1    
    33   16   17 1    
    34   17   18 1    
    35   17  141 1    
    36   17  142 1    
    37   18   19 1    
    38   18   67 1    
    39   18  143 1    
    40   19   20 am   BACKBONE|DICT|INTERRES
    41   19  144 1    
    42   20   21 2    
    43   20   22 1    
    44   22   23 1    
    45   22   24 1    
    46   22  145 1    
    47   23  146 1    
    48   23  147 1    
    49   23  148 1    
    50   24   25 am   BACKBONE|DICT|INTERRES
    51   24  149 1    
    52   25   26 2    
    53   25   27 1    
    54   27   28 1    
    55   27   29 1    
    56   27  150 1    
    57   28  151 1    
    58   28  152 1    
    59   28  153 1    
    60   29   30 am   BACKBONE|DICT|INTERRES
    61   29  154 1    
    62   30   31 2    
    63   30   32 1    
    64   32   33 1    
    65   32   34 1    
    66   32  155 1    
    67   33  156 1    
    68   33  157 1    
    69   33  158 1    
    70   34   35 am   BACKBONE|DICT|INTERRES
    71   34  159 1    
    72   35   36 2    
    73   35   37 1    
    74   37   38 1    
    75   37   39 1    
    76   37  160 1    
    77   38  161 1    
    78   38  162 1    
    79   38  163 1    
    80   39   40 am   BACKBONE|DICT|INTERRES
    81   39  164 1    
    82   40   41 2    
    83   40   42 1    
    84   42   43 1    
    85   42   44 1    
    86   42  165 1    
    87   43  166 1    
    88   43  167 1    
    89   43  168 1    
    90   44   45 am   BACKBONE|DICT|INTERRES
    91   44  169 1    
    92   45   46 2    
    93   45   47 1    
    94   47   48 1    
    95   47   49 1    
    96   47  170 1    
    97   48  171 1    
    98   48  172 1    
    99   48  173 1    
   100   49   50 am   BACKBONE|DICT|INTERRES
   101   49  174 1    
   102   50   51 2    
   103   50   52 1    
   104   52   53 1    
   105   52   54 1    
   106   52  175 1    
   107   53  176 1    
   108   53  177 1    
   109   53  178 1    
   110   54   55 am   BACKBONE|DICT|INTERRES
   111   54  179 1    
   112   55   56 2    
   113   55   57 1    
   114   57   58 1    
   115   57   59 1    
   116   57  180 1    
   117   58  181 1    
   118   58  182 1    
   119   58  183 1    
   120   59   60 am   BACKBONE|DICT|INTERRES
   121   59  184 1    
   122   60   61 2    
   123   60   62 1    
   124   62   63 1    
   125   62   64 1    
   126   62  185 1    
   127   63  186 1    
   128   63  187 1    
   129   63  188 1    
   130   64   65 am   BACKBONE|DICT|INTERRES
   131   64  189 1    
   132   65   66 2    
   133   67   68 2    
   134   67   69 am   BACKBONE|DICT|INTERRES
   135   69   70 1    
   136   69  190 1    
   137   70   71 1    
   138   70   72 1    
   139   70  191 1    
   140   71  192 1    
   141   71  193 1    
   142   71  194 1    
   143   72   73 2    
   144   72   74 am   BACKBONE|DICT|INTERRES
   145   74   75 1    
   146   74  195 1    
   147   75   76 1    
   148   75   77 1    
   149   75  196 1    
   150   76  197 1    
   151   76  198 1    
   152   76  199 1    
   153   77   78 2    
   154   77   79 am   BACKBONE|DICT|INTERRES
   155   79   80 1    
   156   79  200 1    
   157   80   81 1    
   158   80   82 1    
   159   80  201 1    
   160   81  202 1    
   161   81  203 1    
   162   81  204 1    
   163   82   83 2    
   164   82   84 am   BACKBONE|DICT|INTERRES
   165   84   85 1    
   166   84  205 1    
   167   85   86 1    
   168   85   87 1    
   169   85  206 1    
   170   86  207 1    
   171   86  208 1    
   172   86  209 1    
   173   87   88 2    
   174   87   89 am   BACKBONE|DICT|INTERRES
   175   89   90 1    
   176   89  210 1    
   177   90   91 1    
   178   90   92 1    
   179   90  211 1    
   180   91  212 1    
   181   91  213 1    
   182   91  214 1    
   183   92   93 2    
   184   92   94 am   BACKBONE|DICT|INTERRES
   185   94   95 1    
   186   94  215 1    
   187   95   96 1    
   188   95   97 1    
   189   95  216 1    
   190   96  217 1    
   191   96  218 1    
   192   96  219 1    
   193   97   98 2    
   194   97   99 am   BACKBONE|DICT|INTERRES
   195   99  100 1    
   196   99  220 1    
   197  100  101 1    
   198  100  102 1    
   199  100  221 1    
   200  101  222 1    
   201  101  223 1    
   202  101  224 1    
   203  102  103 2    
   204  102  104 am   BACKBONE|DICT|INTERRES
   205  104  105 1    
   206  104  225 1    
   207  105  106 1    
   208  105  107 1    
   209  105  226 1    
   210  106  227 1    
   211  106  228 1    
   212  106  229 1    
   213  107  108 2    
   214  107  109 am   BACKBONE|DICT|INTERRES
   215  109  110 1    
   216  109  230 1    
   217  110  111 1    
   218  110  112 1    
   219  110  231 1    
   220  111  232 1    
   221  111  233 1    
   222  111  234 1    
   223  112  113 2    
   224  112  114 am   BACKBONE|DICT|INTERRES
   225  114  115 1    
   226  114  235 1    
   227  115  116 1    
   228  115  117 1    
   229  115  236 1    
   230  116  237 1    
   231  116  238 1    
   232  116  239 1    
   233  117  118 2    
   234  117  119 am   BACKBONE|DICT|INTERRES
   235  119  120 1    
   236  119  240 1    
   237  120  121 1    
   238  120  124 1    
   239  120  241 1    
   240  121  122 am   BACKBONE|DICT|INTERRES
   241  121  123 2    
   242  122  242 1    
   243  122  243 1    
   244  124  125 1    
   245  124  244 1    
   246  124  245 1    
   247  125  126 1    
   248  126  246 1    
   249  126  247 1    
@<TRIPOS>SUBSTRUCTURE
     1 UNK         1 GROUP             0       ****    0 ROOT    
