@<TRIPOS>MOLECULE
3R540
247   249    1
SMALL
USER_CHARGES


@<TRIPOS>ATOM
      1 CA         -4.6455  -14.3371  -43.5649 C.3       0 UNK        -0.1800 
      2 C          -3.1704  -14.0825  -43.8379 C.2       0 UNK         0.5000 
      3 O          -2.3378  -14.9242  -43.5078 O.2       0 UNK        -0.5000 
      4 N          -2.8526  -12.9318  -44.4468 N.am      1 UNK        -0.5000 
      5 CA         -1.5021  -12.4794  -44.8129 C.3       1 UNK         0.1400 
      6 C6         -0.7856  -13.3796  -45.8553 C.3       23 UNK        -0.0398 
      7 S7         -1.7614  -13.6514  -47.3752 S.3       23 UNK        -0.2404 
      8 C8         -2.0275  -15.4442  -47.2515 C.3       23 UNK        -0.0205 
      9 C9         -2.5681  -16.0461  -48.5392 C.ar      23 UNK        -0.0193 
     10 C10        -1.7451  -16.1241  -49.6650 C.ar      23 UNK        -0.1150 
     11 C11        -2.2117  -16.6911  -50.8527 C.ar      23 UNK        -0.0193 
     12 C12        -3.5141  -17.1967  -50.9058 C.ar      23 UNK        -0.1150 
     13 C13        -4.3492  -17.1301  -49.7840 C.ar      23 UNK        -0.0193 
     14 C14        -3.8692  -16.5557  -48.6017 C.ar      23 UNK        -0.1150 
     15 C15        -5.7888  -17.6193  -49.8755 C.3       23 UNK        -0.0205 
     16 S16        -5.9119  -19.4233  -50.0891 S.3       23 UNK        -0.2404 
     17 C17        -5.9292  -20.0365  -48.3697 C.3       23 UNK        -0.0398 
     18 CA         -5.1820  -21.3860  -48.2501 C.3       11 UNK         0.1400 
     19 N          -3.7528  -21.2276  -48.5269 N.am      11 UNK        -0.5000 
     20 C          -2.8423  -22.2049  -48.6175 C.2       10 UNK         0.5000 
     21 O          -3.1095  -23.4047  -48.5313 O.2       10 UNK        -0.5000 
     22 CA         -1.3766  -21.7466  -48.7541 C.3       10 UNK         0.1400 
     23 CB         -1.0196  -21.5905  -50.2390 C.3       10 UNK        -0.1800 
     24 N          -1.0907  -20.4826  -48.0616 N.am      10 UNK        -0.5000 
     25 C          -1.3334  -20.2095  -46.7725 C.2       9 UNK         0.5000 
     26 O          -1.7740  -21.0378  -45.9762 O.2       9 UNK        -0.5000 
     27 CA         -1.1278  -18.7530  -46.3241 C.3       9 UNK         0.1400 
     28 CB         -1.7230  -18.4732  -44.9327 C.3       9 UNK        -0.1800 
     29 N           0.2658  -18.3060  -46.3525 N.am      9 UNK        -0.5000 
     30 C           0.9688  -18.0265  -47.4606 C.2       8 UNK         0.5000 
     31 O           0.5493  -18.2462  -48.5956 O.2       8 UNK        -0.5000 
     32 CA          2.3380  -17.3360  -47.2991 C.3       8 UNK         0.1400 
     33 CB          2.2811  -15.9120  -47.8791 C.3       8 UNK        -0.1800 
     34 N           2.7851  -17.2426  -45.9105 N.am      8 UNK        -0.5000 
     35 C           3.3925  -18.2184  -45.2237 C.2       7 UNK         0.5000 
     36 O           3.6681  -19.3210  -45.6966 O.2       7 UNK        -0.5000 
     37 CA          3.7307  -17.9082  -43.7526 C.3       7 UNK         0.1400 
     38 CB          5.1864  -17.4363  -43.6228 C.3       7 UNK        -0.1800 
     39 N           2.8398  -16.9017  -43.1643 N.am      7 UNK        -0.5000 
     40 C           1.5485  -17.1240  -42.8708 C.2       6 UNK         0.5000 
     41 O           0.9973  -18.2020  -43.0917 O.2       6 UNK        -0.5000 
     42 CA          0.7213  -15.9583  -42.2833 C.3       6 UNK         0.1400 
     43 CB         -0.3179  -16.4304  -41.2465 C.3       6 UNK        -0.1800 
     44 N           1.5253  -14.8515  -41.7585 N.am      6 UNK        -0.5000 
     45 C           2.3995  -14.8801  -40.7401 C.2       5 UNK         0.5000 
     46 O           2.5798  -15.8633  -40.0202 O.2       5 UNK        -0.5000 
     47 CA          3.2341  -13.5990  -40.5144 C.3       5 UNK         0.1400 
     48 CB          4.6130  -13.8942  -39.8885 C.3       5 UNK        -0.1800 
     49 N           3.3869  -12.7761  -41.7220 N.am      5 UNK        -0.5000 
     50 C           3.9307  -13.1390  -42.8965 C.2       4 UNK         0.5000 
     51 O           4.3973  -14.2593  -43.1054 O.2       4 UNK        -0.5000 
     52 CA          3.8946  -12.1093  -44.0452 C.3       4 UNK         0.1400 
     53 CB          3.4882  -12.7747  -45.3736 C.3       4 UNK        -0.1800 
     54 N           2.9490  -11.0299  -43.7583 N.am      4 UNK        -0.5000 
     55 C           3.2684   -9.7905  -43.3617 C.2       3 UNK         0.5000 
     56 O           4.4249   -9.3783  -43.2702 O.2       3 UNK        -0.5000 
     57 CA          2.0997   -8.8580  -42.9745 C.3       3 UNK         0.1400 
     58 CB          1.7553   -7.9193  -44.1409 C.3       3 UNK        -0.1800 
     59 N           0.8855   -9.5728  -42.5675 N.am      3 UNK        -0.5000 
     60 C           0.7722  -10.3461  -41.4777 C.2       2 UNK         0.5000 
     61 O           1.6746  -10.4963  -40.6543 O.2       2 UNK        -0.5000 
     62 CA         -0.5393  -11.1423  -41.3180 C.3       2 UNK         0.1400 
     63 CB         -1.5355  -10.3703  -40.4410 C.3       2 UNK        -0.1800 
     64 N          -1.1856  -11.4922  -42.5887 N.am      2 UNK        -0.5000 
     65 C          -0.6300  -12.2286  -43.5624 C.2       1 UNK         0.5000 
     66 O           0.5144  -12.6848  -43.4935 O.2       1 UNK        -0.5000 
     67 C          -5.4845  -22.0812  -46.9007 C.2       11 UNK         0.5000 
     68 O          -6.5660  -22.6524  -46.7599 O.2       11 UNK        -0.5000 
     69 N          -4.5368  -22.0486  -45.9533 N.am      12 UNK        -0.5000 
     70 CA         -4.6165  -22.7369  -44.6674 C.3       12 UNK         0.1400 
     71 CB         -4.4488  -21.7107  -43.5342 C.3       12 UNK        -0.1800 
     72 C          -3.5469  -23.8369  -44.5742 C.2       12 UNK         0.5000 
     73 O          -3.8829  -24.9928  -44.3171 O.2       12 UNK        -0.5000 
     74 N          -2.2793  -23.4639  -44.7960 N.am      13 UNK        -0.5000 
     75 CA         -1.0914  -24.2923  -44.5769 C.3       13 UNK         0.1400 
     76 CB          0.1601  -23.4086  -44.6973 C.3       13 UNK        -0.1800 
     77 C          -0.9797  -25.5044  -45.5169 C.2       13 UNK         0.5000 
     78 O          -0.4385  -26.5328  -45.1094 O.2       13 UNK        -0.5000 
     79 N          -1.5007  -25.3683  -46.7418 N.am      14 UNK        -0.5000 
     80 CA         -1.5644  -26.4311  -47.7457 C.3       14 UNK         0.1400 
     81 CB         -0.8759  -25.9444  -49.0336 C.3       14 UNK        -0.1800 
     82 C          -3.0206  -26.8567  -48.0078 C.2       14 UNK         0.5000 
     83 O          -3.2860  -27.4923  -49.0278 O.2       14 UNK        -0.5000 
     84 N          -3.9499  -26.4673  -47.1180 N.am      15 UNK        -0.5000 
     85 CA         -5.3962  -26.7210  -47.1757 C.3       15 UNK         0.1400 
     86 CB         -5.6840  -28.2080  -46.8844 C.3       15 UNK        -0.1800 
     87 C          -6.0621  -26.2331  -48.4832 C.2       15 UNK         0.5000 
     88 O          -7.0463  -26.8227  -48.9316 O.2       15 UNK        -0.5000 
     89 N          -5.4861  -25.1794  -49.0803 N.am      16 UNK        -0.5000 
     90 CA         -5.8372  -24.5767  -50.3661 C.3       16 UNK         0.1400 
     91 CB         -7.2820  -24.0346  -50.3684 C.3       16 UNK        -0.1800 
     92 C          -5.5264  -25.4508  -51.5979 C.2       16 UNK         0.5000 
     93 O          -5.9690  -25.1088  -52.6946 O.2       16 UNK        -0.5000 
     94 N          -4.7244  -26.5157  -51.4422 N.am      17 UNK        -0.5000 
     95 CA         -4.2452  -27.3335  -52.5618 C.3       17 UNK         0.1400 
     96 CB         -3.6626  -28.6524  -52.0327 C.3       17 UNK        -0.1800 
     97 C          -3.2043  -26.5871  -53.4183 C.2       17 UNK         0.5000 
     98 O          -3.1895  -26.7467  -54.6389 O.2       17 UNK        -0.5000 
     99 N          -2.3759  -25.7628  -52.7615 N.am      18 UNK        -0.5000 
    100 CA        -1.3466  -24.9319  -53.3895 C.3       18 UNK         0.1400 
    101 CB        -0.0949  -24.9279  -52.4976 C.3       18 UNK        -0.1800 
    102 C         -1.8272  -23.4944  -53.6695 C.2       18 UNK         0.5000 
    103 O         -1.0563  -22.7017  -54.2097 O.2       18 UNK        -0.5000 
    104 N         -3.0822  -23.1626  -53.3269 N.am      19 UNK        -0.5000 
    105 CA        -3.6681  -21.8283  -53.5147 C.3       19 UNK         0.1400 
    106 CB        -5.0357  -21.7529  -52.8242 C.3       19 UNK        -0.1800 
    107 C         -3.7792  -21.3921  -54.9895 C.2       19 UNK         0.5000 
    108 O         -3.7862  -20.1931  -55.2628 O.2       19 UNK        -0.5000 
    109 N         -3.8290  -22.3653  -55.9099 N.am      20 UNK        -0.5000 
    110 CA        -3.7842  -22.1452  -57.3559 C.3       20 UNK         0.1400 
    111 CB        -4.2317  -23.4301  -58.0693 C.3       20 UNK        -0.1800 
    112 C         -2.3917  -21.7077  -57.8558 C.2       20 UNK         0.5000 
    113 O         -2.3090  -20.9920  -58.8546 O.2       20 UNK        -0.5000 
    114 N         -1.3293  -22.1428  -57.1628 N.am      21 UNK        -0.5000 
    115 CA         0.0562  -21.7610  -57.4419 C.3       21 UNK         0.1400 
    116 CB         0.9907  -22.9100  -57.0305 C.3       21 UNK        -0.1800 
    117 C          0.4448  -20.4587  -56.7182 C.2       21 UNK         0.5000 
    118 O          1.2731  -19.7060  -57.2322 O.2       21 UNK        -0.5000 
    119 N         -0.1567  -20.2238  -55.5444 N.am      22 UNK        -0.5000 
    120 CA        -0.0173  -19.0137  -54.7232 C.3       22 UNK         0.1400 
    121 C         -0.4126  -17.7096  -55.4770 C.2       22 UNK         0.5000 
    122 N          0.3549  -16.6385  -55.3253 N.am      22 UNK        -0.7600 
    123 O         -1.4263  -17.6500  -56.1684 O.2       22 UNK        -0.5000 
    124 C124       -0.8121  -19.1656  -53.3993 C.3       23 UNK        -0.0398 
    125 S125       -0.1581  -18.1178  -52.0582 S.3       23 UNK        -0.2404 
    126 C126       -1.3138  -16.7105  -52.0803 C.3       23 UNK        -0.0205 
    127 H127       -5.2713  -13.5155  -43.9142 H         1 UNK         0.0600 
    128 H128       -4.8121  -14.4618  -42.4950 H         1 UNK         0.0600 
    129 H129       -4.9667  -15.2481  -44.0698 H         1 UNK         0.0600 
    130 H130       -3.5975  -12.2977  -44.6996 H         1 UNK         0.3000 
    131 H131       -1.6341  -11.5009  -45.2770 H         1 UNK         0.0600 
    132 H132       -0.5145  -14.3372  -45.4083 H         1 UNK         0.0800 
    133 H133        0.1559  -12.9195  -46.1599 H         1 UNK         0.0800 
    134 H134       -2.6910  -15.6564  -46.4121 H         1 UNK         0.0800 
    135 H135       -1.0730  -15.9150  -47.0229 H         1 UNK         0.0800 
    136 H136       -0.7360  -15.7388  -49.6164 H         1 UNK         0.1150 
    137 H137       -3.8862  -17.6277  -51.8249 H         1 UNK         0.1150 
    138 H138       -4.5113  -16.4943  -47.7343 H         1 UNK         0.1150 
    139 H139       -6.3682  -17.3107  -49.0039 H         1 UNK         0.0800 
    140 H140       -6.2613  -17.1396  -50.7338 H         1 UNK         0.0800 
    141 H141       -6.9747  -20.1412  -48.0733 H         1 UNK         0.0800 
    142 H142       -5.4903  -19.2933  -47.7017 H         1 UNK         0.0800 
    143 H143       -5.5799  -22.0461  -49.0183 H         1 UNK         0.0600 
    144 H144       -3.4317  -20.2771  -48.6364 H         1 UNK         0.3000 
    145 H145       -0.7440  -22.5215  -48.3173 H         1 UNK         0.0600 
    146 H146        0.0437  -21.3899  -50.3726 H         1 UNK         0.0600 
    147 H147       -1.2550  -22.4961  -50.7967 H         1 UNK         0.0600 
    148 H148       -1.5743  -20.7718  -50.6995 H         1 UNK         0.0600 
    149 H149       -0.6677  -19.7413  -48.6152 H         1 UNK         0.3000 
    150 H150       -1.6918  -18.1552  -47.0373 H         1 UNK         0.0600 
    151 H151       -2.7912  -18.6928  -44.9133 H         1 UNK         0.0600 
    152 H152       -1.6030  -17.4270  -44.6505 H         1 UNK         0.0600 
    153 H153       -1.2519  -19.0848  -44.1628 H         1 UNK         0.0600 
    154 H154        0.7028  -18.1604  -45.4526 H         1 UNK         0.3000 
    155 H155        3.0668  -17.9125  -47.8725 H         1 UNK         0.0600 
    156 H156        1.5553  -15.2901  -47.3532 H         1 UNK         0.0600 
    157 H157        1.9954  -15.9278  -48.9319 H         1 UNK         0.0600 
    158 H158        3.2522  -15.4203  -47.8162 H         1 UNK         0.0600 
    159 H159        2.6102  -16.3700  -45.4350 H         1 UNK         0.3000 
    160 H160        3.6219  -18.8343  -43.1841 H         1 UNK         0.0600 
    161 H161        5.3707  -16.5341  -44.2072 H         1 UNK         0.0600 
    162 H162        5.8774  -18.2022  -43.9769 H         1 UNK         0.0600 
    163 H163        5.4416  -17.2212  -42.5849 H         1 UNK         0.0600 
    164 H164        3.2464  -15.9913  -42.9750 H         1 UNK         0.3000 
    165 H165        0.1741  -15.5422  -43.1288 H         1 UNK         0.0600 
    166 H166        0.1495  -16.9308  -40.3984 H         1 UNK         0.0600 
    167 H167       -0.9011  -15.5915  -40.8666 H         1 UNK         0.0600 
    168 H168       -1.0225  -17.1327  -41.6938 H         1 UNK         0.0600 
    169 H169        1.4407  -13.9883  -42.2866 H         1 UNK         0.3000 
    170 H170        2.6703  -12.9948  -39.8025 H         1 UNK         0.0600 
    171 H171        4.5080  -14.3750  -38.9153 H         1 UNK         0.0600 
    172 H172        5.2094  -14.5561  -40.5173 H         1 UNK         0.0600 
    173 H173        5.1803  -12.9763  -39.7345 H         1 UNK         0.0600 
    174 H174        3.0038  -11.8414  -41.6460 H         1 UNK         0.3000 
    175 H175        4.9055  -11.7129  -44.1564 H         1 UNK         0.0600 
    176 H176        2.5188  -13.2679  -45.2976 H         1 UNK         0.0600 
    177 H177        3.4298  -12.0432  -46.1796 H         1 UNK         0.0600 
    178 H178        4.2161  -13.5289  -45.6753 H         1 UNK         0.0600 
    179 H179        1.9732  -11.3049  -43.7622 H         1 UNK         0.3000 
    180 H180        2.4316   -8.2499  -42.1304 H         1 UNK         0.0600 
    181 H181        1.3979   -8.4724  -45.0104 H         1 UNK         0.0600 
    182 H182        2.6296   -7.3464  -44.4530 H         1 UNK         0.0600 
    183 H183        0.9843   -7.2029  -43.8569 H         1 UNK         0.0600 
    184 H184        0.0923   -9.5052  -43.1878 H         1 UNK         0.3000 
    185 H185       -0.2901  -12.0767  -40.8104 H         1 UNK         0.0600 
    186 H186       -1.8495   -9.4385  -40.9131 H         1 UNK         0.0600 
    187 H187       -2.4278  -10.9639  -40.2410 H         1 UNK         0.0600 
    188 H188       -1.0930  -10.1172  -39.4764 H         1 UNK         0.0600 
    189 H189       -2.1343  -11.1698  -42.7136 H         1 UNK         0.3000 
    190 H190       -3.6556  -21.5884  -46.1550 H         1 UNK         0.3000 
    191 H191       -5.5890  -23.2171  -44.5414 H         1 UNK         0.0600 
    192 H192       -4.4712  -22.1977  -42.5585 H         1 UNK         0.0600 
    193 H193       -5.2549  -20.9772  -43.5498 H         1 UNK         0.0600 
    194 H194       -3.5055  -21.1681  -43.6107 H         1 UNK         0.0600 
    195 H195       -2.0938  -22.5009  -45.0725 H         1 UNK         0.3000 
    196 H196       -1.1410  -24.6744  -43.5553 H         1 UNK         0.0600 
    197 H197        0.2619  -22.9909  -45.6999 H         1 UNK         0.0600 
    198 H198        0.1271  -22.5781  -43.9918 H         1 UNK         0.0600 
    199 H199        1.0651  -23.9795  -44.4858 H         1 UNK         0.0600 
    200 H200       -1.9516  -24.4971  -46.9925 H         1 UNK         0.3000 
    201 H201       -1.0377  -27.3230  -47.4014 H         1 UNK         0.0600 
    202 H202       -1.4102  -25.1106  -49.4866 H         1 UNK         0.0600 
    203 H203       -0.8221  -26.7413  -49.7763 H         1 UNK         0.0600 
    204 H204        0.1455  -25.6193  -48.8358 H         1 UNK         0.0600 
    205 H205       -3.6360  -25.9583  -46.3008 H         1 UNK         0.3000 
    206 H206       -5.8415  -26.1317  -46.3727 H         1 UNK         0.0600 
    207 H207       -5.2193  -28.5231  -45.9502 H         1 UNK         0.0600 
    208 H208       -6.7550  -28.3905  -46.7890 H         1 UNK         0.0600 
    209 H209       -5.3105  -28.8541  -47.6797 H         1 UNK         0.0600 
    210 H210       -4.6628  -24.7815  -48.6401 H         1 UNK         0.3000 
    211 H211       -5.1659  -23.7260  -50.4608 H         1 UNK         0.0600 
    212 H212       -7.4546  -23.3878  -51.2293 H         1 UNK         0.0600 
    213 H213       -7.4903  -23.4460  -49.4752 H         1 UNK         0.0600 
    214 H214       -8.0159  -24.8393  -50.4156 H         1 UNK         0.0600 
    215 H215       -4.3850  -26.7650  -50.5176 H         1 UNK         0.3000 
    216 H216       -5.0973  -27.5746  -53.2010 H         1 UNK         0.0600 
    217 H217       -2.7623  -28.4883  -51.4398 H         1 UNK         0.0600 
    218 H218       -3.3939  -29.3156  -52.8558 H         1 UNK         0.0600 
    219 H219       -4.3834  -29.1815  -51.4091 H         1 UNK         0.0600 
    220 H220       -2.4599  -25.7022  -51.7575 H         1 UNK         0.3000 
    221 H221       -1.0624  -25.3617  -54.3523 H         1 UNK         0.0600 
    222 H222        0.2720  -25.9408  -52.3306 H         1 UNK         0.0600 
    223 H223       -0.2885  -24.4787  -51.5250 H         1 UNK         0.0600 
    224 H224        0.7158  -24.3644  -52.9615 H         1 UNK         0.0600 
    225 H225       -3.6831  -23.8765  -52.9437 H         1 UNK         0.3000 
    226 H226       -3.0129  -21.1117  -53.0176 H         1 UNK         0.0600 
    227 H227       -5.7276  -22.5017  -53.2092 H         1 UNK         0.0600 
    228 H228       -4.9382  -21.8892  -51.7488 H         1 UNK         0.0600 
    229 H229       -5.4964  -20.7758  -52.9767 H         1 UNK         0.0600 
    230 H230       -3.8428  -23.3243  -55.5950 H         1 UNK         0.3000 
    231 H231       -4.4913  -21.3514  -57.6062 H         1 UNK         0.0600 
    232 H232       -3.5712  -24.2681  -57.8427 H         1 UNK         0.0600 
    233 H233       -4.2323  -23.2957  -59.1518 H         1 UNK         0.0600 
    234 H234       -5.2437  -23.7113  -57.7775 H         1 UNK         0.0600 
    235 H235       -1.4812  -22.6872  -56.3244 H         1 UNK         0.3000 
    236 H236        0.1792  -21.5974  -58.5147 H         1 UNK         0.0600 
    237 H237        0.7423  -23.8291  -57.5613 H         1 UNK         0.0600 
    238 H238        2.0283  -22.6695  -57.2652 H         1 UNK         0.0600 
    239 H239        0.9373  -23.1153  -55.9609 H         1 UNK         0.0600 
    240 H240       -0.7671  -20.9438  -55.1783 H         1 UNK         0.3000 
    241 H241        1.0447  -18.9518  -54.4776 H         1 UNK         0.0600 
    242 H242        0.1061  -15.7855  -55.8011 H         1 UNK         0.3800 
    243 H243        1.1830  -16.6611  -54.7505 H         1 UNK         0.3800 
    244 H244       -1.8786  -18.9868  -53.5463 H         1 UNK         0.0800 
    245 H245       -0.7301  -20.1917  -53.0390 H         1 UNK         0.0800 
    246 H246       -1.9150  -16.7133  -52.9904 H         1 UNK         0.0800 
    247 H247       -0.7317  -15.7885  -52.1158 H         1 UNK         0.0800 
@<TRIPOS>BOND
     1    1    2 1    
     2    1  127 1    
     3    1  128 1    
     4    1  129 1    
     5    2    3 2    
     6    2    4 am   BACKBONE|DICT|INTERRES
     7    4    5 1    
     8    4  130 1    
     9    5    6 1    
    10    5   65 1    
    11    5  131 1    
    12    6    7 1    
    13    6  132 1    
    14    6  133 1    
    15    7    8 1    
    16    8    9 1    
    17    8  134 1    
    18    8  135 1    
    19    9   10 ar   
    20    9   14 ar   
    21   10   11 ar   
    22   10  136 1    
    23   11   12 ar   
    24   11  126 1    
    25   12   13 ar   
    26   12  137 1    
    27   13   14 ar   
    28   13   15 1    
    29   14  138 1    
    30   15   16 1    
    31   15  139 1    
    32   15  140 1    
    33   16   17 1    
    34   17   18 1    
    35   17  141 1    
    36   17  142 1    
    37   18   19 1    
    38   18   67 1    
    39   18  143 1    
    40   19   20 am   BACKBONE|DICT|INTERRES
    41   19  144 1    
    42   20   21 2    
    43   20   22 1    
    44   22   23 1    
    45   22   24 1    
    46   22  145 1    
    47   23  146 1    
    48   23  147 1    
    49   23  148 1    
    50   24   25 am   BACKBONE|DICT|INTERRES
    51   24  149 1    
    52   25   26 2    
    53   25   27 1    
    54   27   28 1    
    55   27   29 1    
    56   27  150 1    
    57   28  151 1    
    58   28  152 1    
    59   28  153 1    
    60   29   30 am   BACKBONE|DICT|INTERRES
    61   29  154 1    
    62   30   31 2    
    63   30   32 1    
    64   32   33 1    
    65   32   34 1    
    66   32  155 1    
    67   33  156 1    
    68   33  157 1    
    69   33  158 1    
    70   34   35 am   BACKBONE|DICT|INTERRES
    71   34  159 1    
    72   35   36 2    
    73   35   37 1    
    74   37   38 1    
    75   37   39 1    
    76   37  160 1    
    77   38  161 1    
    78   38  162 1    
    79   38  163 1    
    80   39   40 am   BACKBONE|DICT|INTERRES
    81   39  164 1    
    82   40   41 2    
    83   40   42 1    
    84   42   43 1    
    85   42   44 1    
    86   42  165 1    
    87   43  166 1    
    88   43  167 1    
    89   43  168 1    
    90   44   45 am   BACKBONE|DICT|INTERRES
    91   44  169 1    
    92   45   46 2    
    93   45   47 1    
    94   47   48 1    
    95   47   49 1    
    96   47  170 1    
    97   48  171 1    
    98   48  172 1    
    99   48  173 1    
   100   49   50 am   BACKBONE|DICT|INTERRES
   101   49  174 1    
   102   50   51 2    
   103   50   52 1    
   104   52   53 1    
   105   52   54 1    
   106   52  175 1    
   107   53  176 1    
   108   53  177 1    
   109   53  178 1    
   110   54   55 am   BACKBONE|DICT|INTERRES
   111   54  179 1    
   112   55   56 2    
   113   55   57 1    
   114   57   58 1    
   115   57   59 1    
   116   57  180 1    
   117   58  181 1    
   118   58  182 1    
   119   58  183 1    
   120   59   60 am   BACKBONE|DICT|INTERRES
   121   59  184 1    
   122   60   61 2    
   123   60   62 1    
   124   62   63 1    
   125   62   64 1    
   126   62  185 1    
   127   63  186 1    
   128   63  187 1    
   129   63  188 1    
   130   64   65 am   BACKBONE|DICT|INTERRES
   131   64  189 1    
   132   65   66 2    
   133   67   68 2    
   134   67   69 am   BACKBONE|DICT|INTERRES
   135   69   70 1    
   136   69  190 1    
   137   70   71 1    
   138   70   72 1    
   139   70  191 1    
   140   71  192 1    
   141   71  193 1    
   142   71  194 1    
   143   72   73 2    
   144   72   74 am   BACKBONE|DICT|INTERRES
   145   74   75 1    
   146   74  195 1    
   147   75   76 1    
   148   75   77 1    
   149   75  196 1    
   150   76  197 1    
   151   76  198 1    
   152   76  199 1    
   153   77   78 2    
   154   77   79 am   BACKBONE|DICT|INTERRES
   155   79   80 1    
   156   79  200 1    
   157   80   81 1    
   158   80   82 1    
   159   80  201 1    
   160   81  202 1    
   161   81  203 1    
   162   81  204 1    
   163   82   83 2    
   164   82   84 am   BACKBONE|DICT|INTERRES
   165   84   85 1    
   166   84  205 1    
   167   85   86 1    
   168   85   87 1    
   169   85  206 1    
   170   86  207 1    
   171   86  208 1    
   172   86  209 1    
   173   87   88 2    
   174   87   89 am   BACKBONE|DICT|INTERRES
   175   89   90 1    
   176   89  210 1    
   177   90   91 1    
   178   90   92 1    
   179   90  211 1    
   180   91  212 1    
   181   91  213 1    
   182   91  214 1    
   183   92   93 2    
   184   92   94 am   BACKBONE|DICT|INTERRES
   185   94   95 1    
   186   94  215 1    
   187   95   96 1    
   188   95   97 1    
   189   95  216 1    
   190   96  217 1    
   191   96  218 1    
   192   96  219 1    
   193   97   98 2    
   194   97   99 am   BACKBONE|DICT|INTERRES
   195   99  100 1    
   196   99  220 1    
   197  100  101 1    
   198  100  102 1    
   199  100  221 1    
   200  101  222 1    
   201  101  223 1    
   202  101  224 1    
   203  102  103 2    
   204  102  104 am   BACKBONE|DICT|INTERRES
   205  104  105 1    
   206  104  225 1    
   207  105  106 1    
   208  105  107 1    
   209  105  226 1    
   210  106  227 1    
   211  106  228 1    
   212  106  229 1    
   213  107  108 2    
   214  107  109 am   BACKBONE|DICT|INTERRES
   215  109  110 1    
   216  109  230 1    
   217  110  111 1    
   218  110  112 1    
   219  110  231 1    
   220  111  232 1    
   221  111  233 1    
   222  111  234 1    
   223  112  113 2    
   224  112  114 am   BACKBONE|DICT|INTERRES
   225  114  115 1    
   226  114  235 1    
   227  115  116 1    
   228  115  117 1    
   229  115  236 1    
   230  116  237 1    
   231  116  238 1    
   232  116  239 1    
   233  117  118 2    
   234  117  119 am   BACKBONE|DICT|INTERRES
   235  119  120 1    
   236  119  240 1    
   237  120  121 1    
   238  120  124 1    
   239  120  241 1    
   240  121  122 am   BACKBONE|DICT|INTERRES
   241  121  123 2    
   242  122  242 1    
   243  122  243 1    
   244  124  125 1    
   245  124  244 1    
   246  124  245 1    
   247  125  126 1    
   248  126  246 1    
   249  126  247 1    
@<TRIPOS>SUBSTRUCTURE
     1 UNK         1 GROUP             0       ****    0 ROOT    
