@<TRIPOS>MOLECULE
3R540
247   249    1
SMALL
USER_CHARGES


@<TRIPOS>ATOM
      1 CA         -1.2297  -12.5439  -41.9143 C.3       0 UNK        -0.1800 
      2 C          -1.1451  -11.8320  -43.2557 C.2       0 UNK         0.5000 
      3 O          -0.1585  -12.0002  -43.9734 O.2       0 UNK        -0.5000 
      4 N          -2.1557  -11.0129  -43.5838 N.am      1 UNK        -0.5000 
      5 CA         -2.3677  -10.3088  -44.8651 C.3       1 UNK         0.1400 
      6 C6         -2.5837  -11.2820  -46.0590 C.3       23 UNK        -0.0398 
      7 S7         -3.9410  -12.4776  -45.8267 S.3       23 UNK        -0.2404 
      8 C8         -3.5296  -13.6347  -47.1699 C.3       23 UNK        -0.0205 
      9 C9         -4.5720  -14.7282  -47.3427 C.ar      23 UNK        -0.0193 
     10 C10        -5.3532  -14.7665  -48.4991 C.ar      23 UNK        -0.1150 
     11 C11        -6.2637  -15.8039  -48.7078 C.ar      23 UNK        -0.0193 
     12 C12        -6.4132  -16.7911  -47.7300 C.ar      23 UNK        -0.1150 
     13 C13        -5.6511  -16.7656  -46.5563 C.ar      23 UNK        -0.0193 
     14 C14        -4.7224  -15.7288  -46.3770 C.ar      23 UNK        -0.1150 
     15 C15        -5.8495  -17.9058  -45.5526 C.3       23 UNK        -0.0205 
     16 S16        -4.8393  -17.8151  -44.0243 S.3       23 UNK        -0.2404 
     17 C17        -4.5362  -19.5418  -43.4705 C.3       23 UNK        -0.0398 
     18 CA         -4.4942  -20.6496  -44.5545 C.3       11 UNK         0.1400 
     19 N          -3.5316  -20.3575  -45.6171 N.am      11 UNK        -0.5000 
     20 C          -3.6912  -20.7623  -46.8826 C.2       10 UNK         0.5000 
     21 O          -4.5919  -21.5186  -47.2433 O.2       10 UNK        -0.5000 
     22 CA         -2.6962  -20.2144  -47.9226 C.3       10 UNK         0.1400 
     23 CB         -3.0476  -18.7620  -48.2828 C.3       10 UNK        -0.1800 
     24 N          -1.3007  -20.2937  -47.4906 N.am      10 UNK        -0.5000 
     25 C          -0.6727  -21.4398  -47.1978 C.2       9 UNK         0.5000 
     26 O          -1.2126  -22.5434  -47.2545 O.2       9 UNK        -0.5000 
     27 CA          0.7813  -21.3389  -46.6977 C.3       9 UNK         0.1400 
     28 CB          1.7509  -21.0413  -47.8510 C.3       9 UNK        -0.1800 
     29 N           0.9453  -20.3378  -45.6441 N.am      9 UNK        -0.5000 
     30 C           0.3106  -20.3714  -44.4637 C.2       8 UNK         0.5000 
     31 O          -0.4402  -21.2823  -44.1191 O.2       8 UNK        -0.5000 
     32 CA          0.4782  -19.1471  -43.5459 C.3       8 UNK         0.1400 
     33 CB          1.8222  -19.1861  -42.8046 C.3       8 UNK        -0.1800 
     34 N           0.3459  -17.8861  -44.2758 N.am      8 UNK        -0.5000 
     35 C          -0.7450  -17.5266  -44.9675 C.2       7 UNK         0.5000 
     36 O          -1.7714  -18.1990  -45.0175 O.2       7 UNK        -0.5000 
     37 CA         -0.6500  -16.2349  -45.7905 C.3       7 UNK         0.1400 
     38 CB         -0.8634  -15.0047  -44.9003 C.3       7 UNK        -0.1800 
     39 N           0.6344  -16.1410  -46.4845 N.am      7 UNK        -0.5000 
     40 C           0.9728  -16.9122  -47.5285 C.2       6 UNK         0.5000 
     41 O           0.2080  -17.7217  -48.0519 O.2       6 UNK        -0.5000 
     42 CA          2.4196  -16.7992  -48.0441 C.3       6 UNK         0.1400 
     43 CB          2.5460  -15.6998  -49.1061 C.3       6 UNK        -0.1800 
     44 N           3.3800  -16.5520  -46.9680 N.am      6 UNK        -0.5000 
     45 C           3.7240  -17.4735  -46.0575 C.2       5 UNK         0.5000 
     46 O           3.2909  -18.6254  -46.0591 O.2       5 UNK        -0.5000 
     47 CA          4.6742  -17.0264  -44.9310 C.3       5 UNK         0.1400 
     48 CB          6.1379  -17.2210  -45.3526 C.3       5 UNK        -0.1800 
     49 N           4.4750  -15.6393  -44.5059 N.am      5 UNK        -0.5000 
     50 C           3.3348  -15.1366  -44.0133 C.2       4 UNK         0.5000 
     51 O           2.3042  -15.7966  -43.8826 O.2       4 UNK        -0.5000 
     52 CA          3.3302  -13.6500  -43.6090 C.3       4 UNK         0.1400 
     53 CB          4.7349  -13.0856  -43.3013 C.3       4 UNK        -0.1800 
     54 N           2.6468  -12.7994  -44.5871 N.am      4 UNK        -0.5000 
     55 C           2.9355  -12.6423  -45.8895 C.2       3 UNK         0.5000 
     56 O           3.7714  -13.3169  -46.4931 O.2       3 UNK        -0.5000 
     57 CA          2.1851  -11.5296  -46.6478 C.3       3 UNK         0.1400 
     58 CB          1.0960  -12.1244  -47.5542 C.3       3 UNK        -0.1800 
     59 N           1.5545  -10.5783  -45.7318 N.am      3 UNK        -0.5000 
     60 C           1.8732   -9.2834  -45.5881 C.2       2 UNK         0.5000 
     61 O           2.7876   -8.7354  -46.2060 O.2       2 UNK        -0.5000 
     62 CA          1.0257   -8.4655  -44.5797 C.3       2 UNK         0.1400 
     63 CB          0.9101   -6.9742  -44.9589 C.3       2 UNK        -0.1800 
     64 N          -0.2946   -9.0613  -44.3298 N.am      2 UNK        -0.5000 
     65 C          -1.2709   -9.2725  -45.2269 C.2       1 UNK         0.5000 
     66 O          -1.3019   -8.7287  -46.3317 O.2       1 UNK        -0.5000 
     67 C          -4.2742  -22.0403  -43.9244 C.2       11 UNK         0.5000 
     68 O          -5.2639  -22.7171  -43.6397 O.2       11 UNK        -0.5000 
     69 N          -3.0159  -22.4454  -43.6899 N.am      12 UNK        -0.5000 
     70 CA         -2.6959  -23.6829  -42.9719 C.3       12 UNK         0.1400 
     71 CB         -1.4801  -23.4707  -42.0542 C.3       12 UNK        -0.1800 
     72 C          -2.4628  -24.8690  -43.9194 C.2       12 UNK         0.5000 
     73 O          -3.0552  -25.9278  -43.7061 O.2       12 UNK        -0.5000 
     74 N          -1.5979  -24.6939  -44.9300 N.am      13 UNK        -0.5000 
     75 CA         -1.2408  -25.7618  -45.8724 C.3       13 UNK         0.1400 
     76 CB          0.1413  -25.4891  -46.4893 C.3       13 UNK        -0.1800 
     77 C          -2.3147  -25.9663  -46.9564 C.2       13 UNK         0.5000 
     78 O          -2.5230  -27.0991  -47.3943 O.2       13 UNK        -0.5000 
     79 N          -2.9914  -24.8750  -47.3426 N.am      14 UNK        -0.5000 
     80 CA         -4.0941  -24.8108  -48.3026 C.3       14 UNK         0.1400 
     81 CB         -5.3603  -25.4736  -47.7163 C.3       14 UNK        -0.1800 
     82 C          -3.6680  -25.3487  -49.6802 C.2       14 UNK         0.5000 
     83 O          -2.7116  -24.8243  -50.2481 O.2       14 UNK        -0.5000 
     84 N          -4.3480  -26.3857  -50.1896 N.am      15 UNK        -0.5000 
     85 CA         -4.1118  -27.0063  -51.4983 C.3       15 UNK         0.1400 
     86 CB         -5.1031  -28.1638  -51.6878 C.3       15 UNK        -0.1800 
     87 C          -2.6668  -27.4917  -51.7362 C.2       15 UNK         0.5000 
     88 O          -2.2165  -27.5019  -52.8824 O.2       15 UNK        -0.5000 
     89 N          -1.9467  -27.8324  -50.6572 N.am      16 UNK        -0.5000 
     90 CA         -0.5287  -28.1992  -50.6836 C.3       16 UNK         0.1400 
     91 CB         -0.1324  -28.7778  -49.3176 C.3       16 UNK        -0.1800 
     92 C           0.4085  -27.0372  -51.0783 C.2       16 UNK         0.5000 
     93 O           1.5321  -27.2971  -51.5098 O.2       16 UNK        -0.5000 
     94 N          -0.0629  -25.7872  -50.9545 N.am      17 UNK        -0.5000 
     95 CA          0.6418  -24.5822  -51.3959 C.3       17 UNK         0.1400 
     96 CB          0.1766  -23.3937  -50.5420 C.3       17 UNK        -0.1800 
     97 C           0.4559  -24.2924  -52.9016 C.2       17 UNK         0.5000 
     98 O           1.0694  -23.3500  -53.4057 O.2       17 UNK        -0.5000 
     99 N          -0.3690  -25.0953  -53.5952 N.am      18 UNK        -0.5000 
    100 CA        -0.6368  -25.0725  -55.0360 C.3       18 UNK         0.1400 
    101 CB         0.5970  -25.5806  -55.8146 C.3       18 UNK        -0.1800 
    102 C         -1.1537  -23.6992  -55.5088 C.2       18 UNK         0.5000 
    103 O         -2.2864  -23.3407  -55.1893 O.2       18 UNK        -0.5000 
    104 N         -0.3211  -22.9386  -56.2315 N.am      19 UNK        -0.5000 
    105 CA        -0.6240  -21.5887  -56.7139 C.3       19 UNK         0.1400 
    106 CB         0.5009  -21.1328  -57.6555 C.3       19 UNK        -0.1800 
    107 C         -0.8350  -20.5562  -55.5870 C.2       19 UNK         0.5000 
    108 O         -1.5387  -19.5685  -55.8002 O.2       19 UNK        -0.5000 
    109 N         -0.2439  -20.8058  -54.4107 N.am      20 UNK        -0.5000 
    110 CA        -0.3571  -19.9618  -53.2214 C.3       20 UNK         0.1400 
    111 CB         1.0105  -19.9129  -52.5173 C.3       20 UNK        -0.1800 
    112 C         -1.4818  -20.4149  -52.2665 C.2       20 UNK         0.5000 
    113 O         -1.5676  -19.8845  -51.1609 O.2       20 UNK        -0.5000 
    114 N         -2.3275  -21.3718  -52.6834 N.am      21 UNK        -0.5000 
    115 CA        -3.4395  -21.9010  -51.8846 C.3       21 UNK         0.1400 
    116 CB        -4.0375  -23.1260  -52.5922 C.3       21 UNK        -0.1800 
    117 C         -4.5516  -20.8767  -51.5884 C.2       21 UNK         0.5000 
    118 O         -5.2202  -20.9998  -50.5631 O.2       21 UNK        -0.5000 
    119 N         -4.7352  -19.8978  -52.4868 N.am      22 UNK        -0.5000 
    120 CA        -5.7491  -18.8307  -52.3949 C.3       22 UNK         0.1400 
    121 C         -7.2254  -19.3238  -52.5409 C.2       22 UNK         0.5000 
    122 N         -7.4713  -20.4888  -53.1290 N.am      22 UNK        -0.7600 
    123 O         -8.1665  -18.6429  -52.1433 O.2       22 UNK        -0.5000 
    124 C124       -5.5133  -17.9114  -51.1612 C.3       23 UNK        -0.0398 
    125 S125       -6.0149  -16.1790  -51.4475 S.3       23 UNK        -0.2404 
    126 C126       -7.0720  -15.8576  -49.9972 C.3       23 UNK        -0.0205 
    127 H127       -2.1359  -12.2777  -41.3700 H         1 UNK         0.0600 
    128 H128       -0.3704  -12.2831  -41.2969 H         1 UNK         0.0600 
    129 H129       -1.2273  -13.6233  -42.0649 H         1 UNK         0.0600 
    130 H130       -2.9133  -10.9056  -42.9237 H         1 UNK         0.3000 
    131 H131       -3.2849   -9.7318  -44.7394 H         1 UNK         0.0600 
    132 H132       -2.8085  -10.7272  -46.9718 H         1 UNK         0.0800 
    133 H133       -1.6652  -11.8342  -46.2605 H         1 UNK         0.0800 
    134 H134       -3.4164  -13.0704  -48.0971 H         1 UNK         0.0800 
    135 H135       -2.5616  -14.0943  -46.9789 H         1 UNK         0.0800 
    136 H136       -5.2342  -14.0047  -49.2569 H         1 UNK         0.1150 
    137 H137       -7.1178  -17.5955  -47.8895 H         1 UNK         0.1150 
    138 H138       -4.1003  -15.6895  -45.4956 H         1 UNK         0.1150 
    139 H139       -6.8997  -17.9425  -45.2605 H         1 UNK         0.0800 
    140 H140       -5.6556  -18.8233  -46.0984 H         1 UNK         0.0800 
    141 H141       -5.3057  -19.7785  -42.7336 H         1 UNK         0.0800 
    142 H142       -3.5931  -19.5328  -42.9208 H         1 UNK         0.0800 
    143 H143       -5.4929  -20.6962  -44.9922 H         1 UNK         0.0600 
    144 H144       -2.7983  -19.6846  -45.3993 H         1 UNK         0.3000 
    145 H145       -2.7948  -20.8208  -48.8247 H         1 UNK         0.0600 
    146 H146       -2.4110  -18.3850  -49.0828 H         1 UNK         0.0600 
    147 H147       -2.9394  -18.0939  -47.4289 H         1 UNK         0.0600 
    148 H148       -4.0802  -18.6880  -48.6236 H         1 UNK         0.0600 
    149 H149       -0.7884  -19.4195  -47.4442 H         1 UNK         0.3000 
    150 H150        1.0531  -22.3070  -46.2722 H         1 UNK         0.0600 
    151 H151        1.7091  -21.8247  -48.6062 H         1 UNK         0.0600 
    152 H152        2.7808  -20.9909  -47.4975 H         1 UNK         0.0600 
    153 H153        1.5195  -20.0965  -48.3430 H         1 UNK         0.0600 
    154 H154        1.5851  -19.5730  -45.8362 H         1 UNK         0.3000 
    155 H155       -0.3203  -19.1788  -42.8018 H         1 UNK         0.0600 
    156 H156        1.9011  -20.0856  -42.1928 H         1 UNK         0.0600 
    157 H157        1.9325  -18.3285  -42.1407 H         1 UNK         0.0600 
    158 H158        2.6650  -19.1862  -43.4946 H         1 UNK         0.0600 
    159 H159        1.1359  -17.2471  -44.2464 H         1 UNK         0.3000 
    160 H160       -1.4448  -16.2534  -46.5391 H         1 UNK         0.0600 
    161 H161       -0.1372  -14.9498  -44.0901 H         1 UNK         0.0600 
    162 H162       -1.8556  -15.0196  -44.4476 H         1 UNK         0.0600 
    163 H163       -0.7843  -14.0858  -45.4768 H         1 UNK         0.0600 
    164 H164        1.3410  -15.5606  -46.0564 H         1 UNK         0.3000 
    165 H165        2.6719  -17.7503  -48.5181 H         1 UNK         0.0600 
    166 H166        3.5346  -15.7093  -49.5652 H         1 UNK         0.0600 
    167 H167        1.8144  -15.8366  -49.9036 H         1 UNK         0.0600 
    168 H168        2.3886  -14.7128  -48.6763 H         1 UNK         0.0600 
    169 H169        3.7539  -15.6144  -46.8838 H         1 UNK         0.3000 
    170 H170        4.4818  -17.6645  -44.0667 H         1 UNK         0.0600 
    171 H171        6.4031  -16.5791  -46.1937 H         1 UNK         0.0600 
    172 H172        6.8186  -16.9975  -44.5310 H         1 UNK         0.0600 
    173 H173        6.3232  -18.2526  -45.6551 H         1 UNK         0.0600 
    174 H174        5.2616  -15.0158  -44.6146 H         1 UNK         0.3000 
    175 H175        2.7454  -13.5902  -42.6898 H         1 UNK         0.0600 
    176 H176        5.3664  -13.0340  -44.1887 H         1 UNK         0.0600 
    177 H177        4.6646  -12.0777  -42.8923 H         1 UNK         0.0600 
    178 H178        5.2508  -13.6964  -42.5592 H         1 UNK         0.0600 
    179 H179        1.8558  -12.2821  -44.2214 H         1 UNK         0.3000 
    180 H180        2.9128  -11.0168  -47.2796 H         1 UNK         0.0600 
    181 H181        0.4661  -11.3435  -47.9811 H         1 UNK         0.0600 
    182 H182        0.4511  -12.8172  -47.0142 H         1 UNK         0.0600 
    183 H183        1.5397  -12.6643  -48.3887 H         1 UNK         0.0600 
    184 H184        0.8094  -10.9565  -45.1522 H         1 UNK         0.3000 
    185 H185        1.5614   -8.5191  -43.6310 H         1 UNK         0.0600 
    186 H186        0.2900   -6.4324  -44.2449 H         1 UNK         0.0600 
    187 H187        1.8904   -6.4965  -44.9632 H         1 UNK         0.0600 
    188 H188        0.4794   -6.8370  -45.9509 H         1 UNK         0.0600 
    189 H189       -0.3818   -9.5549  -43.4524 H         1 UNK         0.3000 
    190 H190       -2.2268  -21.8648  -43.9642 H         1 UNK         0.3000 
    191 H191       -3.5303  -23.9464  -42.3180 H         1 UNK         0.0600 
    192 H192       -1.6115  -22.5958  -41.4175 H         1 UNK         0.0600 
    193 H193       -0.5552  -23.3425  -42.6159 H         1 UNK         0.0600 
    194 H194       -1.3389  -24.3313  -41.3993 H         1 UNK         0.0600 
    195 H195       -1.1783  -23.7859  -45.0761 H         1 UNK         0.3000 
    196 H196       -1.1609  -26.6971  -45.3138 H         1 UNK         0.0600 
    197 H197        0.8825  -25.2692  -45.7210 H         1 UNK         0.0600 
    198 H198        0.1270  -24.6576  -47.1908 H         1 UNK         0.0600 
    199 H199        0.4964  -26.3607  -47.0384 H         1 UNK         0.0600 
    200 H200       -2.6418  -23.9783  -47.0208 H         1 UNK         0.3000 
    201 H201       -4.3127  -23.7552  -48.4576 H         1 UNK         0.0600 
    202 H202       -5.6342  -25.0069  -46.7697 H         1 UNK         0.0600 
    203 H203       -5.2218  -26.5388  -47.5284 H         1 UNK         0.0600 
    204 H204       -6.2132  -25.3571  -48.3861 H         1 UNK         0.0600 
    205 H205       -5.0987  -26.7765  -49.6395 H         1 UNK         0.3000 
    206 H206       -4.3231  -26.2500  -52.2566 H         1 UNK         0.0600 
    207 H207       -4.9670  -28.9368  -50.9303 H         1 UNK         0.0600 
    208 H208       -6.1343  -27.8147  -51.6316 H         1 UNK         0.0600 
    209 H209       -4.9742  -28.6340  -52.6638 H         1 UNK         0.0600 
    210 H210       -2.3787  -27.7592  -49.7448 H         1 UNK         0.3000 
    211 H211       -0.4017  -28.9841  -51.4321 H         1 UNK         0.0600 
    212 H212       -0.2436  -28.0410  -48.5233 H         1 UNK         0.0600 
    213 H213        0.9079  -29.1057  -49.3177 H         1 UNK         0.0600 
    214 H214       -0.7454  -29.6419  -49.0612 H         1 UNK         0.0600 
    215 H215       -1.0089  -25.6402  -50.6109 H         1 UNK         0.3000 
    216 H216        1.7111  -24.7164  -51.2215 H         1 UNK         0.0600 
    217 H217        0.8030  -22.5205  -50.7151 H         1 UNK         0.0600 
    218 H218        0.2278  -23.6254  -49.4786 H         1 UNK         0.0600 
    219 H219       -0.8482  -23.1073  -50.7707 H         1 UNK         0.0600 
    220 H220       -0.8574  -25.8220  -53.0864 H         1 UNK         0.3000 
    221 H221       -1.4494  -25.7794  -55.2095 H         1 UNK         0.0600 
    222 H222        1.4798  -24.9635  -55.6444 H         1 UNK         0.0600 
    223 H223        0.8485  -26.5984  -55.5158 H         1 UNK         0.0600 
    224 H224        0.4045  -25.6013  -56.8880 H         1 UNK         0.0600 
    225 H225        0.6049  -23.2916  -56.4244 H         1 UNK         0.3000 
    226 H226       -1.5516  -21.6393  -57.2877 H         1 UNK         0.0600 
    227 H227        0.6055  -21.8102  -58.5032 H         1 UNK         0.0600 
    228 H228        0.2955  -20.1400  -58.0583 H         1 UNK         0.0600 
    229 H229        1.4614  -21.0860  -57.1408 H         1 UNK         0.0600 
    230 H230        0.2897  -21.6628  -54.2995 H         1 UNK         0.3000 
    231 H231       -0.6027  -18.9402  -53.5181 H         1 UNK         0.0600 
    232 H232        0.9744  -19.3011  -51.6147 H         1 UNK         0.0600 
    233 H233        1.7683  -19.4785  -53.1692 H         1 UNK         0.0600 
    234 H234        1.3536  -20.9053  -52.2297 H         1 UNK         0.0600 
    235 H235       -2.1962  -21.7805  -53.6005 H         1 UNK         0.3000 
    236 H236       -3.0369  -22.2238  -50.9230 H         1 UNK         0.0600 
    237 H237       -4.4458  -22.8682  -53.5699 H         1 UNK         0.0600 
    238 H238       -3.2861  -23.9024  -52.7355 H         1 UNK         0.0600 
    239 H239       -4.8451  -23.5631  -52.0038 H         1 UNK         0.0600 
    240 H240       -4.1452  -19.8825  -53.3061 H         1 UNK         0.3000 
    241 H241       -5.5768  -18.2276  -53.2868 H         1 UNK         0.0600 
    242 H242       -6.7180  -21.0615  -53.4731 H         1 UNK         0.3800 
    243 H243       -8.4247  -20.8003  -53.2283 H         1 UNK         0.3800 
    244 H244       -4.4506  -17.8804  -50.9173 H         1 UNK         0.0800 
    245 H245       -6.0072  -18.3180  -50.2775 H         1 UNK         0.0800 
    246 H246       -7.5822  -14.9036  -50.1368 H         1 UNK         0.0800 
    247 H247       -7.8530  -16.6178  -49.9425 H         1 UNK         0.0800 
@<TRIPOS>BOND
     1    1    2 1    
     2    1  127 1    
     3    1  128 1    
     4    1  129 1    
     5    2    3 2    
     6    2    4 am   BACKBONE|DICT|INTERRES
     7    4    5 1    
     8    4  130 1    
     9    5    6 1    
    10    5   65 1    
    11    5  131 1    
    12    6    7 1    
    13    6  132 1    
    14    6  133 1    
    15    7    8 1    
    16    8    9 1    
    17    8  134 1    
    18    8  135 1    
    19    9   10 ar   
    20    9   14 ar   
    21   10   11 ar   
    22   10  136 1    
    23   11   12 ar   
    24   11  126 1    
    25   12   13 ar   
    26   12  137 1    
    27   13   14 ar   
    28   13   15 1    
    29   14  138 1    
    30   15   16 1    
    31   15  139 1    
    32   15  140 1    
    33   16   17 1    
    34   17   18 1    
    35   17  141 1    
    36   17  142 1    
    37   18   19 1    
    38   18   67 1    
    39   18  143 1    
    40   19   20 am   BACKBONE|DICT|INTERRES
    41   19  144 1    
    42   20   21 2    
    43   20   22 1    
    44   22   23 1    
    45   22   24 1    
    46   22  145 1    
    47   23  146 1    
    48   23  147 1    
    49   23  148 1    
    50   24   25 am   BACKBONE|DICT|INTERRES
    51   24  149 1    
    52   25   26 2    
    53   25   27 1    
    54   27   28 1    
    55   27   29 1    
    56   27  150 1    
    57   28  151 1    
    58   28  152 1    
    59   28  153 1    
    60   29   30 am   BACKBONE|DICT|INTERRES
    61   29  154 1    
    62   30   31 2    
    63   30   32 1    
    64   32   33 1    
    65   32   34 1    
    66   32  155 1    
    67   33  156 1    
    68   33  157 1    
    69   33  158 1    
    70   34   35 am   BACKBONE|DICT|INTERRES
    71   34  159 1    
    72   35   36 2    
    73   35   37 1    
    74   37   38 1    
    75   37   39 1    
    76   37  160 1    
    77   38  161 1    
    78   38  162 1    
    79   38  163 1    
    80   39   40 am   BACKBONE|DICT|INTERRES
    81   39  164 1    
    82   40   41 2    
    83   40   42 1    
    84   42   43 1    
    85   42   44 1    
    86   42  165 1    
    87   43  166 1    
    88   43  167 1    
    89   43  168 1    
    90   44   45 am   BACKBONE|DICT|INTERRES
    91   44  169 1    
    92   45   46 2    
    93   45   47 1    
    94   47   48 1    
    95   47   49 1    
    96   47  170 1    
    97   48  171 1    
    98   48  172 1    
    99   48  173 1    
   100   49   50 am   BACKBONE|DICT|INTERRES
   101   49  174 1    
   102   50   51 2    
   103   50   52 1    
   104   52   53 1    
   105   52   54 1    
   106   52  175 1    
   107   53  176 1    
   108   53  177 1    
   109   53  178 1    
   110   54   55 am   BACKBONE|DICT|INTERRES
   111   54  179 1    
   112   55   56 2    
   113   55   57 1    
   114   57   58 1    
   115   57   59 1    
   116   57  180 1    
   117   58  181 1    
   118   58  182 1    
   119   58  183 1    
   120   59   60 am   BACKBONE|DICT|INTERRES
   121   59  184 1    
   122   60   61 2    
   123   60   62 1    
   124   62   63 1    
   125   62   64 1    
   126   62  185 1    
   127   63  186 1    
   128   63  187 1    
   129   63  188 1    
   130   64   65 am   BACKBONE|DICT|INTERRES
   131   64  189 1    
   132   65   66 2    
   133   67   68 2    
   134   67   69 am   BACKBONE|DICT|INTERRES
   135   69   70 1    
   136   69  190 1    
   137   70   71 1    
   138   70   72 1    
   139   70  191 1    
   140   71  192 1    
   141   71  193 1    
   142   71  194 1    
   143   72   73 2    
   144   72   74 am   BACKBONE|DICT|INTERRES
   145   74   75 1    
   146   74  195 1    
   147   75   76 1    
   148   75   77 1    
   149   75  196 1    
   150   76  197 1    
   151   76  198 1    
   152   76  199 1    
   153   77   78 2    
   154   77   79 am   BACKBONE|DICT|INTERRES
   155   79   80 1    
   156   79  200 1    
   157   80   81 1    
   158   80   82 1    
   159   80  201 1    
   160   81  202 1    
   161   81  203 1    
   162   81  204 1    
   163   82   83 2    
   164   82   84 am   BACKBONE|DICT|INTERRES
   165   84   85 1    
   166   84  205 1    
   167   85   86 1    
   168   85   87 1    
   169   85  206 1    
   170   86  207 1    
   171   86  208 1    
   172   86  209 1    
   173   87   88 2    
   174   87   89 am   BACKBONE|DICT|INTERRES
   175   89   90 1    
   176   89  210 1    
   177   90   91 1    
   178   90   92 1    
   179   90  211 1    
   180   91  212 1    
   181   91  213 1    
   182   91  214 1    
   183   92   93 2    
   184   92   94 am   BACKBONE|DICT|INTERRES
   185   94   95 1    
   186   94  215 1    
   187   95   96 1    
   188   95   97 1    
   189   95  216 1    
   190   96  217 1    
   191   96  218 1    
   192   96  219 1    
   193   97   98 2    
   194   97   99 am   BACKBONE|DICT|INTERRES
   195   99  100 1    
   196   99  220 1    
   197  100  101 1    
   198  100  102 1    
   199  100  221 1    
   200  101  222 1    
   201  101  223 1    
   202  101  224 1    
   203  102  103 2    
   204  102  104 am   BACKBONE|DICT|INTERRES
   205  104  105 1    
   206  104  225 1    
   207  105  106 1    
   208  105  107 1    
   209  105  226 1    
   210  106  227 1    
   211  106  228 1    
   212  106  229 1    
   213  107  108 2    
   214  107  109 am   BACKBONE|DICT|INTERRES
   215  109  110 1    
   216  109  230 1    
   217  110  111 1    
   218  110  112 1    
   219  110  231 1    
   220  111  232 1    
   221  111  233 1    
   222  111  234 1    
   223  112  113 2    
   224  112  114 am   BACKBONE|DICT|INTERRES
   225  114  115 1    
   226  114  235 1    
   227  115  116 1    
   228  115  117 1    
   229  115  236 1    
   230  116  237 1    
   231  116  238 1    
   232  116  239 1    
   233  117  118 2    
   234  117  119 am   BACKBONE|DICT|INTERRES
   235  119  120 1    
   236  119  240 1    
   237  120  121 1    
   238  120  124 1    
   239  120  241 1    
   240  121  122 am   BACKBONE|DICT|INTERRES
   241  121  123 2    
   242  122  242 1    
   243  122  243 1    
   244  124  125 1    
   245  124  244 1    
   246  124  245 1    
   247  125  126 1    
   248  126  246 1    
   249  126  247 1    
@<TRIPOS>SUBSTRUCTURE
     1 UNK         1 GROUP             0       ****    0 ROOT    
