@<TRIPOS>MOLECULE
3R540
247   249    1
SMALL
USER_CHARGES


@<TRIPOS>ATOM
      1 CA         -3.1601   -9.8909  -47.5181 C.3       0 UNK        -0.1800 
      2 C          -3.2015  -11.2952  -46.9184 C.2       0 UNK         0.5000 
      3 O          -3.8911  -11.5039  -45.9226 O.2       0 UNK        -0.5000 
      4 N          -2.4984  -12.2889  -47.4802 N.am      1 UNK        -0.5000 
      5 CA         -1.5881  -12.2090  -48.6319 C.3       1 UNK         0.1400 
      6 C6         -1.2593  -13.6135  -49.2072 C.3       23 UNK        -0.0398 
      7 S7         -0.6988  -14.8243  -47.9553 S.3       23 UNK        -0.2404 
      8 C8          1.1114  -14.7302  -48.1111 C.3       23 UNK        -0.0205 
      9 C9          1.6575  -15.7731  -49.0709 C.ar      23 UNK        -0.0193 
     10 C10         1.8258  -15.4804  -50.4278 C.ar      23 UNK        -0.1150 
     11 C11         2.3708  -16.4309  -51.2978 C.ar      23 UNK        -0.0193 
     12 C12         2.7601  -17.6762  -50.7914 C.ar      23 UNK        -0.1150 
     13 C13         2.5766  -17.9865  -49.4423 C.ar      23 UNK        -0.0193 
     14 C14         2.0275  -17.0294  -48.5878 C.ar      23 UNK        -0.1150 
     15 C15         2.9806  -19.3519  -48.9095 C.3       23 UNK        -0.0205 
     16 S16         1.8631  -20.6656  -49.4873 S.3       23 UNK        -0.2404 
     17 C17         0.2616  -20.2189  -48.7283 C.3       23 UNK        -0.0398 
     18 CA         -0.2975  -21.3946  -47.8898 C.3       11 UNK         0.1400 
     19 N           0.2620  -21.4301  -46.5342 N.am      11 UNK        -0.5000 
     20 C           0.3808  -22.5497  -45.8087 C.2       10 UNK         0.5000 
     21 O           0.0688  -23.6655  -46.2225 O.2       10 UNK        -0.5000 
     22 CA          0.9101  -22.4047  -44.3700 C.3       10 UNK         0.1400 
     23 CB          2.4451  -22.3476  -44.3533 C.3       10 UNK        -0.1800 
     24 N           0.3590  -21.2443  -43.6676 N.am      10 UNK        -0.5000 
     25 C          -0.9364  -21.0979  -43.3536 C.2       9 UNK         0.5000 
     26 O          -1.8011  -21.9321  -43.6217 O.2       9 UNK        -0.5000 
     27 CA         -1.3443  -19.7898  -42.6505 C.3       9 UNK         0.1400 
     28 CB         -1.0545  -19.8722  -41.1446 C.3       9 UNK        -0.1800 
     29 N          -0.6911  -18.6078  -43.2136 N.am      9 UNK        -0.5000 
     30 C          -0.8534  -18.1752  -44.4722 C.2       8 UNK         0.5000 
     31 O          -1.6042  -18.7078  -45.2859 O.2       8 UNK        -0.5000 
     32 CA          0.0273  -16.9990  -44.9268 C.3       8 UNK         0.1400 
     33 CB         -0.5136  -15.6602  -44.4043 C.3       8 UNK        -0.1800 
     34 N           1.4244  -17.1621  -44.5284 N.am      8 UNK        -0.5000 
     35 C           2.1971  -18.2002  -44.8783 C.2       7 UNK         0.5000 
     36 O           1.8226  -19.1182  -45.6073 O.2       7 UNK        -0.5000 
     37 CA          3.6076  -18.2403  -44.2738 C.3       7 UNK         0.1400 
     38 CB          4.5561  -17.3023  -45.0359 C.3       7 UNK        -0.1800 
     39 N           3.5866  -17.8901  -42.8540 N.am      7 UNK        -0.5000 
     40 C           3.0688  -18.6727  -41.8963 C.2       6 UNK         0.5000 
     41 O           2.6014  -19.7924  -42.1057 O.2       6 UNK        -0.5000 
     42 CA          3.0303  -18.0868  -40.4730 C.3       6 UNK         0.1400 
     43 CB          4.3958  -18.2360  -39.7857 C.3       6 UNK        -0.1800 
     44 N           2.6267  -16.6796  -40.4542 N.am      6 UNK        -0.5000 
     45 C           1.4090  -16.2392  -40.8003 C.2       5 UNK         0.5000 
     46 O           0.4886  -16.9786  -41.1452 O.2       5 UNK        -0.5000 
     47 CA          1.1902  -14.7151  -40.7979 C.3       5 UNK         0.1400 
     48 CB          0.7517  -14.2370  -39.4060 C.3       5 UNK        -0.1800 
     49 N           2.3535  -13.9366  -41.2298 N.am      5 UNK        -0.5000 
     50 C           2.9865  -14.0588  -42.4032 C.2       4 UNK         0.5000 
     51 O           2.6988  -14.9058  -43.2508 O.2       4 UNK        -0.5000 
     52 CA          4.1075  -13.0378  -42.6766 C.3       4 UNK         0.1400 
     53 CB          5.0860  -13.5263  -43.7596 C.3       4 UNK        -0.1800 
     54 N           3.5455  -11.7563  -43.0974 N.am      4 UNK        -0.5000 
     55 C           2.9059  -10.8782  -42.3114 C.2       3 UNK         0.5000 
     56 O           2.8028  -11.0088  -41.0906 O.2       3 UNK        -0.5000 
     57 CA          2.2742   -9.6489  -42.9992 C.3       3 UNK         0.1400 
     58 CB          3.1122   -8.3903  -42.7251 C.3       3 UNK        -0.1800 
     59 N           2.1182   -9.8074  -44.4492 N.am      3 UNK        -0.5000 
     60 C           1.2208  -10.6082  -45.0380 C.2       2 UNK         0.5000 
     61 O           0.3758  -11.2653  -44.4239 O.2       2 UNK        -0.5000 
     62 CA          1.3198  -10.7207  -46.5655 C.3       2 UNK         0.1400 
     63 CB          2.5908  -11.4954  -46.9703 C.3       2 UNK        -0.1800 
     64 N           0.1317  -11.4034  -47.0656 N.am      2 UNK        -0.5000 
     65 C          -0.2981  -11.4131  -48.3325 C.2       1 UNK         0.5000 
     66 O           0.2711  -10.8217  -49.2502 O.2       1 UNK        -0.5000 
     67 C          -1.8415  -21.4305  -47.8980 C.2       11 UNK         0.5000 
     68 O          -2.4104  -21.8630  -48.8990 O.2       11 UNK        -0.5000 
     69 N          -2.5025  -21.0047  -46.8108 N.am      12 UNK        -0.5000 
     70 CA         -3.9557  -21.1117  -46.6381 C.3       12 UNK         0.1400 
     71 CB         -4.4227  -20.1737  -45.5156 C.3       12 UNK        -0.1800 
     72 C          -4.4225  -22.5527  -46.3558 C.2       12 UNK         0.5000 
     73 O          -5.5537  -22.9008  -46.7019 O.2       12 UNK        -0.5000 
     74 N          -3.5516  -23.3644  -45.7409 N.am      13 UNK        -0.5000 
     75 CA         -3.7755  -24.7814  -45.4550 C.3       13 UNK         0.1400 
     76 CB         -2.6086  -25.3122  -44.6082 C.3       13 UNK        -0.1800 
     77 C          -3.9528  -25.6294  -46.7307 C.2       13 UNK         0.5000 
     78 O          -3.5401  -25.2183  -47.8186 O.2       13 UNK        -0.5000 
     79 N          -4.5778  -26.8041  -46.5640 N.am      14 UNK        -0.5000 
     80 CA         -4.9269  -27.7649  -47.6189 C.3       14 UNK         0.1400 
     81 CB         -3.6578  -28.4111  -48.2146 C.3       14 UNK        -0.1800 
     82 C          -5.8509  -27.1482  -48.6906 C.2       14 UNK         0.5000 
     83 O          -5.6416  -27.3622  -49.8855 O.2       14 UNK        -0.5000 
     84 N          -6.8383  -26.3647  -48.2278 N.am      15 UNK        -0.5000 
     85 CA         -7.8142  -25.6083  -49.0192 C.3       15 UNK         0.1400 
     86 CB         -8.7940  -26.5660  -49.7300 C.3       15 UNK        -0.1800 
     87 C          -7.1295  -24.6229  -49.9865 C.2       15 UNK         0.5000 
     88 O          -7.3216  -24.7137  -51.1993 O.2       15 UNK        -0.5000 
     89 N          -6.3049  -23.7262  -49.4265 N.am      16 UNK        -0.5000 
     90 CA         -5.4817  -22.7379  -50.1307 C.3       16 UNK         0.1400 
     91 CB         -6.3646  -21.6681  -50.8058 C.3       16 UNK        -0.1800 
     92 C          -4.4704  -23.3907  -51.0949 C.2       16 UNK         0.5000 
     93 O          -4.3431  -22.9570  -52.2425 O.2       16 UNK        -0.5000 
     94 N          -3.7970  -24.4459  -50.6117 N.am      17 UNK        -0.5000 
     95 CA         -2.8417  -25.2890  -51.3335 C.3       17 UNK         0.1400 
     96 CB         -1.5427  -24.5051  -51.6145 C.3       17 UNK        -0.1800 
     97 C          -3.4647  -25.9171  -52.5980 C.2       17 UNK         0.5000 
     98 O          -2.9394  -25.7471  -53.6988 O.2       17 UNK        -0.5000 
     99 N          -4.6026  -26.6012  -52.4089 N.am      18 UNK        -0.5000 
    100 CA        -5.4538  -27.2106  -53.4355 C.3       18 UNK         0.1400 
    101 CB        -4.7320  -28.3898  -54.1209 C.3       18 UNK        -0.1800 
    102 C         -6.0115  -26.1703  -54.4302 C.2       18 UNK         0.5000 
    103 O         -5.9435  -26.3672  -55.6450 O.2       18 UNK        -0.5000 
    104 N         -6.5487  -25.0740  -53.8764 N.am      19 UNK        -0.5000 
    105 CA        -7.1636  -23.9275  -54.5515 C.3       19 UNK         0.1400 
    106 CB        -8.4536  -24.3541  -55.2827 C.3       19 UNK        -0.1800 
    107 C         -6.2024  -23.1232  -55.4533 C.2       19 UNK         0.5000 
    108 O         -6.6609  -22.4269  -56.3612 O.2       19 UNK        -0.5000 
    109 N         -4.8923  -23.2102  -55.1882 N.am      20 UNK        -0.5000 
    110 CA        -3.8614  -22.4426  -55.8834 C.3       20 UNK         0.1400 
    111 CB        -2.4981  -23.1254  -55.7015 C.3       20 UNK        -0.1800 
    112 C         -3.8085  -20.9887  -55.3879 C.2       20 UNK         0.5000 
    113 O         -3.7011  -20.0737  -56.2054 O.2       20 UNK        -0.5000 
    114 N         -3.8721  -20.8085  -54.0582 N.am      21 UNK        -0.5000 
    115 CA        -3.9025  -19.5361  -53.3214 C.3       21 UNK         0.1400 
    116 CB        -5.2761  -18.8619  -53.5147 C.3       21 UNK        -0.1800 
    117 C         -2.7318  -18.5706  -53.6290 C.2       21 UNK         0.5000 
    118 O         -2.8702  -17.3615  -53.4363 O.2       21 UNK        -0.5000 
    119 N         -1.6081  -19.1148  -54.1165 N.am      22 UNK        -0.5000 
    120 CA        -0.4615  -18.3773  -54.6748 C.3       22 UNK         0.1400 
    121 C         -0.7728  -17.6079  -56.0012 C.2       22 UNK         0.5000 
    122 N         -1.8293  -17.9452  -56.7321 N.am      22 UNK        -0.7600 
    123 O         -0.0403  -16.7052  -56.3965 O.2       22 UNK        -0.5000 
    124 C124        0.2732  -17.5134  -53.6079 C.3       23 UNK        -0.0398 
    125 S125        2.0726  -17.4317  -53.9044 S.3       23 UNK        -0.2404 
    126 C126        2.5661  -16.0896  -52.7718 C.3       23 UNK        -0.0205 
    127 H127       -2.2056   -9.4094  -47.3071 H         1 UNK         0.0600 
    128 H128       -3.9463   -9.2714  -47.0861 H         1 UNK         0.0600 
    129 H129       -3.3167   -9.9101  -48.5961 H         1 UNK         0.0600 
    130 H130       -2.5512  -13.2067  -47.0610 H         1 UNK         0.3000 
    131 H131       -2.1066  -11.6657  -49.4236 H         1 UNK         0.0600 
    132 H132       -2.1598  -14.0251  -49.6647 H         1 UNK         0.0800 
    133 H133       -0.5333  -13.5482  -50.0190 H         1 UNK         0.0800 
    134 H134        1.4176  -13.7357  -48.4329 H         1 UNK         0.0800 
    135 H135        1.5513  -14.8742  -47.1228 H         1 UNK         0.0800 
    136 H136        1.5442  -14.5072  -50.8038 H         1 UNK         0.1150 
    137 H137        3.1945  -18.4151  -51.4499 H         1 UNK         0.1150 
    138 H138        1.8926  -17.2585  -47.5425 H         1 UNK         0.1150 
    139 H139        3.9924  -19.5800  -49.2471 H         1 UNK         0.0800 
    140 H140        3.0193  -19.3577  -47.8215 H         1 UNK         0.0800 
    141 H141       -0.4064  -19.9596  -49.5521 H         1 UNK         0.0800 
    142 H142        0.3521  -19.3183  -48.1196 H         1 UNK         0.0800 
    143 H143       -0.0058  -22.3192  -48.3940 H         1 UNK         0.0600 
    144 H144        0.5997  -20.5535  -46.1457 H         1 UNK         0.3000 
    145 H145        0.6042  -23.2962  -43.8184 H         1 UNK         0.0600 
    146 H146        2.8277  -22.3186  -43.3331 H         1 UNK         0.0600 
    147 H147        2.8723  -23.2275  -44.8357 H         1 UNK         0.0600 
    148 H148        2.8242  -21.4714  -44.8784 H         1 UNK         0.0600 
    149 H149        1.0166  -20.5244  -43.3918 H         1 UNK         0.3000 
    150 H150       -2.4211  -19.6658  -42.7800 H         1 UNK         0.0600 
    151 H151       -1.5343  -20.7451  -40.7003 H         1 UNK         0.0600 
    152 H152       -1.4325  -18.9928  -40.6228 H         1 UNK         0.0600 
    153 H153        0.0149  -19.9454  -40.9438 H         1 UNK         0.0600 
    154 H154       -0.0825  -18.0859  -42.5884 H         1 UNK         0.3000 
    155 H155        0.0021  -16.9744  -46.0171 H         1 UNK         0.0600 
    156 H156       -1.5226  -15.4793  -44.7763 H         1 UNK         0.0600 
    157 H157        0.1081  -14.8260  -44.7309 H         1 UNK         0.0600 
    158 H158       -0.5583  -15.6409  -43.3165 H         1 UNK         0.0600 
    159 H159        1.8273  -16.4267  -43.9529 H         1 UNK         0.3000 
    160 H160        3.9882  -19.2592  -44.3714 H         1 UNK         0.0600 
    161 H161        4.2226  -16.2653  -44.9960 H         1 UNK         0.0600 
    162 H162        4.6160  -17.5838  -46.0882 H         1 UNK         0.0600 
    163 H163        5.5664  -17.3461  -44.6291 H         1 UNK         0.0600 
    164 H164        3.8829  -16.9558  -42.6123 H         1 UNK         0.3000 
    165 H165        2.2961  -18.6570  -39.8996 H         1 UNK         0.0600 
    166 H166        4.3547  -17.8978  -38.7502 H         1 UNK         0.0600 
    167 H167        4.7136  -19.2795  -39.7732 H         1 UNK         0.0600 
    168 H168        5.1707  -17.6628  -40.2960 H         1 UNK         0.0600 
    169 H169        3.3252  -16.0028  -40.1844 H         1 UNK         0.3000 
    170 H170        0.3817  -14.4984  -41.4976 H         1 UNK         0.0600 
    171 H171       -0.1311  -14.7803  -39.0660 H         1 UNK         0.0600 
    172 H172        1.5364  -14.3862  -38.6633 H         1 UNK         0.0600 
    173 H173        0.4956  -13.1773  -39.4158 H         1 UNK         0.0600 
    174 H174        2.6146  -13.1557  -40.6400 H         1 UNK         0.3000 
    175 H175        4.6713  -12.8936  -41.7526 H         1 UNK         0.0600 
    176 H176        4.5935  -13.6525  -44.7248 H         1 UNK         0.0600 
    177 H177        5.9078  -12.8228  -43.8936 H         1 UNK         0.0600 
    178 H178        5.5236  -14.4871  -43.4856 H         1 UNK         0.0600 
    179 H179        3.5659  -11.5678  -44.0875 H         1 UNK         0.3000 
    180 H180        1.2850   -9.5031  -42.5600 H         1 UNK         0.0600 
    181 H181        4.1139   -8.4732  -43.1487 H         1 UNK         0.0600 
    182 H182        3.2224   -8.2193  -41.6534 H         1 UNK         0.0600 
    183 H183        2.6406   -7.5024  -43.1466 H         1 UNK         0.0600 
    184 H184        2.7720   -9.2966  -45.0257 H         1 UNK         0.3000 
    185 H185        1.3519   -9.7120  -46.9823 H         1 UNK         0.0600 
    186 H186        3.4919  -10.9861  -46.6276 H         1 UNK         0.0600 
    187 H187        2.6003  -12.4996  -46.5445 H         1 UNK         0.0600 
    188 H188        2.6752  -11.5893  -48.0529 H         1 UNK         0.0600 
    189 H189       -0.4073  -11.8737  -46.3480 H         1 UNK         0.3000 
    190 H190       -1.9872  -20.5618  -46.0580 H         1 UNK         0.3000 
    191 H191       -4.4365  -20.7828  -47.5610 H         1 UNK         0.0600 
    192 H192       -4.2025  -19.1334  -45.7539 H         1 UNK         0.0600 
    193 H193       -5.5007  -20.2479  -45.3666 H         1 UNK         0.0600 
    194 H194       -3.9436  -20.4125  -44.5663 H         1 UNK         0.0600 
    195 H195       -2.6553  -22.9843  -45.4663 H         1 UNK         0.3000 
    196 H196       -4.6924  -24.8537  -44.8669 H         1 UNK         0.0600 
    197 H197       -2.7930  -26.3366  -44.2829 H         1 UNK         0.0600 
    198 H198       -2.4618  -24.7095  -43.7116 H         1 UNK         0.0600 
    199 H199       -1.6743  -25.3132  -45.1690 H         1 UNK         0.0600 
    200 H200       -4.8756  -27.0594  -45.6324 H         1 UNK         0.3000 
    201 H201       -5.5044  -28.5570  -47.1403 H         1 UNK         0.0600 
    202 H202       -3.0395  -28.8551  -47.4346 H         1 UNK         0.0600 
    203 H203       -3.0465  -27.6879  -48.7545 H         1 UNK         0.0600 
    204 H204       -3.9162  -29.2064  -48.9148 H         1 UNK         0.0600 
    205 H205       -6.8989  -26.2360  -47.2277 H         1 UNK         0.3000 
    206 H206       -8.3918  -25.0051  -48.3171 H         1 UNK         0.0600 
    207 H207       -9.2888  -27.2243  -49.0161 H         1 UNK         0.0600 
    208 H208       -9.5728  -26.0086  -50.2517 H         1 UNK         0.0600 
    209 H209       -8.2908  -27.1910  -50.4686 H         1 UNK         0.0600 
    210 H210       -6.1868  -23.7310  -48.4178 H         1 UNK         0.3000 
    211 H211       -4.8945  -22.2340  -49.3672 H         1 UNK         0.0600 
    212 H212       -6.9381  -22.0762  -51.6378 H         1 UNK         0.0600 
    213 H213       -5.7542  -20.8549  -51.1967 H         1 UNK         0.0600 
    214 H214       -7.0666  -21.2314  -50.0957 H         1 UNK         0.0600 
    215 H215       -3.9369  -24.6991  -49.6367 H         1 UNK         0.3000 
    216 H216       -2.5922  -26.1148  -50.6662 H         1 UNK         0.0600 
    217 H217       -0.7924  -25.1454  -52.0793 H         1 UNK         0.0600 
    218 H218       -1.1132  -24.1164  -50.6908 H         1 UNK         0.0600 
    219 H219       -1.7128  -23.6605  -52.2823 H         1 UNK         0.0600 
    220 H220       -4.9544  -26.6977  -51.4574 H         1 UNK         0.3000 
    221 H221       -6.3168  -27.6183  -52.9070 H         1 UNK         0.0600 
    222 H222       -3.8764  -28.0576  -54.7095 H         1 UNK         0.0600 
    223 H223       -4.3746  -29.1121  -53.3871 H         1 UNK         0.0600 
    224 H224       -5.4058  -28.9192  -54.7954 H         1 UNK         0.0600 
    225 H225       -6.5861  -25.0219  -52.8597 H         1 UNK         0.3000 
    226 H226       -7.4555  -23.2433  -53.7542 H         1 UNK         0.0600 
    227 H227       -9.1213  -24.9001  -54.6161 H         1 UNK         0.0600 
    228 H228       -9.0035  -23.4863  -55.6484 H         1 UNK         0.0600 
    229 H229       -8.2405  -24.9912  -56.1414 H         1 UNK         0.0600 
    230 H230       -4.5949  -23.7667  -54.3963 H         1 UNK         0.3000 
    231 H231       -4.0909  -22.4288  -56.9511 H         1 UNK         0.0600 
    232 H232       -2.2111  -23.1807  -54.6510 H         1 UNK         0.0600 
    233 H233       -1.7140  -22.5817  -56.2300 H         1 UNK         0.0600 
    234 H234       -2.5126  -24.1418  -56.0956 H         1 UNK         0.0600 
    235 H235       -3.9689  -21.6396  -53.4760 H         1 UNK         0.3000 
    236 H236       -3.8037  -19.7970  -52.2670 H         1 UNK         0.0600 
    237 H237       -6.0905  -19.5512  -53.2920 H         1 UNK         0.0600 
    238 H238       -5.3909  -18.0024  -52.8534 H         1 UNK         0.0600 
    239 H239       -5.4087  -18.5096  -54.5382 H         1 UNK         0.0600 
    240 H240       -1.5884  -20.1161  -54.2408 H         1 UNK         0.3000 
    241 H241        0.2237  -19.1683  -54.9814 H         1 UNK         0.0600 
    242 H242       -2.0129  -17.4460  -57.5877 H         1 UNK         0.3800 
    243 H243       -2.4577  -18.6934  -56.4483 H         1 UNK         0.3800 
    244 H244       -0.1459  -16.5070  -53.5592 H         1 UNK         0.0800 
    245 H245        0.1363  -17.9437  -52.6146 H         1 UNK         0.0800 
    246 H246        3.6203  -15.8642  -52.9366 H         1 UNK         0.0800 
    247 H247        2.0125  -15.1875  -53.0372 H         1 UNK         0.0800 
@<TRIPOS>BOND
     1    1    2 1    
     2    1  127 1    
     3    1  128 1    
     4    1  129 1    
     5    2    3 2    
     6    2    4 am   BACKBONE|DICT|INTERRES
     7    4    5 1    
     8    4  130 1    
     9    5    6 1    
    10    5   65 1    
    11    5  131 1    
    12    6    7 1    
    13    6  132 1    
    14    6  133 1    
    15    7    8 1    
    16    8    9 1    
    17    8  134 1    
    18    8  135 1    
    19    9   10 ar   
    20    9   14 ar   
    21   10   11 ar   
    22   10  136 1    
    23   11   12 ar   
    24   11  126 1    
    25   12   13 ar   
    26   12  137 1    
    27   13   14 ar   
    28   13   15 1    
    29   14  138 1    
    30   15   16 1    
    31   15  139 1    
    32   15  140 1    
    33   16   17 1    
    34   17   18 1    
    35   17  141 1    
    36   17  142 1    
    37   18   19 1    
    38   18   67 1    
    39   18  143 1    
    40   19   20 am   BACKBONE|DICT|INTERRES
    41   19  144 1    
    42   20   21 2    
    43   20   22 1    
    44   22   23 1    
    45   22   24 1    
    46   22  145 1    
    47   23  146 1    
    48   23  147 1    
    49   23  148 1    
    50   24   25 am   BACKBONE|DICT|INTERRES
    51   24  149 1    
    52   25   26 2    
    53   25   27 1    
    54   27   28 1    
    55   27   29 1    
    56   27  150 1    
    57   28  151 1    
    58   28  152 1    
    59   28  153 1    
    60   29   30 am   BACKBONE|DICT|INTERRES
    61   29  154 1    
    62   30   31 2    
    63   30   32 1    
    64   32   33 1    
    65   32   34 1    
    66   32  155 1    
    67   33  156 1    
    68   33  157 1    
    69   33  158 1    
    70   34   35 am   BACKBONE|DICT|INTERRES
    71   34  159 1    
    72   35   36 2    
    73   35   37 1    
    74   37   38 1    
    75   37   39 1    
    76   37  160 1    
    77   38  161 1    
    78   38  162 1    
    79   38  163 1    
    80   39   40 am   BACKBONE|DICT|INTERRES
    81   39  164 1    
    82   40   41 2    
    83   40   42 1    
    84   42   43 1    
    85   42   44 1    
    86   42  165 1    
    87   43  166 1    
    88   43  167 1    
    89   43  168 1    
    90   44   45 am   BACKBONE|DICT|INTERRES
    91   44  169 1    
    92   45   46 2    
    93   45   47 1    
    94   47   48 1    
    95   47   49 1    
    96   47  170 1    
    97   48  171 1    
    98   48  172 1    
    99   48  173 1    
   100   49   50 am   BACKBONE|DICT|INTERRES
   101   49  174 1    
   102   50   51 2    
   103   50   52 1    
   104   52   53 1    
   105   52   54 1    
   106   52  175 1    
   107   53  176 1    
   108   53  177 1    
   109   53  178 1    
   110   54   55 am   BACKBONE|DICT|INTERRES
   111   54  179 1    
   112   55   56 2    
   113   55   57 1    
   114   57   58 1    
   115   57   59 1    
   116   57  180 1    
   117   58  181 1    
   118   58  182 1    
   119   58  183 1    
   120   59   60 am   BACKBONE|DICT|INTERRES
   121   59  184 1    
   122   60   61 2    
   123   60   62 1    
   124   62   63 1    
   125   62   64 1    
   126   62  185 1    
   127   63  186 1    
   128   63  187 1    
   129   63  188 1    
   130   64   65 am   BACKBONE|DICT|INTERRES
   131   64  189 1    
   132   65   66 2    
   133   67   68 2    
   134   67   69 am   BACKBONE|DICT|INTERRES
   135   69   70 1    
   136   69  190 1    
   137   70   71 1    
   138   70   72 1    
   139   70  191 1    
   140   71  192 1    
   141   71  193 1    
   142   71  194 1    
   143   72   73 2    
   144   72   74 am   BACKBONE|DICT|INTERRES
   145   74   75 1    
   146   74  195 1    
   147   75   76 1    
   148   75   77 1    
   149   75  196 1    
   150   76  197 1    
   151   76  198 1    
   152   76  199 1    
   153   77   78 2    
   154   77   79 am   BACKBONE|DICT|INTERRES
   155   79   80 1    
   156   79  200 1    
   157   80   81 1    
   158   80   82 1    
   159   80  201 1    
   160   81  202 1    
   161   81  203 1    
   162   81  204 1    
   163   82   83 2    
   164   82   84 am   BACKBONE|DICT|INTERRES
   165   84   85 1    
   166   84  205 1    
   167   85   86 1    
   168   85   87 1    
   169   85  206 1    
   170   86  207 1    
   171   86  208 1    
   172   86  209 1    
   173   87   88 2    
   174   87   89 am   BACKBONE|DICT|INTERRES
   175   89   90 1    
   176   89  210 1    
   177   90   91 1    
   178   90   92 1    
   179   90  211 1    
   180   91  212 1    
   181   91  213 1    
   182   91  214 1    
   183   92   93 2    
   184   92   94 am   BACKBONE|DICT|INTERRES
   185   94   95 1    
   186   94  215 1    
   187   95   96 1    
   188   95   97 1    
   189   95  216 1    
   190   96  217 1    
   191   96  218 1    
   192   96  219 1    
   193   97   98 2    
   194   97   99 am   BACKBONE|DICT|INTERRES
   195   99  100 1    
   196   99  220 1    
   197  100  101 1    
   198  100  102 1    
   199  100  221 1    
   200  101  222 1    
   201  101  223 1    
   202  101  224 1    
   203  102  103 2    
   204  102  104 am   BACKBONE|DICT|INTERRES
   205  104  105 1    
   206  104  225 1    
   207  105  106 1    
   208  105  107 1    
   209  105  226 1    
   210  106  227 1    
   211  106  228 1    
   212  106  229 1    
   213  107  108 2    
   214  107  109 am   BACKBONE|DICT|INTERRES
   215  109  110 1    
   216  109  230 1    
   217  110  111 1    
   218  110  112 1    
   219  110  231 1    
   220  111  232 1    
   221  111  233 1    
   222  111  234 1    
   223  112  113 2    
   224  112  114 am   BACKBONE|DICT|INTERRES
   225  114  115 1    
   226  114  235 1    
   227  115  116 1    
   228  115  117 1    
   229  115  236 1    
   230  116  237 1    
   231  116  238 1    
   232  116  239 1    
   233  117  118 2    
   234  117  119 am   BACKBONE|DICT|INTERRES
   235  119  120 1    
   236  119  240 1    
   237  120  121 1    
   238  120  124 1    
   239  120  241 1    
   240  121  122 am   BACKBONE|DICT|INTERRES
   241  121  123 2    
   242  122  242 1    
   243  122  243 1    
   244  124  125 1    
   245  124  244 1    
   246  124  245 1    
   247  125  126 1    
   248  126  246 1    
   249  126  247 1    
@<TRIPOS>SUBSTRUCTURE
     1 UNK         1 GROUP             0       ****    0 ROOT    
