@<TRIPOS>MOLECULE
3R540
247   249    1
SMALL
USER_CHARGES


@<TRIPOS>ATOM
      1 CA          4.0296  -14.8176  -45.6049 C.3       0 UNK        -0.1800 
      2 C           2.5916  -14.3276  -45.6396 C.2       0 UNK         0.5000 
      3 O           2.1142  -13.7421  -44.6675 O.2       0 UNK        -0.5000 
      4 N           1.9070  -14.5579  -46.7678 N.am      1 UNK        -0.5000 
      5 CA          0.5136  -14.1664  -47.0204 C.3       1 UNK         0.1400 
      6 C6         -0.0114  -14.7937  -48.3351 C.3       23 UNK        -0.0398 
      7 S7         -1.8348  -14.8154  -48.4528 S.3       23 UNK        -0.2404 
      8 C8         -2.2107  -16.6039  -48.4540 C.3       23 UNK        -0.0205 
      9 C9         -1.5969  -17.3888  -49.6142 C.ar      23 UNK        -0.0193 
     10 C10        -1.4183  -16.8210  -50.8830 C.ar      23 UNK        -0.1150 
     11 C11        -0.8150  -17.5468  -51.9149 C.ar      23 UNK        -0.0193 
     12 C12        -0.4050  -18.8605  -51.6751 C.ar      23 UNK        -0.1150 
     13 C13        -0.6252  -19.4593  -50.4339 C.ar      23 UNK        -0.0193 
     14 C14        -1.2185  -18.7189  -49.4074 C.ar      23 UNK        -0.1150 
     15 C15        -0.2676  -20.9213  -50.2309 C.3       23 UNK        -0.0205 
     16 S16         1.4198  -21.1536  -49.5866 S.3       23 UNK        -0.2404 
     17 C17         1.1755  -20.9928  -47.7842 C.3       23 UNK        -0.0398 
     18 CA          0.9124  -22.3527  -47.0886 C.3       11 UNK         0.1400 
     19 N           1.2396  -22.3239  -45.6626 N.am      11 UNK        -0.5000 
     20 C           1.3129  -23.4095  -44.8776 C.2       10 UNK         0.5000 
     21 O           1.2115  -24.5637  -45.2934 O.2       10 UNK        -0.5000 
     22 CA          1.4766  -23.1626  -43.3659 C.3       10 UNK         0.1400 
     23 CB          2.9500  -22.9229  -43.0068 C.3       10 UNK        -0.1800 
     24 N           0.6636  -22.0412  -42.8916 N.am      10 UNK        -0.5000 
     25 C          -0.6764  -22.0043  -42.9363 C.2       9 UNK         0.5000 
     26 O          -1.3753  -22.9415  -43.3228 O.2       9 UNK        -0.5000 
     27 CA         -1.3428  -20.6779  -42.5320 C.3       9 UNK         0.1400 
     28 CB         -1.4958  -20.5778  -41.0069 C.3       9 UNK        -0.1800 
     29 N          -0.6081  -19.5158  -43.0321 N.am      9 UNK        -0.5000 
     30 C          -0.4963  -19.1820  -44.3261 C.2       8 UNK         0.5000 
     31 O          -1.0190  -19.8062  -45.2475 O.2       8 UNK        -0.5000 
     32 CA          0.3931  -17.9704  -44.6434 C.3       8 UNK         0.1400 
     33 CB         -0.3662  -16.6671  -44.3512 C.3       8 UNK        -0.1800 
     34 N           1.6383  -18.0078  -43.8746 N.am      8 UNK        -0.5000 
     35 C           2.6066  -18.9204  -44.0561 C.2       7 UNK         0.5000 
     36 O           2.5641  -19.7847  -44.9306 O.2       7 UNK        -0.5000 
     37 CA          3.8014  -18.9046  -43.0803 C.3       7 UNK         0.1400 
     38 CB          4.9494  -18.0570  -43.6463 C.3       7 UNK        -0.1800 
     39 N           3.4606  -18.4114  -41.7473 N.am      7 UNK        -0.5000 
     40 C           2.5612  -18.9628  -40.9202 C.2       6 UNK         0.5000 
     41 O           1.9867  -20.0268  -41.1522 O.2       6 UNK        -0.5000 
     42 CA          2.1945  -18.1503  -39.6593 C.3       6 UNK         0.1400 
     43 CB          2.9865  -18.6571  -38.4454 C.3       6 UNK        -0.1800 
     44 N           2.4077  -16.7024  -39.8072 N.am      6 UNK        -0.5000 
     45 C           1.8096  -15.9325  -40.7279 C.2       5 UNK         0.5000 
     46 O           0.9795  -16.3662  -41.5287 O.2       5 UNK        -0.5000 
     47 CA          2.2857  -14.4715  -40.8188 C.3       5 UNK         0.1400 
     48 CB          3.7370  -14.4083  -41.3243 C.3       5 UNK        -0.1800 
     49 N           1.4583  -13.6900  -41.7344 N.am      5 UNK        -0.5000 
     50 C           0.2671  -13.1547  -41.4394 C.2       4 UNK         0.5000 
     51 O          -0.2714  -13.2497  -40.3344 O.2       4 UNK        -0.5000 
     52 CA         -0.4067  -12.3553  -42.5771 C.3       4 UNK         0.1400 
     53 CB         -1.5695  -11.4622  -42.0976 C.3       4 UNK        -0.1800 
     54 N           0.5698  -11.5849  -43.3556 N.am      4 UNK        -0.5000 
     55 C           1.3830  -10.6112  -42.9166 C.2       3 UNK         0.5000 
     56 O           1.3126  -10.1043  -41.7965 O.2       3 UNK        -0.5000 
     57 CA          2.4961  -10.1496  -43.8771 C.3       3 UNK         0.1400 
     58 CB          3.8444  -10.7542  -43.4519 C.3       3 UNK        -0.1800 
     59 N           2.2373  -10.5284  -45.2666 N.am      3 UNK        -0.5000 
     60 C           1.5069   -9.8110  -46.1302 C.2       2 UNK         0.5000 
     61 O           1.0035   -8.7198  -45.8611 O.2       2 UNK        -0.5000 
     62 CA          1.2973  -10.4210  -47.5304 C.3       2 UNK         0.1400 
     63 CB          2.3845   -9.9308  -48.4988 C.3       2 UNK        -0.1800 
     64 N           1.2864  -11.8867  -47.5257 N.am      2 UNK        -0.5000 
     65 C           0.3142  -12.6352  -46.9842 C.2       1 UNK         0.5000 
     66 O          -0.6776  -12.1632  -46.4281 O.2       1 UNK        -0.5000 
     67 C          -0.5319  -22.8444  -47.3133 C.2       11 UNK         0.5000 
     68 O          -0.7322  -23.7738  -48.0938 O.2       11 UNK        -0.5000 
     69 N          -1.5019  -22.2414  -46.6066 N.am      12 UNK        -0.5000 
     70 CA         -2.9366  -22.5370  -46.7022 C.3       12 UNK         0.1400 
     71 CB         -3.7235  -21.6091  -45.7662 C.3       12 UNK        -0.1800 
     72 C          -3.2992  -24.0095  -46.4318 C.2       12 UNK         0.5000 
     73 O          -4.2403  -24.5244  -47.0356 O.2       12 UNK        -0.5000 
     74 N          -2.5307  -24.6648  -45.5523 N.am      13 UNK        -0.5000 
     75 CA         -2.6295  -26.0934  -45.2590 C.3       13 UNK         0.1400 
     76 CB         -1.8009  -26.3998  -44.0021 C.3       13 UNK        -0.1800 
     77 C          -2.1910  -26.9983  -46.4301 C.2       13 UNK         0.5000 
     78 O          -2.6714  -28.1290  -46.5209 O.2       13 UNK        -0.5000 
     79 N          -1.2945  -26.5041  -47.2955 N.am      14 UNK        -0.5000 
     80 CA         -0.7996  -27.2139  -48.4747 C.3       14 UNK         0.1400 
     81 CB          0.6701  -26.8367  -48.7226 C.3       14 UNK        -0.1800 
     82 C          -1.6608  -26.9152  -49.7139 C.2       14 UNK         0.5000 
     83 O          -2.0135  -27.8435  -50.4428 O.2       14 UNK        -0.5000 
     84 N          -1.9965  -25.6375  -49.9244 N.am      15 UNK        -0.5000 
     85 CA         -2.8461  -25.1546  -51.0076 C.3       15 UNK         0.1400 
     86 CB         -1.9883  -24.8190  -52.2404 C.3       15 UNK        -0.1800 
     87 C          -3.5910  -23.9198  -50.4952 C.2       15 UNK         0.5000 
     88 O          -2.9400  -22.9673  -50.0695 O.2       15 UNK        -0.5000 
     89 N          -4.9285  -23.9553  -50.5300 N.am      16 UNK        -0.5000 
     90 CA         -5.8495  -22.9695  -49.9512 C.3       16 UNK         0.1400 
     91 CB         -7.2534  -23.5995  -49.8953 C.3       16 UNK        -0.1800 
     92 C          -5.8562  -21.5836  -50.6412 C.2       16 UNK         0.5000 
     93 O          -6.9143  -21.1011  -51.0489 O.2       16 UNK        -0.5000 
     94 N          -4.6776  -20.9571  -50.7373 N.am      17 UNK        -0.5000 
     95 CA         -4.4142  -19.6153  -51.2603 C.3       17 UNK         0.1400 
     96 CB         -4.9348  -18.5535  -50.2673 C.3       17 UNK        -0.1800 
     97 C          -4.9295  -19.4347  -52.7024 C.2       17 UNK         0.5000 
     98 O          -4.7842  -20.3508  -53.5142 O.2       17 UNK        -0.5000 
     99 N          -5.5288  -18.2757  -53.0052 N.am      18 UNK        -0.5000 
    100 CA        -6.0520  -17.9101  -54.3237 C.3       18 UNK         0.1400 
    101 CB        -6.5505  -16.4586  -54.2798 C.3       18 UNK        -0.1800 
    102 C         -7.1574  -18.8467  -54.8515 C.2       18 UNK         0.5000 
    103 O         -7.2772  -19.0041  -56.0665 O.2       18 UNK        -0.5000 
    104 N         -7.9070  -19.4961  -53.9477 N.am      19 UNK        -0.5000 
    105 CA        -8.9137  -20.5087  -54.2847 C.3       19 UNK         0.1400 
    106 CB        -9.7979  -20.7821  -53.0587 C.3       19 UNK        -0.1800 
    107 C         -8.2990  -21.8185  -54.8221 C.2       19 UNK         0.5000 
    108 O         -8.9789  -22.5549  -55.5372 O.2       19 UNK        -0.5000 
    109 N         -7.0222  -22.0639  -54.5012 N.am      20 UNK        -0.5000 
    110 CA        -6.1992  -23.1530  -55.0264 C.3       20 UNK         0.1400 
    111 CB        -5.5237  -23.8613  -53.8415 C.3       20 UNK        -0.1800 
    112 C         -5.1552  -22.6264  -56.0338 C.2       20 UNK         0.5000 
    113 O         -4.1700  -23.3166  -56.3029 O.2       20 UNK        -0.5000 
    114 N         -5.3587  -21.3992  -56.5428 N.am      21 UNK        -0.5000 
    115 CA        -4.4934  -20.6578  -57.4690 C.3       21 UNK         0.1400 
    116 CB        -4.5290  -21.3077  -58.8675 C.3       21 UNK        -0.1800 
    117 C         -3.0551  -20.4506  -56.9429 C.2       21 UNK         0.5000 
    118 O         -2.1159  -20.3806  -57.7375 O.2       21 UNK        -0.5000 
    119 N         -2.9117  -20.3783  -55.6121 N.am      22 UNK        -0.5000 
    120 CA        -1.6467  -20.3253  -54.8624 C.3       22 UNK         0.1400 
    121 C         -0.7899  -21.6267  -54.9536 C.2       22 UNK         0.5000 
    122 N         -1.3337  -22.7562  -55.3951 N.am      22 UNK        -0.7600 
    123 O          0.3804  -21.6278  -54.5826 O.2       22 UNK        -0.5000 
    124 C124       -0.8342  -19.0276  -55.1378 C.3       23 UNK        -0.0398 
    125 S125       -1.7110  -17.5296  -54.5604 S.3       23 UNK        -0.2404 
    126 C126       -0.5819  -16.8984  -53.2738 C.3       23 UNK        -0.0205 
    127 H127        4.0730  -15.8875  -45.8083 H         1 UNK         0.0600 
    128 H128        4.4776  -14.6343  -44.6287 H         1 UNK         0.0600 
    129 H129        4.6263  -14.2967  -46.3535 H         1 UNK         0.0600 
    130 H130        2.3709  -15.0399  -47.5247 H         1 UNK         0.3000 
    131 H131       -0.0803  -14.5714  -46.2021 H         1 UNK         0.0600 
    132 H132        0.3481  -15.8204  -48.4156 H         1 UNK         0.0800 
    133 H133        0.3902  -14.2741  -49.2068 H         1 UNK         0.0800 
    134 H134       -3.2932  -16.7273  -48.4840 H         1 UNK         0.0800 
    135 H135       -1.8797  -17.0223  -47.5021 H         1 UNK         0.0800 
    136 H136       -1.7323  -15.8036  -51.0664 H         1 UNK         0.1150 
    137 H137        0.0717  -19.4317  -52.4571 H         1 UNK         0.1150 
    138 H138       -1.3955  -19.1806  -48.4464 H         1 UNK         0.1150 
    139 H139       -0.9976  -21.3812  -49.5694 H         1 UNK         0.0800 
    140 H140       -0.3538  -21.4565  -51.1781 H         1 UNK         0.0800 
    141 H141        0.3997  -20.2619  -47.5588 H         1 UNK         0.0800 
    142 H142        2.0999  -20.5622  -47.3986 H         1 UNK         0.0800 
    143 H143        1.5794  -23.0909  -47.5398 H         1 UNK         0.0600 
    144 H144        1.3986  -21.4101  -45.2519 H         1 UNK         0.3000 
    145 H145        1.1397  -24.0596  -42.8421 H         1 UNK         0.0600 
    146 H146        3.0739  -22.7391  -41.9394 H         1 UNK         0.0600 
    147 H147        3.5572  -23.7922  -43.2616 H         1 UNK         0.0600 
    148 H148        3.3609  -22.0699  -43.5456 H         1 UNK         0.0600 
    149 H149        1.1574  -21.2468  -42.4968 H         1 UNK         0.3000 
    150 H150       -2.3416  -20.6564  -42.9710 H         1 UNK         0.0600 
    151 H151       -2.0809  -21.4133  -40.6205 H         1 UNK         0.0600 
    152 H152       -2.0116  -19.6609  -40.7217 H         1 UNK         0.0600 
    153 H153       -0.5317  -20.5922  -40.4984 H         1 UNK         0.0600 
    154 H154       -0.1123  -18.9619  -42.3485 H         1 UNK         0.3000 
    155 H155        0.6490  -17.9911  -45.7051 H         1 UNK         0.0600 
    156 H156       -0.8604  -16.6894  -43.3793 H         1 UNK         0.0600 
    157 H157       -1.1386  -16.4922  -45.1004 H         1 UNK         0.0600 
    158 H158        0.3029  -15.8087  -44.3497 H         1 UNK         0.0600 
    159 H159        1.6968  -17.3629  -43.0935 H         1 UNK         0.3000 
    160 H160        4.1560  -19.9310  -42.9745 H         1 UNK         0.0600 
    161 H161        4.6828  -17.0013  -43.6919 H         1 UNK         0.0600 
    162 H162        5.2139  -18.3759  -44.6555 H         1 UNK         0.0600 
    163 H163        5.8456  -18.1489  -43.0325 H         1 UNK         0.0600 
    164 H164        3.8889  -17.5428  -41.4657 H         1 UNK         0.3000 
    165 H165        1.1317  -18.3121  -39.4682 H         1 UNK         0.0600 
    166 H166        2.6733  -18.1528  -37.5310 H         1 UNK         0.0600 
    167 H167        2.8291  -19.7261  -38.2952 H         1 UNK         0.0600 
    168 H168        4.0583  -18.4971  -38.5685 H         1 UNK         0.0600 
    169 H169        3.0840  -16.2845  -39.1843 H         1 UNK         0.3000 
    170 H170        2.2362  -14.0281  -39.8223 H         1 UNK         0.0600 
    171 H171        4.4207  -14.9162  -40.6434 H         1 UNK         0.0600 
    172 H172        3.8400  -14.8749  -42.3043 H         1 UNK         0.0600 
    173 H173        4.0787  -13.3765  -41.4091 H         1 UNK         0.0600 
    174 H174        1.7859  -13.6202  -42.6927 H         1 UNK         0.3000 
    175 H175       -0.8214  -13.0963  -43.2623 H         1 UNK         0.0600 
    176 H176       -2.3588  -12.0622  -41.6435 H         1 UNK         0.0600 
    177 H177       -1.2450  -10.7344  -41.3537 H         1 UNK         0.0600 
    178 H178       -2.0148  -10.9169  -42.9296 H         1 UNK         0.0600 
    179 H179        0.7516  -11.9471  -44.2821 H         1 UNK         0.3000 
    180 H180        2.5707   -9.0626  -43.8027 H         1 UNK         0.0600 
    181 H181        3.8333  -11.8435  -43.5070 H         1 UNK         0.0600 
    182 H182        4.0900  -10.4812  -42.4248 H         1 UNK         0.0600 
    183 H183        4.6552  -10.3946  -44.0855 H         1 UNK         0.0600 
    184 H184        2.5958  -11.4244  -45.5634 H         1 UNK         0.3000 
    185 H185        0.3298  -10.0742  -47.8999 H         1 UNK         0.0600 
    186 H186        2.4034   -8.8411  -48.5452 H         1 UNK         0.0600 
    187 H187        3.3771  -10.2635  -48.1927 H         1 UNK         0.0600 
    188 H188        2.2048  -10.2944  -49.5107 H         1 UNK         0.0600 
    189 H189        2.0778  -12.3497  -47.9484 H         1 UNK         0.3000 
    190 H190       -1.2523  -21.4625  -46.0008 H         1 UNK         0.3000 
    191 H191       -3.2467  -22.3008  -47.7177 H         1 UNK         0.0600 
    192 H192       -3.5375  -20.5605  -45.9988 H         1 UNK         0.0600 
    193 H193       -4.7968  -21.7764  -45.8644 H         1 UNK         0.0600 
    194 H194       -3.4609  -21.7773  -44.7226 H         1 UNK         0.0600 
    195 H195       -1.8237  -24.1414  -45.0482 H         1 UNK         0.3000 
    196 H196       -3.6750  -26.3209  -45.0412 H         1 UNK         0.0600 
    197 H197       -1.8788  -27.4527  -43.7285 H         1 UNK         0.0600 
    198 H198       -2.1467  -25.8151  -43.1493 H         1 UNK         0.0600 
    199 H199       -0.7443  -26.1763  -44.1539 H         1 UNK         0.0600 
    200 H200       -0.9921  -25.5410  -47.1949 H         1 UNK         0.3000 
    201 H201       -0.8349  -28.2904  -48.2935 H         1 UNK         0.0600 
    202 H202        1.2877  -27.0718  -47.8555 H         1 UNK         0.0600 
    203 H203        0.7898  -25.7748  -48.9381 H         1 UNK         0.0600 
    204 H204        1.0750  -27.3896  -49.5710 H         1 UNK         0.0600 
    205 H205       -1.6649  -24.9199  -49.2810 H         1 UNK         0.3000 
    206 H206       -3.5750  -25.9216  -51.2781 H         1 UNK         0.0600 
    207 H207       -1.4780  -25.7045  -52.6191 H         1 UNK         0.0600 
    208 H208       -2.6022  -24.4254  -53.0509 H         1 UNK         0.0600 
    209 H209       -1.2300  -24.0690  -52.0106 H         1 UNK         0.0600 
    210 H210       -5.3698  -24.7754  -50.9182 H         1 UNK         0.3000 
    211 H211       -5.5328  -22.7940  -48.9213 H         1 UNK         0.0600 
    212 H212       -7.6375  -23.8136  -50.8935 H         1 UNK         0.0600 
    213 H213       -7.9646  -22.9332  -49.4053 H         1 UNK         0.0600 
    214 H214       -7.2460  -24.5311  -49.3291 H         1 UNK         0.0600 
    215 H215       -3.8612  -21.4899  -50.4416 H         1 UNK         0.3000 
    216 H216       -3.3309  -19.5184  -51.3194 H         1 UNK         0.0600 
    217 H217       -4.6066  -17.5518  -50.5467 H         1 UNK         0.0600 
    218 H218       -4.5526  -18.7436  -49.2643 H         1 UNK         0.0600 
    219 H219       -6.0239  -18.5487  -50.2080 H         1 UNK         0.0600 
    220 H220       -5.6205  -17.5804  -52.2792 H         1 UNK         0.3000 
    221 H221       -5.2200  -17.9632  -55.0293 H         1 UNK         0.0600 
    222 H222       -7.3620  -16.3335  -53.5617 H         1 UNK         0.0600 
    223 H223       -5.7479  -15.7741  -54.0044 H         1 UNK         0.0600 
    224 H224       -6.9233  -16.1434  -55.2554 H         1 UNK         0.0600 
    225 H225       -7.7202  -19.3525  -52.9647 H         1 UNK         0.3000 
    226 H226       -9.5502  -20.1008  -55.0728 H         1 UNK         0.0600 
    227 H227      -10.2604  -19.8658  -52.6917 H         1 UNK         0.0600 
    228 H228      -10.6028  -21.4749  -53.3074 H         1 UNK         0.0600 
    229 H229       -9.2306  -21.2244  -52.2403 H         1 UNK         0.0600 
    230 H230       -6.5282  -21.3913  -53.9240 H         1 UNK         0.3000 
    231 H231       -6.8169  -23.8818  -55.5543 H         1 UNK         0.0600 
    232 H232       -6.2645  -24.2170  -53.1259 H         1 UNK         0.0600 
    233 H233       -4.8409  -23.1911  -53.3181 H         1 UNK         0.0600 
    234 H234       -4.9500  -24.7280  -54.1717 H         1 UNK         0.0600 
    235 H235       -6.1883  -20.9003  -56.2470 H         1 UNK         0.3000 
    236 H236       -4.9262  -19.6605  -57.5574 H         1 UNK         0.0600 
    237 H237       -4.0057  -20.6925  -59.6004 H         1 UNK         0.0600 
    238 H238       -4.0569  -22.2906  -58.8680 H         1 UNK         0.0600 
    239 H239       -5.5533  -21.4272  -59.2203 H         1 UNK         0.0600 
    240 H240       -3.7406  -20.4520  -55.0274 H         1 UNK         0.3000 
    241 H241       -1.9454  -20.2957  -53.8142 H         1 UNK         0.0600 
    242 H242       -0.7677  -23.5879  -55.4380 H         1 UNK         0.3800 
    243 H243       -2.2986  -22.7931  -55.7060 H         1 UNK         0.3800 
    244 H244        0.1464  -19.0683  -54.6649 H         1 UNK         0.0800 
    245 H245       -0.6269  -18.9178  -56.2021 H         1 UNK         0.0800 
    246 H246        0.4565  -17.0357  -53.5783 H         1 UNK         0.0800 
    247 H247       -0.7260  -15.8195  -53.1996 H         1 UNK         0.0800 
@<TRIPOS>BOND
     1    1    2 1    
     2    1  127 1    
     3    1  128 1    
     4    1  129 1    
     5    2    3 2    
     6    2    4 am   BACKBONE|DICT|INTERRES
     7    4    5 1    
     8    4  130 1    
     9    5    6 1    
    10    5   65 1    
    11    5  131 1    
    12    6    7 1    
    13    6  132 1    
    14    6  133 1    
    15    7    8 1    
    16    8    9 1    
    17    8  134 1    
    18    8  135 1    
    19    9   10 ar   
    20    9   14 ar   
    21   10   11 ar   
    22   10  136 1    
    23   11   12 ar   
    24   11  126 1    
    25   12   13 ar   
    26   12  137 1    
    27   13   14 ar   
    28   13   15 1    
    29   14  138 1    
    30   15   16 1    
    31   15  139 1    
    32   15  140 1    
    33   16   17 1    
    34   17   18 1    
    35   17  141 1    
    36   17  142 1    
    37   18   19 1    
    38   18   67 1    
    39   18  143 1    
    40   19   20 am   BACKBONE|DICT|INTERRES
    41   19  144 1    
    42   20   21 2    
    43   20   22 1    
    44   22   23 1    
    45   22   24 1    
    46   22  145 1    
    47   23  146 1    
    48   23  147 1    
    49   23  148 1    
    50   24   25 am   BACKBONE|DICT|INTERRES
    51   24  149 1    
    52   25   26 2    
    53   25   27 1    
    54   27   28 1    
    55   27   29 1    
    56   27  150 1    
    57   28  151 1    
    58   28  152 1    
    59   28  153 1    
    60   29   30 am   BACKBONE|DICT|INTERRES
    61   29  154 1    
    62   30   31 2    
    63   30   32 1    
    64   32   33 1    
    65   32   34 1    
    66   32  155 1    
    67   33  156 1    
    68   33  157 1    
    69   33  158 1    
    70   34   35 am   BACKBONE|DICT|INTERRES
    71   34  159 1    
    72   35   36 2    
    73   35   37 1    
    74   37   38 1    
    75   37   39 1    
    76   37  160 1    
    77   38  161 1    
    78   38  162 1    
    79   38  163 1    
    80   39   40 am   BACKBONE|DICT|INTERRES
    81   39  164 1    
    82   40   41 2    
    83   40   42 1    
    84   42   43 1    
    85   42   44 1    
    86   42  165 1    
    87   43  166 1    
    88   43  167 1    
    89   43  168 1    
    90   44   45 am   BACKBONE|DICT|INTERRES
    91   44  169 1    
    92   45   46 2    
    93   45   47 1    
    94   47   48 1    
    95   47   49 1    
    96   47  170 1    
    97   48  171 1    
    98   48  172 1    
    99   48  173 1    
   100   49   50 am   BACKBONE|DICT|INTERRES
   101   49  174 1    
   102   50   51 2    
   103   50   52 1    
   104   52   53 1    
   105   52   54 1    
   106   52  175 1    
   107   53  176 1    
   108   53  177 1    
   109   53  178 1    
   110   54   55 am   BACKBONE|DICT|INTERRES
   111   54  179 1    
   112   55   56 2    
   113   55   57 1    
   114   57   58 1    
   115   57   59 1    
   116   57  180 1    
   117   58  181 1    
   118   58  182 1    
   119   58  183 1    
   120   59   60 am   BACKBONE|DICT|INTERRES
   121   59  184 1    
   122   60   61 2    
   123   60   62 1    
   124   62   63 1    
   125   62   64 1    
   126   62  185 1    
   127   63  186 1    
   128   63  187 1    
   129   63  188 1    
   130   64   65 am   BACKBONE|DICT|INTERRES
   131   64  189 1    
   132   65   66 2    
   133   67   68 2    
   134   67   69 am   BACKBONE|DICT|INTERRES
   135   69   70 1    
   136   69  190 1    
   137   70   71 1    
   138   70   72 1    
   139   70  191 1    
   140   71  192 1    
   141   71  193 1    
   142   71  194 1    
   143   72   73 2    
   144   72   74 am   BACKBONE|DICT|INTERRES
   145   74   75 1    
   146   74  195 1    
   147   75   76 1    
   148   75   77 1    
   149   75  196 1    
   150   76  197 1    
   151   76  198 1    
   152   76  199 1    
   153   77   78 2    
   154   77   79 am   BACKBONE|DICT|INTERRES
   155   79   80 1    
   156   79  200 1    
   157   80   81 1    
   158   80   82 1    
   159   80  201 1    
   160   81  202 1    
   161   81  203 1    
   162   81  204 1    
   163   82   83 2    
   164   82   84 am   BACKBONE|DICT|INTERRES
   165   84   85 1    
   166   84  205 1    
   167   85   86 1    
   168   85   87 1    
   169   85  206 1    
   170   86  207 1    
   171   86  208 1    
   172   86  209 1    
   173   87   88 2    
   174   87   89 am   BACKBONE|DICT|INTERRES
   175   89   90 1    
   176   89  210 1    
   177   90   91 1    
   178   90   92 1    
   179   90  211 1    
   180   91  212 1    
   181   91  213 1    
   182   91  214 1    
   183   92   93 2    
   184   92   94 am   BACKBONE|DICT|INTERRES
   185   94   95 1    
   186   94  215 1    
   187   95   96 1    
   188   95   97 1    
   189   95  216 1    
   190   96  217 1    
   191   96  218 1    
   192   96  219 1    
   193   97   98 2    
   194   97   99 am   BACKBONE|DICT|INTERRES
   195   99  100 1    
   196   99  220 1    
   197  100  101 1    
   198  100  102 1    
   199  100  221 1    
   200  101  222 1    
   201  101  223 1    
   202  101  224 1    
   203  102  103 2    
   204  102  104 am   BACKBONE|DICT|INTERRES
   205  104  105 1    
   206  104  225 1    
   207  105  106 1    
   208  105  107 1    
   209  105  226 1    
   210  106  227 1    
   211  106  228 1    
   212  106  229 1    
   213  107  108 2    
   214  107  109 am   BACKBONE|DICT|INTERRES
   215  109  110 1    
   216  109  230 1    
   217  110  111 1    
   218  110  112 1    
   219  110  231 1    
   220  111  232 1    
   221  111  233 1    
   222  111  234 1    
   223  112  113 2    
   224  112  114 am   BACKBONE|DICT|INTERRES
   225  114  115 1    
   226  114  235 1    
   227  115  116 1    
   228  115  117 1    
   229  115  236 1    
   230  116  237 1    
   231  116  238 1    
   232  116  239 1    
   233  117  118 2    
   234  117  119 am   BACKBONE|DICT|INTERRES
   235  119  120 1    
   236  119  240 1    
   237  120  121 1    
   238  120  124 1    
   239  120  241 1    
   240  121  122 am   BACKBONE|DICT|INTERRES
   241  121  123 2    
   242  122  242 1    
   243  122  243 1    
   244  124  125 1    
   245  124  244 1    
   246  124  245 1    
   247  125  126 1    
   248  126  246 1    
   249  126  247 1    
@<TRIPOS>SUBSTRUCTURE
     1 UNK         1 GROUP             0       ****    0 ROOT    
