@<TRIPOS>MOLECULE
3R540
247   249    1
SMALL
USER_CHARGES


@<TRIPOS>ATOM
      1 CA          6.5396   -9.2473  -48.5535 C.3       0 UNK        -0.1800 
      2 C           5.5356  -10.3492  -48.2442 C.2       0 UNK         0.5000 
      3 O           4.7111  -10.1910  -47.3434 O.2       0 UNK        -0.5000 
      4 N           5.6077  -11.4654  -48.9801 N.am      1 UNK        -0.5000 
      5 CA          4.6831  -12.5973  -48.8740 C.3       1 UNK         0.1400 
      6 C6          5.2840  -13.8671  -49.5239 C.3       23 UNK        -0.0398 
      7 S7          4.4375  -15.4102  -49.0281 S.3       23 UNK        -0.2404 
      8 C8          4.0076  -16.0746  -50.6683 C.3       23 UNK        -0.0205 
      9 C9          3.3307  -17.4374  -50.6044 C.ar      23 UNK        -0.0193 
     10 C10         2.0915  -17.6339  -51.2218 C.ar      23 UNK        -0.1150 
     11 C11         1.4940  -18.8975  -51.2294 C.ar      23 UNK        -0.0193 
     12 C12         2.1426  -19.9702  -50.6117 C.ar      23 UNK        -0.1150 
     13 C13         3.3719  -19.7847  -49.9714 C.ar      23 UNK        -0.0193 
     14 C14         3.9627  -18.5173  -49.9783 C.ar      23 UNK        -0.1150 
     15 C15         4.0773  -20.9520  -49.2937 C.3       23 UNK        -0.0205 
     16 S16         3.5237  -21.1794  -47.5722 S.3       23 UNK        -0.2404 
     17 C17         1.9258  -22.0293  -47.8046 C.3       23 UNK        -0.0398 
     18 CA          1.7420  -23.2334  -46.8523 C.3       11 UNK         0.1400 
     19 N           1.6775  -22.8185  -45.4497 N.am      11 UNK        -0.5000 
     20 C           1.6519  -23.6514  -44.4004 C.2       10 UNK         0.5000 
     21 O           1.8138  -24.8701  -44.4942 O.2       10 UNK        -0.5000 
     22 CA          1.3886  -23.0050  -43.0255 C.3       10 UNK         0.1400 
     23 CB          1.6167  -23.9646  -41.8391 C.3       10 UNK        -0.1800 
     24 N           2.1259  -21.7541  -42.8421 N.am      10 UNK        -0.5000 
     25 C           3.4548  -21.5769  -42.8096 C.2       9 UNK         0.5000 
     26 O           4.2738  -22.4940  -42.8829 O.2       9 UNK        -0.5000 
     27 CA          3.9653  -20.1264  -42.6792 C.3       9 UNK         0.1400 
     28 CB          4.6050  -19.6673  -43.9992 C.3       9 UNK        -0.1800 
     29 N           2.9220  -19.1686  -42.3040 N.am      9 UNK        -0.5000 
     30 C           2.3698  -19.0579  -41.0885 C.2       8 UNK         0.5000 
     31 O           2.7342  -19.7110  -40.1102 O.2       8 UNK        -0.5000 
     32 CA          1.1830  -18.0828  -40.9548 C.3       8 UNK         0.1400 
     33 CB          1.6772  -16.6500  -40.7056 C.3       8 UNK        -0.1800 
     34 N           0.2924  -18.1005  -42.1195 N.am      8 UNK        -0.5000 
     35 C          -0.4485  -19.1543  -42.4943 C.2       7 UNK         0.5000 
     36 O          -0.4828  -20.2185  -41.8771 O.2       7 UNK        -0.5000 
     37 CA         -1.2488  -19.0199  -43.8022 C.3       7 UNK         0.1400 
     38 CB         -2.5528  -18.2418  -43.5732 C.3       7 UNK        -0.1800 
     39 N          -0.4734  -18.3873  -44.8684 N.am      7 UNK        -0.5000 
     40 C           0.6194  -18.9249  -45.4295 C.2       6 UNK         0.5000 
     41 O           1.0466  -20.0447  -45.1499 O.2       6 UNK        -0.5000 
     42 CA          1.3854  -18.0492  -46.4367 C.3       6 UNK         0.1400 
     43 CB          0.7118  -18.0823  -47.8123 C.3       6 UNK        -0.1800 
     44 N           1.4940  -16.6602  -45.9989 N.am      6 UNK        -0.5000 
     45 C           2.1289  -16.2454  -44.8956 C.2       5 UNK         0.5000 
     46 O           2.7435  -16.9908  -44.1361 O.2       5 UNK        -0.5000 
     47 CA          2.0063  -14.7517  -44.5546 C.3       5 UNK         0.1400 
     48 CB          3.0250  -13.9229  -45.3510 C.3       5 UNK        -0.1800 
     49 N           0.6529  -14.2521  -44.8014 N.am      5 UNK        -0.5000 
     50 C          -0.4194  -14.5944  -44.0731 C.2       4 UNK         0.5000 
     51 O          -0.3697  -15.3382  -43.0931 O.2       4 UNK        -0.5000 
     52 CA         -1.7779  -14.0400  -44.5398 C.3       4 UNK         0.1400 
     53 CB         -1.9854  -12.6083  -44.0237 C.3       4 UNK        -0.1800 
     54 N          -1.9249  -14.0571  -45.9965 N.am      4 UNK        -0.5000 
     55 C          -2.0320  -15.1738  -46.7306 C.2       3 UNK         0.5000 
     56 O          -2.0417  -16.3067  -46.2506 O.2       3 UNK        -0.5000 
     57 CA         -2.0960  -14.9947  -48.2614 C.3       3 UNK         0.1400 
     58 CB         -3.5384  -14.7061  -48.7026 C.3       3 UNK        -0.1800 
     59 N          -1.2174  -13.9402  -48.7826 N.am      3 UNK        -0.5000 
     60 C           0.1034  -13.8663  -48.5750 C.2       2 UNK         0.5000 
     61 O           0.7293  -14.6752  -47.8844 O.2       2 UNK        -0.5000 
     62 CA          0.8450  -12.6754  -49.2028 C.3       2 UNK         0.1400 
     63 CB          0.3241  -11.3326  -48.6539 C.3       2 UNK        -0.1800 
     64 N           2.2560  -12.8289  -48.8773 N.am      2 UNK        -0.5000 
     65 C           3.2985  -12.2351  -49.4588 C.2       1 UNK         0.5000 
     66 O           3.2054  -11.4535  -50.4091 O.2       1 UNK        -0.5000 
     67 C           0.4539  -23.9909  -47.2258 C.2       11 UNK         0.5000 
     68 O          -0.6353  -23.5147  -46.8996 O.2       11 UNK        -0.5000 
     69 N           0.5905  -25.1259  -47.9257 N.am      12 UNK        -0.5000 
     70 CA         -0.5084  -26.0270  -48.2966 C.3       12 UNK         0.1400 
     71 CB          0.0570  -27.2190  -49.0830 C.3       12 UNK        -0.1800 
     72 C          -1.6433  -25.3498  -49.0882 C.2       12 UNK         0.5000 
     73 O          -2.8130  -25.6537  -48.8586 O.2       12 UNK        -0.5000 
     74 N          -1.2737  -24.4107  -49.9689 N.am      13 UNK        -0.5000 
     75 CA         -2.1925  -23.6057  -50.7735 C.3       13 UNK         0.1400 
     76 CB         -1.3736  -22.8182  -51.8062 C.3       13 UNK        -0.1800 
     77 C          -3.0727  -22.6538  -49.9396 C.2       13 UNK         0.5000 
     78 O          -4.2048  -22.3784  -50.3381 O.2       13 UNK        -0.5000 
     79 N          -2.5477  -22.1772  -48.8033 N.am      14 UNK        -0.5000 
     80 CA         -3.2685  -21.3327  -47.8536 C.3       14 UNK         0.1400 
     81 CB         -2.2804  -20.3907  -47.1510 C.3       14 UNK        -0.1800 
     82 C          -4.0266  -22.1886  -46.8282 C.2       14 UNK         0.5000 
     83 O          -5.1897  -21.9059  -46.5432 O.2       14 UNK        -0.5000 
     84 N          -3.3694  -23.2423  -46.3208 N.am      15 UNK        -0.5000 
     85 CA         -3.8965  -24.1861  -45.3304 C.3       15 UNK         0.1400 
     86 CB         -2.7710  -25.1326  -44.8882 C.3       15 UNK        -0.1800 
     87 C          -5.1225  -24.9851  -45.8153 C.2       15 UNK         0.5000 
     88 O          -5.9308  -25.4106  -44.9895 O.2       15 UNK        -0.5000 
     89 N          -5.2657  -25.1348  -47.1402 N.am      16 UNK        -0.5000 
     90 CA         -6.4521  -25.6694  -47.8132 C.3       16 UNK         0.1400 
     91 CB         -6.1371  -25.8336  -49.3091 C.3       16 UNK        -0.1800 
     92 C          -7.7199  -24.8056  -47.6307 C.2       16 UNK         0.5000 
     93 O          -8.8219  -25.3159  -47.8346 O.2       16 UNK        -0.5000 
     94 N          -7.5392  -23.5278  -47.2604 N.am      17 UNK        -0.5000 
     95 CA         -8.5565  -22.5013  -47.0302 C.3       17 UNK         0.1400 
     96 CB         -9.3272  -22.8174  -45.7307 C.3       17 UNK        -0.1800 
     97 C          -9.4908  -22.2637  -48.2427 C.2       17 UNK         0.5000 
     98 O         -10.7082  -22.3710  -48.0923 O.2       17 UNK        -0.5000 
     99 N          -8.9860  -21.9558  -49.4453 N.am      18 UNK        -0.5000 
    100 CA        -7.6077  -21.7692  -49.8985 C.3       18 UNK         0.1400 
    101 CB        -7.0481  -20.4154  -49.4180 C.3       18 UNK        -0.1800 
    102 C         -7.6233  -21.8293  -51.4339 C.2       18 UNK         0.5000 
    103 O         -8.6949  -21.7312  -52.0418 O.2       18 UNK        -0.5000 
    104 N         -6.4386  -21.9736  -52.0368 N.am      19 UNK        -0.5000 
    105 CA        -6.2270  -21.8691  -53.4810 C.3       19 UNK         0.1400 
    106 CB        -4.7780  -22.2668  -53.7984 C.3       19 UNK        -0.1800 
    107 C         -6.5083  -20.4421  -53.9909 C.2       19 UNK         0.5000 
    108 O         -6.3031  -19.4777  -53.2522 O.2       19 UNK        -0.5000 
    109 N         -6.9285  -20.3240  -55.2572 N.am      20 UNK        -0.5000 
    110 CA        -7.2953  -19.0556  -55.9023 C.3       20 UNK         0.1400 
    111 CB        -7.8759  -19.3535  -57.2933 C.3       20 UNK        -0.1800 
    112 C         -6.1430  -18.0340  -56.0085 C.2       20 UNK         0.5000 
    113 O         -6.4005  -16.8309  -56.0582 O.2       20 UNK        -0.5000 
    114 N         -4.9011  -18.5324  -56.0255 N.am      21 UNK        -0.5000 
    115 CA        -3.6683  -17.7449  -56.0468 C.3       21 UNK         0.1400 
    116 CB        -2.6760  -18.4367  -56.9983 C.3       21 UNK        -0.1800 
    117 C         -3.0546  -17.5629  -54.6410 C.2       21 UNK         0.5000 
    118 O         -1.9122  -17.1121  -54.5439 O.2       21 UNK        -0.5000 
    119 N         -3.7839  -17.9350  -53.5812 N.am      22 UNK        -0.5000 
    120 CA        -3.3083  -17.9455  -52.1931 C.3       22 UNK         0.1400 
    121 C         -4.4159  -17.5185  -51.1871 C.2       22 UNK         0.5000 
    122 N         -4.2722  -17.8442  -49.9087 N.am      22 UNK        -0.7600 
    123 O         -5.3849  -16.8508  -51.5413 O.2       22 UNK        -0.5000 
    124 C124       -2.6278  -19.3023  -51.8571 C.3       23 UNK        -0.0398 
    125 S125       -1.2146  -19.1106  -50.7239 S.3       23 UNK        -0.2404 
    126 C126        0.1565  -19.1096  -51.9187 C.3       23 UNK        -0.0205 
    127 H127        7.2090   -9.5250  -49.3681 H         1 UNK         0.0600 
    128 H128        7.1458   -9.0339  -47.6732 H         1 UNK         0.0600 
    129 H129        6.0176   -8.3340  -48.8391 H         1 UNK         0.0600 
    130 H130        6.2859  -11.5193  -49.7265 H         1 UNK         0.3000 
    131 H131        4.5562  -12.7993  -47.8080 H         1 UNK         0.0600 
    132 H132        5.3039  -13.7700  -50.6109 H         1 UNK         0.0800 
    133 H133        6.3259  -13.9759  -49.2189 H         1 UNK         0.0800 
    134 H134        4.9147  -16.1683  -51.2668 H         1 UNK         0.0800 
    135 H135        3.3689  -15.3528  -51.1802 H         1 UNK         0.0800 
    136 H136        1.5949  -16.8064  -51.7088 H         1 UNK         0.1150 
    137 H137        1.6819  -20.9466  -50.6281 H         1 UNK         0.1150 
    138 H138        4.9211  -18.3700  -49.5005 H         1 UNK         0.1150 
    139 H139        3.9290  -21.8705  -49.8632 H         1 UNK         0.0800 
    140 H140        5.1540  -20.7763  -49.2881 H         1 UNK         0.0800 
    141 H141        1.8571  -22.3673  -48.8389 H         1 UNK         0.0800 
    142 H142        1.1229  -21.3040  -47.6670 H         1 UNK         0.0800 
    143 H143        2.5934  -23.9074  -46.9670 H         1 UNK         0.0600 
    144 H144        1.5197  -21.8255  -45.2890 H         1 UNK         0.3000 
    145 H145        0.3324  -22.7316  -43.0233 H         1 UNK         0.0600 
    146 H146        1.4050  -23.4728  -40.8896 H         1 UNK         0.0600 
    147 H147        0.9593  -24.8320  -41.9082 H         1 UNK         0.0600 
    148 H148        2.6417  -24.3345  -41.8051 H         1 UNK         0.0600 
    149 H149        1.5506  -20.9232  -42.7989 H         1 UNK         0.3000 
    150 H150        4.7347  -20.1186  -41.9047 H         1 UNK         0.0600 
    151 H151        5.4060  -20.3412  -44.3055 H         1 UNK         0.0600 
    152 H152        5.0369  -18.6711  -43.9037 H         1 UNK         0.0600 
    153 H153        3.8740  -19.6390  -44.8080 H         1 UNK         0.0600 
    154 H154        2.6191  -18.5287  -43.0343 H         1 UNK         0.3000 
    155 H155        0.5983  -18.3930  -40.0863 H         1 UNK         0.0600 
    156 H156        2.3132  -16.6049  -39.8207 H         1 UNK         0.0600 
    157 H157        0.8427  -15.9680  -40.5419 H         1 UNK         0.0600 
    158 H158        2.2581  -16.2713  -41.5465 H         1 UNK         0.0600 
    159 H159        0.2323  -17.2431  -42.6592 H         1 UNK         0.3000 
    160 H160       -1.5113  -20.0270  -44.1331 H         1 UNK         0.0600 
    161 H161       -2.3613  -17.2127  -43.2692 H         1 UNK         0.0600 
    162 H162       -3.1545  -18.7092  -42.7928 H         1 UNK         0.0600 
    163 H163       -3.1596  -18.2138  -44.4782 H         1 UNK         0.0600 
    164 H164       -0.8061  -17.4890  -45.2039 H         1 UNK         0.3000 
    165 H165        2.3962  -18.4488  -46.5379 H         1 UNK         0.0600 
    166 H166        1.2488  -17.4567  -48.5238 H         1 UNK         0.0600 
    167 H167        0.6937  -19.0932  -48.2164 H         1 UNK         0.0600 
    168 H168       -0.3167  -17.7263  -47.7716 H         1 UNK         0.0600 
    169 H169        1.0575  -15.9632  -46.5975 H         1 UNK         0.3000 
    170 H170        2.2257  -14.6278  -43.4920 H         1 UNK         0.0600 
    171 H171        4.0443  -14.2189  -45.1001 H         1 UNK         0.0600 
    172 H172        2.9040  -14.0624  -46.4236 H         1 UNK         0.0600 
    173 H173        2.9315  -12.8586  -45.1342 H         1 UNK         0.0600 
    174 H174        0.5176  -13.6918  -45.6293 H         1 UNK         0.3000 
    175 H175       -2.5588  -14.6724  -44.1117 H         1 UNK         0.0600 
    176 H176       -1.8964  -12.5691  -42.9371 H         1 UNK         0.0600 
    177 H177       -1.2500  -11.9179  -44.4386 H         1 UNK         0.0600 
    178 H178       -2.9775  -12.2368  -44.2808 H         1 UNK         0.0600 
    179 H179       -1.9244  -13.1660  -46.4698 H         1 UNK         0.3000 
    180 H180       -1.7824  -15.9377  -48.7140 H         1 UNK         0.0600 
    181 H181       -4.2263  -15.4550  -48.3088 H         1 UNK         0.0600 
    182 H182       -3.8810  -13.7325  -48.3506 H         1 UNK         0.0600 
    183 H183       -3.6297  -14.7225  -49.7889 H         1 UNK         0.0600 
    184 H184       -1.6600  -13.2349  -49.3534 H         1 UNK         0.3000 
    185 H185        0.7156  -12.7175  -50.2859 H         1 UNK         0.0600 
    186 H186       -0.7273  -11.1818  -48.8999 H         1 UNK         0.0600 
    187 H187        0.4208  -11.2789  -47.5687 H         1 UNK         0.0600 
    188 H188        0.8728  -10.4912  -49.0773 H         1 UNK         0.0600 
    189 H189        2.4152  -13.5458  -48.1794 H         1 UNK         0.3000 
    190 H190        1.5199  -25.4451  -48.1586 H         1 UNK         0.3000 
    191 H191       -0.9396  -26.4111  -47.3712 H         1 UNK         0.0600 
    192 H192        0.5462  -26.8994  -50.0040 H         1 UNK         0.0600 
    193 H193       -0.7351  -27.9173  -49.3572 H         1 UNK         0.0600 
    194 H194        0.7849  -27.7737  -48.4905 H         1 UNK         0.0600 
    195 H195       -0.2881  -24.2328  -50.0901 H         1 UNK         0.3000 
    196 H196       -2.8597  -24.2854  -51.3077 H         1 UNK         0.0600 
    197 H197       -2.0187  -22.2200  -52.4476 H         1 UNK         0.0600 
    198 H198       -0.8077  -23.4872  -52.4547 H         1 UNK         0.0600 
    199 H199       -0.6677  -22.1409  -51.3247 H         1 UNK         0.0600 
    200 H200       -1.6380  -22.5076  -48.5101 H         1 UNK         0.3000 
    201 H201       -3.9959  -20.7176  -48.3876 H         1 UNK         0.0600 
    202 H202       -2.7993  -19.7312  -46.4550 H         1 UNK         0.0600 
    203 H203       -1.5247  -20.9382  -46.5867 H         1 UNK         0.0600 
    204 H204       -1.7638  -19.7566  -47.8690 H         1 UNK         0.0600 
    205 H205       -2.3990  -23.3830  -46.5958 H         1 UNK         0.3000 
    206 H206       -4.2119  -23.6039  -44.4623 H         1 UNK         0.0600 
    207 H207       -1.9148  -24.5789  -44.5018 H         1 UNK         0.0600 
    208 H208       -3.1109  -25.8018  -44.0969 H         1 UNK         0.0600 
    209 H209       -2.4252  -25.7517  -45.7151 H         1 UNK         0.0600 
    210 H210       -4.5031  -24.8406  -47.7386 H         1 UNK         0.3000 
    211 H211       -6.6640  -26.6546  -47.3933 H         1 UNK         0.0600 
    212 H212       -7.0034  -26.2071  -49.8566 H         1 UNK         0.0600 
    213 H213       -5.3274  -26.5467  -49.4642 H         1 UNK         0.0600 
    214 H214       -5.8415  -24.8877  -49.7651 H         1 UNK         0.0600 
    215 H215       -6.5882  -23.2076  -47.1081 H         1 UNK         0.3000 
    216 H216       -8.0252  -21.5677  -46.8532 H         1 UNK         0.0600 
    217 H217      -10.0216  -22.0140  -45.4817 H         1 UNK         0.0600 
    218 H218       -8.6453  -22.9281  -44.8874 H         1 UNK         0.0600 
    219 H219       -9.9061  -23.7377  -45.8146 H         1 UNK         0.0600 
    220 H220       -9.6335  -21.8577  -50.2183 H         1 UNK         0.3000 
    221 H221       -6.9692  -22.5808  -49.5541 H         1 UNK         0.0600 
    222 H222       -7.7046  -19.5899  -49.6950 H         1 UNK         0.0600 
    223 H223       -6.9049  -20.3854  -48.3402 H         1 UNK         0.0600 
    224 H224       -6.0733  -20.2152  -49.8647 H         1 UNK         0.0600 
    225 H225       -5.6030  -22.0445  -51.4589 H         1 UNK         0.3000 
    226 H226       -6.9048  -22.5659  -53.9783 H         1 UNK         0.0600 
    227 H227       -4.0704  -21.5627  -53.3613 H         1 UNK         0.0600 
    228 H228       -4.5451  -23.2601  -53.4140 H         1 UNK         0.0600 
    229 H229       -4.6015  -22.2840  -54.8744 H         1 UNK         0.0600 
    230 H230       -7.0574  -21.1593  -55.8103 H         1 UNK         0.3000 
    231 H231       -8.0791  -18.5941  -55.2979 H         1 UNK         0.0600 
    232 H232       -8.7534  -19.9968  -57.2261 H         1 UNK         0.0600 
    233 H233       -7.1455  -19.8455  -57.9368 H         1 UNK         0.0600 
    234 H234       -8.1869  -18.4348  -57.7926 H         1 UNK         0.0600 
    235 H235       -4.7923  -19.5344  -55.9714 H         1 UNK         0.3000 
    236 H236       -3.8702  -16.7464  -56.4396 H         1 UNK         0.0600 
    237 H237       -3.1029  -18.5551  -57.9944 H         1 UNK         0.0600 
    238 H238       -1.7616  -17.8525  -57.1090 H         1 UNK         0.0600 
    239 H239       -2.3928  -19.4253  -56.6346 H         1 UNK         0.0600 
    240 H240       -4.7397  -18.2556  -53.7035 H         1 UNK         0.3000 
    241 H241       -2.5642  -17.1517  -52.1047 H         1 UNK         0.0600 
    242 H242       -4.9817  -17.5631  -49.2520 H         1 UNK         0.3800 
    243 H243       -3.4600  -18.3508  -49.5938 H         1 UNK         0.3800 
    244 H244       -3.3441  -20.0055  -51.4301 H         1 UNK         0.0800 
    245 H245       -2.2638  -19.7850  -52.7648 H         1 UNK         0.0800 
    246 H246        0.1710  -20.0551  -52.4624 H         1 UNK         0.0800 
    247 H247       -0.0149  -18.3291  -52.6621 H         1 UNK         0.0800 
@<TRIPOS>BOND
     1    1    2 1    
     2    1  127 1    
     3    1  128 1    
     4    1  129 1    
     5    2    3 2    
     6    2    4 am   BACKBONE|DICT|INTERRES
     7    4    5 1    
     8    4  130 1    
     9    5    6 1    
    10    5   65 1    
    11    5  131 1    
    12    6    7 1    
    13    6  132 1    
    14    6  133 1    
    15    7    8 1    
    16    8    9 1    
    17    8  134 1    
    18    8  135 1    
    19    9   10 ar   
    20    9   14 ar   
    21   10   11 ar   
    22   10  136 1    
    23   11   12 ar   
    24   11  126 1    
    25   12   13 ar   
    26   12  137 1    
    27   13   14 ar   
    28   13   15 1    
    29   14  138 1    
    30   15   16 1    
    31   15  139 1    
    32   15  140 1    
    33   16   17 1    
    34   17   18 1    
    35   17  141 1    
    36   17  142 1    
    37   18   19 1    
    38   18   67 1    
    39   18  143 1    
    40   19   20 am   BACKBONE|DICT|INTERRES
    41   19  144 1    
    42   20   21 2    
    43   20   22 1    
    44   22   23 1    
    45   22   24 1    
    46   22  145 1    
    47   23  146 1    
    48   23  147 1    
    49   23  148 1    
    50   24   25 am   BACKBONE|DICT|INTERRES
    51   24  149 1    
    52   25   26 2    
    53   25   27 1    
    54   27   28 1    
    55   27   29 1    
    56   27  150 1    
    57   28  151 1    
    58   28  152 1    
    59   28  153 1    
    60   29   30 am   BACKBONE|DICT|INTERRES
    61   29  154 1    
    62   30   31 2    
    63   30   32 1    
    64   32   33 1    
    65   32   34 1    
    66   32  155 1    
    67   33  156 1    
    68   33  157 1    
    69   33  158 1    
    70   34   35 am   BACKBONE|DICT|INTERRES
    71   34  159 1    
    72   35   36 2    
    73   35   37 1    
    74   37   38 1    
    75   37   39 1    
    76   37  160 1    
    77   38  161 1    
    78   38  162 1    
    79   38  163 1    
    80   39   40 am   BACKBONE|DICT|INTERRES
    81   39  164 1    
    82   40   41 2    
    83   40   42 1    
    84   42   43 1    
    85   42   44 1    
    86   42  165 1    
    87   43  166 1    
    88   43  167 1    
    89   43  168 1    
    90   44   45 am   BACKBONE|DICT|INTERRES
    91   44  169 1    
    92   45   46 2    
    93   45   47 1    
    94   47   48 1    
    95   47   49 1    
    96   47  170 1    
    97   48  171 1    
    98   48  172 1    
    99   48  173 1    
   100   49   50 am   BACKBONE|DICT|INTERRES
   101   49  174 1    
   102   50   51 2    
   103   50   52 1    
   104   52   53 1    
   105   52   54 1    
   106   52  175 1    
   107   53  176 1    
   108   53  177 1    
   109   53  178 1    
   110   54   55 am   BACKBONE|DICT|INTERRES
   111   54  179 1    
   112   55   56 2    
   113   55   57 1    
   114   57   58 1    
   115   57   59 1    
   116   57  180 1    
   117   58  181 1    
   118   58  182 1    
   119   58  183 1    
   120   59   60 am   BACKBONE|DICT|INTERRES
   121   59  184 1    
   122   60   61 2    
   123   60   62 1    
   124   62   63 1    
   125   62   64 1    
   126   62  185 1    
   127   63  186 1    
   128   63  187 1    
   129   63  188 1    
   130   64   65 am   BACKBONE|DICT|INTERRES
   131   64  189 1    
   132   65   66 2    
   133   67   68 2    
   134   67   69 am   BACKBONE|DICT|INTERRES
   135   69   70 1    
   136   69  190 1    
   137   70   71 1    
   138   70   72 1    
   139   70  191 1    
   140   71  192 1    
   141   71  193 1    
   142   71  194 1    
   143   72   73 2    
   144   72   74 am   BACKBONE|DICT|INTERRES
   145   74   75 1    
   146   74  195 1    
   147   75   76 1    
   148   75   77 1    
   149   75  196 1    
   150   76  197 1    
   151   76  198 1    
   152   76  199 1    
   153   77   78 2    
   154   77   79 am   BACKBONE|DICT|INTERRES
   155   79   80 1    
   156   79  200 1    
   157   80   81 1    
   158   80   82 1    
   159   80  201 1    
   160   81  202 1    
   161   81  203 1    
   162   81  204 1    
   163   82   83 2    
   164   82   84 am   BACKBONE|DICT|INTERRES
   165   84   85 1    
   166   84  205 1    
   167   85   86 1    
   168   85   87 1    
   169   85  206 1    
   170   86  207 1    
   171   86  208 1    
   172   86  209 1    
   173   87   88 2    
   174   87   89 am   BACKBONE|DICT|INTERRES
   175   89   90 1    
   176   89  210 1    
   177   90   91 1    
   178   90   92 1    
   179   90  211 1    
   180   91  212 1    
   181   91  213 1    
   182   91  214 1    
   183   92   93 2    
   184   92   94 am   BACKBONE|DICT|INTERRES
   185   94   95 1    
   186   94  215 1    
   187   95   96 1    
   188   95   97 1    
   189   95  216 1    
   190   96  217 1    
   191   96  218 1    
   192   96  219 1    
   193   97   98 2    
   194   97   99 am   BACKBONE|DICT|INTERRES
   195   99  100 1    
   196   99  220 1    
   197  100  101 1    
   198  100  102 1    
   199  100  221 1    
   200  101  222 1    
   201  101  223 1    
   202  101  224 1    
   203  102  103 2    
   204  102  104 am   BACKBONE|DICT|INTERRES
   205  104  105 1    
   206  104  225 1    
   207  105  106 1    
   208  105  107 1    
   209  105  226 1    
   210  106  227 1    
   211  106  228 1    
   212  106  229 1    
   213  107  108 2    
   214  107  109 am   BACKBONE|DICT|INTERRES
   215  109  110 1    
   216  109  230 1    
   217  110  111 1    
   218  110  112 1    
   219  110  231 1    
   220  111  232 1    
   221  111  233 1    
   222  111  234 1    
   223  112  113 2    
   224  112  114 am   BACKBONE|DICT|INTERRES
   225  114  115 1    
   226  114  235 1    
   227  115  116 1    
   228  115  117 1    
   229  115  236 1    
   230  116  237 1    
   231  116  238 1    
   232  116  239 1    
   233  117  118 2    
   234  117  119 am   BACKBONE|DICT|INTERRES
   235  119  120 1    
   236  119  240 1    
   237  120  121 1    
   238  120  124 1    
   239  120  241 1    
   240  121  122 am   BACKBONE|DICT|INTERRES
   241  121  123 2    
   242  122  242 1    
   243  122  243 1    
   244  124  125 1    
   245  124  244 1    
   246  124  245 1    
   247  125  126 1    
   248  126  246 1    
   249  126  247 1    
@<TRIPOS>SUBSTRUCTURE
     1 UNK         1 GROUP             0       ****    0 ROOT    
