@<TRIPOS>MOLECULE
3R540
247   249    1
SMALL
USER_CHARGES


@<TRIPOS>ATOM
      1 CA          6.1559  -11.7596  -44.8932 C.3       0 UNK        -0.1800 
      2 C           5.0344  -12.7619  -45.1282 C.2       0 UNK         0.5000 
      3 O           3.9567  -12.6186  -44.5515 O.2       0 UNK        -0.5000 
      4 N           5.2910  -13.7788  -45.9616 N.am      1 UNK        -0.5000 
      5 CA          4.3243  -14.8072  -46.3603 C.3       1 UNK         0.1400 
      6 C6          5.0448  -16.0154  -47.0188 C.3       23 UNK        -0.0398 
      7 S7          3.9333  -17.3205  -47.6517 S.3       23 UNK        -0.2404 
      8 C8          4.1426  -17.1241  -49.4549 C.3       23 UNK        -0.0205 
      9 C9          2.9148  -17.6091  -50.2099 C.ar      23 UNK        -0.0193 
     10 C10         2.1445  -16.7161  -50.9593 C.ar      23 UNK        -0.1150 
     11 C11         0.9708  -17.1374  -51.5914 C.ar      23 UNK        -0.0193 
     12 C12         0.5939  -18.4841  -51.4861 C.ar      23 UNK        -0.1150 
     13 C13         1.3581  -19.3977  -50.7525 C.ar      23 UNK        -0.0193 
     14 C14         2.5294  -18.9482  -50.1300 C.ar      23 UNK        -0.1150 
     15 C15         0.8575  -20.8412  -50.6487 C.3       23 UNK        -0.0205 
     16 S16         1.9439  -22.0122  -49.7608 S.3       23 UNK        -0.2404 
     17 C17         1.6793  -21.5567  -48.0103 C.3       23 UNK        -0.0398 
     18 CA          1.1408  -22.7546  -47.1851 C.3       11 UNK         0.1400 
     19 N           1.7743  -22.8588  -45.8635 N.am      11 UNK        -0.5000 
     20 C           1.8027  -23.9823  -45.1322 C.2       10 UNK         0.5000 
     21 O           1.2429  -25.0246  -45.4692 O.2       10 UNK        -0.5000 
     22 CA          2.5489  -23.9265  -43.7867 C.3       10 UNK         0.1400 
     23 CB          4.0457  -23.6406  -43.9876 C.3       10 UNK        -0.1800 
     24 N           1.9781  -22.9373  -42.8757 N.am      10 UNK        -0.5000 
     25 C           0.7397  -22.9945  -42.3668 C.2       9 UNK         0.5000 
     26 O          -0.0373  -23.9291  -42.5588 O.2       9 UNK        -0.5000 
     27 CA          0.2747  -21.7974  -41.5138 C.3       9 UNK         0.1400 
     28 CB          0.6013  -22.0442  -40.0331 C.3       9 UNK        -0.1800 
     29 N           0.7965  -20.4804  -41.9009 N.am      9 UNK        -0.5000 
     30 C           0.8383  -19.9546  -43.1332 C.2       8 UNK         0.5000 
     31 O           0.5697  -20.5751  -44.1630 O.2       8 UNK        -0.5000 
     32 CA          1.1989  -18.4641  -43.2077 C.3       8 UNK         0.1400 
     33 CB          1.9791  -18.1125  -44.4881 C.3       8 UNK        -0.1800 
     34 N          -0.0410  -17.6933  -43.1600 N.am      8 UNK        -0.5000 
     35 C          -0.6324  -17.2592  -42.0372 C.2       7 UNK         0.5000 
     36 O          -0.1529  -17.4332  -40.9158 O.2       7 UNK        -0.5000 
     37 CA         -1.9714  -16.5013  -42.1659 C.3       7 UNK         0.1400 
     38 CB         -1.7689  -15.0056  -41.8765 C.3       7 UNK        -0.1800 
     39 N          -2.5840  -16.6471  -43.4872 N.am      7 UNK        -0.5000 
     40 C          -3.4117  -17.6446  -43.8368 C.2       6 UNK         0.5000 
     41 O          -3.8306  -18.4876  -43.0436 O.2       6 UNK        -0.5000 
     42 CA         -3.8183  -17.7458  -45.3258 C.3       6 UNK         0.1400 
     43 CB         -5.1955  -17.1109  -45.5627 C.3       6 UNK        -0.1800 
     44 N          -2.8499  -17.1344  -46.2382 N.am      6 UNK        -0.5000 
     45 C          -1.5665  -17.5025  -46.3346 C.2       5 UNK         0.5000 
     46 O          -1.1267  -18.5277  -45.8234 O.2       5 UNK        -0.5000 
     47 CA         -0.5882  -16.5455  -47.0346 C.3       5 UNK         0.1400 
     48 CB         -0.0156  -17.1890  -48.2923 C.3       5 UNK        -0.1800 
     49 N          -1.1498  -15.2328  -47.3587 N.am      5 UNK        -0.5000 
     50 C          -1.4867  -14.3021  -46.4598 C.2       4 UNK         0.5000 
     51 O          -1.3895  -14.4762  -45.2431 O.2       4 UNK        -0.5000 
     52 CA         -2.0459  -12.9783  -47.0190 C.3       4 UNK         0.1400 
     53 CB         -2.4490  -11.9932  -45.9066 C.3       4 UNK        -0.1800 
     54 N          -1.1007  -12.3092  -47.9153 N.am      4 UNK        -0.5000 
     55 C          -0.9168  -12.5956  -49.2111 C.2       3 UNK         0.5000 
     56 O          -1.4762  -13.5254  -49.7889 O.2       3 UNK        -0.5000 
     57 CA          0.0511  -11.6961  -50.0022 C.3       3 UNK         0.1400 
     58 CB         -0.7379  -10.6159  -50.7571 C.3       3 UNK        -0.1800 
     59 N           1.0391  -11.0380  -49.1409 N.am      3 UNK        -0.5000 
     60 C           2.2198  -11.5255  -48.7332 C.2       2 UNK         0.5000 
     61 O           2.9385  -10.8843  -47.9653 O.2       2 UNK        -0.5000 
     62 CA          2.7278  -12.8791  -49.2812 C.3       2 UNK         0.1400 
     63 CB          3.4832  -12.6770  -50.6051 C.3       2 UNK        -0.1800 
     64 N           3.6284  -13.5287  -48.3334 N.am      2 UNK        -0.5000 
     65 C           3.2172  -14.2008  -47.2509 C.2       1 UNK         0.5000 
     66 O           2.0341  -14.3441  -46.9444 O.2       1 UNK        -0.5000 
     67 C          -0.3989  -22.7589  -47.0957 C.2       11 UNK         0.5000 
     68 O          -1.0625  -23.2683  -48.0031 O.2       11 UNK        -0.5000 
     69 N          -0.9398  -22.2540  -45.9771 N.am      12 UNK        -0.5000 
     70 CA         -2.3579  -22.3238  -45.6239 C.3       12 UNK         0.1400 
     71 CB         -2.6054  -21.5219  -44.3400 C.3       12 UNK        -0.1800 
     72 C          -2.8761  -23.7655  -45.4566 C.2       12 UNK         0.5000 
     73 O          -4.0628  -24.0008  -45.6782 O.2       12 UNK        -0.5000 
     74 N          -1.9884  -24.6980  -45.0866 N.am      13 UNK        -0.5000 
     75 CA         -2.2798  -26.1242  -44.9873 C.3       13 UNK         0.1400 
     76 CB         -1.5343  -26.7152  -43.7799 C.3       13 UNK        -0.1800 
     77 C          -1.8958  -26.8597  -46.2814 C.2       13 UNK         0.5000 
     78 O          -2.7309  -27.5667  -46.8452 O.2       13 UNK        -0.5000 
     79 N          -0.6397  -26.6961  -46.7212 N.am      14 UNK        -0.5000 
     80 CA         -0.0250  -27.4811  -47.7942 C.3       14 UNK         0.1400 
     81 CB          1.4942  -27.2511  -47.7880 C.3       14 UNK        -0.1800 
     82 C          -0.5993  -27.2023  -49.1926 C.2       14 UNK         0.5000 
     83 O          -0.7695  -28.1424  -49.9701 O.2       14 UNK        -0.5000 
     84 N          -0.8791  -25.9275  -49.4879 N.am      15 UNK        -0.5000 
     85 CA         -1.4008  -25.4730  -50.7796 C.3       15 UNK         0.1400 
     86 CB         -0.4725  -24.3728  -51.3192 C.3       15 UNK        -0.1800 
     87 C          -2.8397  -24.9445  -50.6633 C.2       15 UNK         0.5000 
     88 O          -3.3775  -24.4488  -51.6548 O.2       15 UNK        -0.5000 
     89 N          -3.4189  -24.9959  -49.4540 N.am      16 UNK        -0.5000 
     90 CA         -4.7063  -24.4051  -49.0741 C.3       16 UNK         0.1400 
     91 CB         -5.8707  -25.1490  -49.7615 C.3       16 UNK        -0.1800 
     92 C          -4.7408  -22.8786  -49.3106 C.2       16 UNK         0.5000 
     93 O          -5.7624  -22.3527  -49.7504 O.2       16 UNK        -0.5000 
     94 N          -3.6009  -22.2060  -49.0752 N.am      17 UNK        -0.5000 
     95 CA         -3.3340  -20.7956  -49.3887 C.3       17 UNK         0.1400 
     96 CB         -4.2011  -19.8571  -48.5246 C.3       17 UNK        -0.1800 
     97 C          -3.4614  -20.5123  -50.9012 C.2       17 UNK         0.5000 
     98 O          -4.1025  -19.5389  -51.2990 O.2       17 UNK        -0.5000 
     99 N          -2.8758  -21.4100  -51.7092 N.am      18 UNK        -0.5000 
    100 CA        -2.9496  -21.4711  -53.1735 C.3       18 UNK         0.1400 
    101 CB        -2.1952  -20.2891  -53.8148 C.3       18 UNK        -0.1800 
    102 C         -4.4035  -21.6068  -53.6682 C.2       18 UNK         0.5000 
    103 O         -4.8563  -20.8132  -54.4930 O.2       18 UNK        -0.5000 
    104 N         -5.1204  -22.5940  -53.1102 N.am      19 UNK        -0.5000 
    105 CA        -6.5507  -22.8609  -53.3137 C.3       19 UNK         0.1400 
    106 CB        -6.8022  -23.4142  -54.7315 C.3       19 UNK        -0.1800 
    107 C         -7.4290  -21.6354  -52.9738 C.2       19 UNK         0.5000 
    108 O         -8.2941  -21.2440  -53.7590 O.2       19 UNK        -0.5000 
    109 N         -7.1450  -21.0386  -51.8091 N.am      20 UNK        -0.5000 
    110 CA        -7.7451  -19.8446  -51.2100 C.3       20 UNK         0.1400 
    111 CB        -9.2545  -20.0464  -50.9663 C.3       20 UNK        -0.1800 
    112 C         -7.4510  -18.5142  -51.9357 C.2       20 UNK         0.5000 
    113 O         -7.9204  -17.4758  -51.4661 O.2       20 UNK        -0.5000 
    114 N         -6.6651  -18.5251  -53.0238 N.am      21 UNK        -0.5000 
    115 CA        -6.3067  -17.3289  -53.7961 C.3       21 UNK         0.1400 
    116 CB        -5.5864  -17.7419  -55.0874 C.3       21 UNK        -0.1800 
    117 C         -5.4490  -16.3220  -53.0057 C.2       21 UNK         0.5000 
    118 O         -5.5565  -15.1176  -53.2413 O.2       21 UNK        -0.5000 
    119 N         -4.6421  -16.8348  -52.0726 N.am      22 UNK        -0.5000 
    120 CA        -3.8143  -16.0695  -51.1312 C.3       22 UNK         0.1400 
    121 C         -4.4457  -16.0176  -49.7056 C.2       22 UNK         0.5000 
    122 N         -5.7177  -16.3573  -49.5246 N.am      22 UNK        -0.7600 
    123 O         -3.7828  -15.6588  -48.7375 O.2       22 UNK        -0.5000 
    124 C124       -2.3579  -16.6023  -51.1149 C.3       23 UNK        -0.0398 
    125 S125       -1.5685  -16.5678  -52.7639 S.3       23 UNK        -0.2404 
    126 C126        0.1509  -16.0979  -52.3614 C.3       23 UNK        -0.0205 
    127 H127        7.0578  -12.0212  -45.4472 H         1 UNK         0.0600 
    128 H128        6.4078  -11.7190  -43.8335 H         1 UNK         0.0600 
    129 H129        5.8403  -10.7649  -45.2083 H         1 UNK         0.0600 
    130 H130        6.2047  -13.8408  -46.3875 H         1 UNK         0.3000 
    131 H131        3.8378  -15.1739  -45.4536 H         1 UNK         0.0600 
    132 H132        5.6986  -15.6775  -47.8242 H         1 UNK         0.0800 
    133 H133        5.7051  -16.4801  -46.2855 H         1 UNK         0.0800 
    134 H134        4.3352  -16.0775  -49.6939 H         1 UNK         0.0800 
    135 H135        5.0192  -17.6850  -49.7814 H         1 UNK         0.0800 
    136 H136        2.4401  -15.6788  -51.0234 H         1 UNK         0.1150 
    137 H137       -0.3094  -18.8316  -51.9627 H         1 UNK         0.1150 
    138 H138        3.1416  -19.6189  -49.5471 H         1 UNK         0.1150 
    139 H139       -0.1246  -20.8461  -50.1761 H         1 UNK         0.0800 
    140 H140        0.7131  -21.2261  -51.6592 H         1 UNK         0.0800 
    141 H141        1.0375  -20.6769  -47.9277 H         1 UNK         0.0800 
    142 H142        2.6510  -21.2405  -47.6284 H         1 UNK         0.0800 
    143 H143        1.4095  -23.6731  -47.7121 H         1 UNK         0.0600 
    144 H144        2.1678  -22.0129  -45.4763 H         1 UNK         0.3000 
    145 H145        2.4547  -24.9083  -43.3177 H         1 UNK         0.0600 
    146 H146        4.5890  -23.7162  -43.0455 H         1 UNK         0.0600 
    147 H147        4.4912  -24.3599  -44.6762 H         1 UNK         0.0600 
    148 H148        4.2208  -22.6440  -44.3944 H         1 UNK         0.0600 
    149 H149        2.5379  -22.1226  -42.6739 H         1 UNK         0.3000 
    150 H150       -0.8105  -21.7413  -41.6063 H         1 UNK         0.0600 
    151 H151        0.1622  -21.2751  -39.3974 H         1 UNK         0.0600 
    152 H152        0.2049  -23.0040  -39.6984 H         1 UNK         0.0600 
    153 H153        1.6775  -22.0535  -39.8558 H         1 UNK         0.0600 
    154 H154        1.0154  -19.8634  -41.1311 H         1 UNK         0.3000 
    155 H155        1.8333  -18.2072  -42.3567 H         1 UNK         0.0600 
    156 H156        1.4439  -18.3965  -45.3938 H         1 UNK         0.0600 
    157 H157        2.9397  -18.6280  -44.5091 H         1 UNK         0.0600 
    158 H158        2.1833  -17.0432  -44.5455 H         1 UNK         0.0600 
    159 H159       -0.5492  -17.6379  -44.0335 H         1 UNK         0.3000 
    160 H160       -2.6473  -16.8997  -41.4065 H         1 UNK         0.0600 
    161 H161       -1.3839  -14.8518  -40.8677 H         1 UNK         0.0600 
    162 H162       -2.7080  -14.4572  -41.9527 H         1 UNK         0.0600 
    163 H163       -1.0587  -14.5533  -42.5694 H         1 UNK         0.0600 
    164 H164       -2.2857  -15.9786  -44.1912 H         1 UNK         0.3000 
    165 H165       -3.8825  -18.8076  -45.5670 H         1 UNK         0.0600 
    166 H166       -5.5303  -17.2754  -46.5868 H         1 UNK         0.0600 
    167 H167       -5.9466  -17.5457  -44.9021 H         1 UNK         0.0600 
    168 H168       -5.1784  -16.0354  -45.3817 H         1 UNK         0.0600 
    169 H169       -3.1554  -16.3261  -46.7678 H         1 UNK         0.3000 
    170 H170        0.2411  -16.3766  -46.3450 H         1 UNK         0.0600 
    171 H171       -0.7966  -17.5436  -48.9614 H         1 UNK         0.0600 
    172 H172        0.6075  -16.4743  -48.8246 H         1 UNK         0.0600 
    173 H173        0.6100  -18.0453  -48.0383 H         1 UNK         0.0600 
    174 H174       -1.3105  -15.0203  -48.3368 H         1 UNK         0.3000 
    175 H175       -2.9493  -13.2255  -47.5809 H         1 UNK         0.0600 
    176 H176       -1.5919  -11.6981  -45.2999 H         1 UNK         0.0600 
    177 H177       -2.8938  -11.0890  -46.3226 H         1 UNK         0.0600 
    178 H178       -3.1877  -12.4381  -45.2385 H         1 UNK         0.0600 
    179 H179       -0.5535  -11.5650  -47.5090 H         1 UNK         0.3000 
    180 H180        0.5458  -12.3123  -50.7535 H         1 UNK         0.0600 
    181 H181       -1.2752   -9.9556  -50.0750 H         1 UNK         0.0600 
    182 H182       -1.4736  -11.0651  -51.4260 H         1 UNK         0.0600 
    183 H183       -0.0777  -10.0011  -51.3693 H         1 UNK         0.0600 
    184 H184        0.7701  -10.1260  -48.8021 H         1 UNK         0.3000 
    185 H185        1.8902  -13.5566  -49.4530 H         1 UNK         0.0600 
    186 H186        2.8433  -12.2251  -51.3634 H         1 UNK         0.0600 
    187 H187        4.3468  -12.0229  -50.4780 H         1 UNK         0.0600 
    188 H188        3.8398  -13.6256  -51.0067 H         1 UNK         0.0600 
    189 H189        4.6164  -13.3834  -48.4761 H         1 UNK         0.3000 
    190 H190       -0.3320  -21.7890  -45.3055 H         1 UNK         0.3000 
    191 H191       -2.9231  -21.8555  -46.4289 H         1 UNK         0.0600 
    192 H192       -2.2307  -20.5031  -44.4280 H         1 UNK         0.0600 
    193 H193       -3.6710  -21.4585  -44.1167 H         1 UNK         0.0600 
    194 H194       -2.1175  -21.9846  -43.4837 H         1 UNK         0.0600 
    195 H195       -1.0346  -24.4174  -44.8999 H         1 UNK         0.3000 
    196 H196       -3.3482  -26.2768  -44.8195 H         1 UNK         0.0600 
    197 H197       -1.7227  -27.7856  -43.6886 H         1 UNK         0.0600 
    198 H198       -1.8614  -26.2465  -42.8516 H         1 UNK         0.0600 
    199 H199       -0.4554  -26.5753  -43.8573 H         1 UNK         0.0600 
    200 H200       -0.0093  -26.0866  -46.2026 H         1 UNK         0.3000 
    201 H201       -0.2031  -28.5357  -47.5730 H         1 UNK         0.0600 
    202 H202        1.9302  -27.5224  -46.8263 H         1 UNK         0.0600 
    203 H203        1.7445  -26.2083  -47.9862 H         1 UNK         0.0600 
    204 H204        1.9855  -27.8573  -48.5501 H         1 UNK         0.0600 
    205 H205       -0.7258  -25.2077  -48.7907 H         1 UNK         0.3000 
    206 H206       -1.4185  -26.2882  -51.5052 H         1 UNK         0.0600 
    207 H207        0.5597  -24.7187  -51.3770 H         1 UNK         0.0600 
    208 H208       -0.7661  -24.0641  -52.3230 H         1 UNK         0.0600 
    209 H209       -0.4933  -23.4885  -50.6832 H         1 UNK         0.0600 
    210 H210       -2.8968  -25.4314  -48.7074 H         1 UNK         0.3000 
    211 H211       -4.8189  -24.5573  -48.0030 H         1 UNK         0.0600 
    212 H212       -5.8559  -25.0207  -50.8434 H         1 UNK         0.0600 
    213 H213       -6.8341  -24.7854  -49.4022 H         1 UNK         0.0600 
    214 H214       -5.8307  -26.2178  -49.5518 H         1 UNK         0.0600 
    215 H215       -2.8023  -22.7313  -48.7297 H         1 UNK         0.3000 
    216 H216       -2.2925  -20.6125  -49.1219 H         1 UNK         0.0600 
    217 H217       -3.8763  -18.8217  -48.6303 H         1 UNK         0.0600 
    218 H218       -4.1286  -20.1134  -47.4697 H         1 UNK         0.0600 
    219 H219       -5.2537  -19.8980  -48.8042 H         1 UNK         0.0600 
    220 H220       -2.4495  -22.2146  -51.2746 H         1 UNK         0.3000 
    221 H221       -2.4394  -22.3870  -53.4749 H         1 UNK         0.0600 
    222 H222       -2.6293  -19.3289  -53.5360 H         1 UNK         0.0600 
    223 H223       -1.1471  -20.2880  -53.5197 H         1 UNK         0.0600 
    224 H224       -2.2206  -20.3534  -54.9031 H         1 UNK         0.0600 
    225 H225       -4.6407  -23.2103  -52.4590 H         1 UNK         0.3000 
    226 H226       -6.8254  -23.6401  -52.6021 H         1 UNK         0.0600 
    227 H227       -6.1875  -24.2931  -54.9252 H         1 UNK         0.0600 
    228 H228       -7.8437  -23.7132  -54.8544 H         1 UNK         0.0600 
    229 H229       -6.5814  -22.6743  -55.5015 H         1 UNK         0.0600 
    230 H230       -6.4364  -21.4760  -51.2227 H         1 UNK         0.3000 
    231 H231       -7.2707  -19.7508  -50.2324 H         1 UNK         0.0600 
    232 H232       -9.8159  -20.0843  -51.9000 H         1 UNK         0.0600 
    233 H233       -9.6678  -19.2300  -50.3729 H         1 UNK         0.0600 
    234 H234       -9.4455  -20.9702  -50.4201 H         1 UNK         0.0600 
    235 H235       -6.2722  -19.4041  -53.3374 H         1 UNK         0.3000 
    236 H236       -7.2355  -16.8262  -54.0730 H         1 UNK         0.0600 
    237 H237       -6.1757  -18.4581  -55.6604 H         1 UNK         0.0600 
    238 H238       -5.4096  -16.8769  -55.7277 H         1 UNK         0.0600 
    239 H239       -4.6165  -18.1940  -54.8768 H         1 UNK         0.0600 
    240 H240       -4.6165  -17.8437  -51.9407 H         1 UNK         0.3000 
    241 H241       -3.7668  -15.0284  -51.4543 H         1 UNK         0.0600 
    242 H242       -6.3009  -16.6325  -50.3038 H         1 UNK         0.3800 
    243 H243       -6.1125  -16.3010  -48.6011 H         1 UNK         0.3800 
    244 H244       -1.7515  -16.0090  -50.4321 H         1 UNK         0.0800 
    245 H245       -2.3303  -17.6259  -50.7426 H         1 UNK         0.0800 
    246 H246        0.1271  -15.1617  -51.8009 H         1 UNK         0.0800 
    247 H247        0.6699  -15.8831  -53.2962 H         1 UNK         0.0800 
@<TRIPOS>BOND
     1    1    2 1    
     2    1  127 1    
     3    1  128 1    
     4    1  129 1    
     5    2    3 2    
     6    2    4 am   BACKBONE|DICT|INTERRES
     7    4    5 1    
     8    4  130 1    
     9    5    6 1    
    10    5   65 1    
    11    5  131 1    
    12    6    7 1    
    13    6  132 1    
    14    6  133 1    
    15    7    8 1    
    16    8    9 1    
    17    8  134 1    
    18    8  135 1    
    19    9   10 ar   
    20    9   14 ar   
    21   10   11 ar   
    22   10  136 1    
    23   11   12 ar   
    24   11  126 1    
    25   12   13 ar   
    26   12  137 1    
    27   13   14 ar   
    28   13   15 1    
    29   14  138 1    
    30   15   16 1    
    31   15  139 1    
    32   15  140 1    
    33   16   17 1    
    34   17   18 1    
    35   17  141 1    
    36   17  142 1    
    37   18   19 1    
    38   18   67 1    
    39   18  143 1    
    40   19   20 am   BACKBONE|DICT|INTERRES
    41   19  144 1    
    42   20   21 2    
    43   20   22 1    
    44   22   23 1    
    45   22   24 1    
    46   22  145 1    
    47   23  146 1    
    48   23  147 1    
    49   23  148 1    
    50   24   25 am   BACKBONE|DICT|INTERRES
    51   24  149 1    
    52   25   26 2    
    53   25   27 1    
    54   27   28 1    
    55   27   29 1    
    56   27  150 1    
    57   28  151 1    
    58   28  152 1    
    59   28  153 1    
    60   29   30 am   BACKBONE|DICT|INTERRES
    61   29  154 1    
    62   30   31 2    
    63   30   32 1    
    64   32   33 1    
    65   32   34 1    
    66   32  155 1    
    67   33  156 1    
    68   33  157 1    
    69   33  158 1    
    70   34   35 am   BACKBONE|DICT|INTERRES
    71   34  159 1    
    72   35   36 2    
    73   35   37 1    
    74   37   38 1    
    75   37   39 1    
    76   37  160 1    
    77   38  161 1    
    78   38  162 1    
    79   38  163 1    
    80   39   40 am   BACKBONE|DICT|INTERRES
    81   39  164 1    
    82   40   41 2    
    83   40   42 1    
    84   42   43 1    
    85   42   44 1    
    86   42  165 1    
    87   43  166 1    
    88   43  167 1    
    89   43  168 1    
    90   44   45 am   BACKBONE|DICT|INTERRES
    91   44  169 1    
    92   45   46 2    
    93   45   47 1    
    94   47   48 1    
    95   47   49 1    
    96   47  170 1    
    97   48  171 1    
    98   48  172 1    
    99   48  173 1    
   100   49   50 am   BACKBONE|DICT|INTERRES
   101   49  174 1    
   102   50   51 2    
   103   50   52 1    
   104   52   53 1    
   105   52   54 1    
   106   52  175 1    
   107   53  176 1    
   108   53  177 1    
   109   53  178 1    
   110   54   55 am   BACKBONE|DICT|INTERRES
   111   54  179 1    
   112   55   56 2    
   113   55   57 1    
   114   57   58 1    
   115   57   59 1    
   116   57  180 1    
   117   58  181 1    
   118   58  182 1    
   119   58  183 1    
   120   59   60 am   BACKBONE|DICT|INTERRES
   121   59  184 1    
   122   60   61 2    
   123   60   62 1    
   124   62   63 1    
   125   62   64 1    
   126   62  185 1    
   127   63  186 1    
   128   63  187 1    
   129   63  188 1    
   130   64   65 am   BACKBONE|DICT|INTERRES
   131   64  189 1    
   132   65   66 2    
   133   67   68 2    
   134   67   69 am   BACKBONE|DICT|INTERRES
   135   69   70 1    
   136   69  190 1    
   137   70   71 1    
   138   70   72 1    
   139   70  191 1    
   140   71  192 1    
   141   71  193 1    
   142   71  194 1    
   143   72   73 2    
   144   72   74 am   BACKBONE|DICT|INTERRES
   145   74   75 1    
   146   74  195 1    
   147   75   76 1    
   148   75   77 1    
   149   75  196 1    
   150   76  197 1    
   151   76  198 1    
   152   76  199 1    
   153   77   78 2    
   154   77   79 am   BACKBONE|DICT|INTERRES
   155   79   80 1    
   156   79  200 1    
   157   80   81 1    
   158   80   82 1    
   159   80  201 1    
   160   81  202 1    
   161   81  203 1    
   162   81  204 1    
   163   82   83 2    
   164   82   84 am   BACKBONE|DICT|INTERRES
   165   84   85 1    
   166   84  205 1    
   167   85   86 1    
   168   85   87 1    
   169   85  206 1    
   170   86  207 1    
   171   86  208 1    
   172   86  209 1    
   173   87   88 2    
   174   87   89 am   BACKBONE|DICT|INTERRES
   175   89   90 1    
   176   89  210 1    
   177   90   91 1    
   178   90   92 1    
   179   90  211 1    
   180   91  212 1    
   181   91  213 1    
   182   91  214 1    
   183   92   93 2    
   184   92   94 am   BACKBONE|DICT|INTERRES
   185   94   95 1    
   186   94  215 1    
   187   95   96 1    
   188   95   97 1    
   189   95  216 1    
   190   96  217 1    
   191   96  218 1    
   192   96  219 1    
   193   97   98 2    
   194   97   99 am   BACKBONE|DICT|INTERRES
   195   99  100 1    
   196   99  220 1    
   197  100  101 1    
   198  100  102 1    
   199  100  221 1    
   200  101  222 1    
   201  101  223 1    
   202  101  224 1    
   203  102  103 2    
   204  102  104 am   BACKBONE|DICT|INTERRES
   205  104  105 1    
   206  104  225 1    
   207  105  106 1    
   208  105  107 1    
   209  105  226 1    
   210  106  227 1    
   211  106  228 1    
   212  106  229 1    
   213  107  108 2    
   214  107  109 am   BACKBONE|DICT|INTERRES
   215  109  110 1    
   216  109  230 1    
   217  110  111 1    
   218  110  112 1    
   219  110  231 1    
   220  111  232 1    
   221  111  233 1    
   222  111  234 1    
   223  112  113 2    
   224  112  114 am   BACKBONE|DICT|INTERRES
   225  114  115 1    
   226  114  235 1    
   227  115  116 1    
   228  115  117 1    
   229  115  236 1    
   230  116  237 1    
   231  116  238 1    
   232  116  239 1    
   233  117  118 2    
   234  117  119 am   BACKBONE|DICT|INTERRES
   235  119  120 1    
   236  119  240 1    
   237  120  121 1    
   238  120  124 1    
   239  120  241 1    
   240  121  122 am   BACKBONE|DICT|INTERRES
   241  121  123 2    
   242  122  242 1    
   243  122  243 1    
   244  124  125 1    
   245  124  244 1    
   246  124  245 1    
   247  125  126 1    
   248  126  246 1    
   249  126  247 1    
@<TRIPOS>SUBSTRUCTURE
     1 UNK         1 GROUP             0       ****    0 ROOT    
