@<TRIPOS>MOLECULE
3R540
247   249    1
SMALL
USER_CHARGES


@<TRIPOS>ATOM
      1 CA          0.8391  -15.6146  -54.4414 C.3       0 UNK        -0.1800 
      2 C           1.3231  -16.3997  -53.2303 C.2       0 UNK         0.5000 
      3 O           2.1205  -17.3244  -53.3809 O.2       0 UNK        -0.5000 
      4 N           0.8406  -16.0316  -52.0366 N.am      1 UNK        -0.5000 
      5 CA          1.1644  -16.6723  -50.7576 C.3       1 UNK         0.1400 
      6 C6          0.3064  -16.1055  -49.6029 C.3       23 UNK        -0.0398 
      7 S7         -1.4300  -16.6173  -49.6967 S.3       23 UNK        -0.2404 
      8 C8         -2.0116  -15.9507  -48.1130 C.3       23 UNK        -0.0205 
      9 C9         -3.2854  -16.6345  -47.6552 C.ar      23 UNK        -0.0193 
     10 C10        -4.5331  -16.0607  -47.9062 C.ar      23 UNK        -0.1150 
     11 C11        -5.6969  -16.6474  -47.3993 C.ar      23 UNK        -0.0193 
     12 C12        -5.6029  -17.8160  -46.6347 C.ar      23 UNK        -0.1150 
     13 C13        -4.3600  -18.4125  -46.4002 C.ar      23 UNK        -0.0193 
     14 C14        -3.2085  -17.8236  -46.9292 C.ar      23 UNK        -0.1150 
     15 C15        -4.2520  -19.6993  -45.5948 C.3       23 UNK        -0.0205 
     16 S16        -3.0698  -19.5417  -44.2129 S.3       23 UNK        -0.2404 
     17 C17        -2.6825  -21.2875  -43.8363 C.3       23 UNK        -0.0398 
     18 CA         -1.9070  -22.0180  -44.9618 C.3       11 UNK         0.1400 
     19 N          -0.7654  -21.2526  -45.4630 N.am      11 UNK        -0.5000 
     20 C          -0.3124  -21.3035  -46.7208 C.2       10 UNK         0.5000 
     21 O          -0.8399  -21.9723  -47.6111 O.2       10 UNK        -0.5000 
     22 CA          0.9502  -20.4810  -47.0410 C.3       10 UNK         0.1400 
     23 CB          0.5678  -19.1017  -47.5916 C.3       10 UNK        -0.1800 
     24 N           1.8429  -20.3032  -45.8943 N.am      10 UNK        -0.5000 
     25 C           2.5227  -21.2939  -45.3024 C.2       9 UNK         0.5000 
     26 O           2.4884  -22.4627  -45.6821 O.2       9 UNK        -0.5000 
     27 CA          3.3295  -20.9329  -44.0405 C.3       9 UNK         0.1400 
     28 CB          4.7473  -20.4868  -44.4274 C.3       9 UNK        -0.1800 
     29 N           2.7174  -19.9024  -43.1944 N.am      9 UNK        -0.5000 
     30 C           1.4715  -19.9192  -42.6984 C.2       8 UNK         0.5000 
     31 O           0.6520  -20.8062  -42.9541 O.2       8 UNK        -0.5000 
     32 CA          1.0904  -18.7318  -41.7893 C.3       8 UNK         0.1400 
     33 CB          1.5151  -17.3843  -42.3989 C.3       8 UNK        -0.1800 
     34 N          -0.3460  -18.6898  -41.5162 N.am      8 UNK        -0.5000 
     35 C          -0.9621  -19.4014  -40.5631 C.2       7 UNK         0.5000 
     36 O          -0.3726  -20.1693  -39.7994 O.2       7 UNK        -0.5000 
     37 CA         -2.4899  -19.2036  -40.4367 C.3       7 UNK         0.1400 
     38 CB         -3.0574  -19.7386  -39.1052 C.3       7 UNK        -0.1800 
     39 N          -2.9251  -17.8190  -40.6591 N.am      7 UNK        -0.5000 
     40 C          -2.5593  -16.7280  -39.9711 C.2       6 UNK         0.5000 
     41 O          -1.7392  -16.7424  -39.0513 O.2       6 UNK        -0.5000 
     42 CA         -3.2290  -15.3991  -40.3873 C.3       6 UNK         0.1400 
     43 CB         -2.7064  -14.1939  -39.5836 C.3       6 UNK        -0.1800 
     44 N          -3.0730  -15.1021  -41.8120 N.am      6 UNK        -0.5000 
     45 C          -3.7567  -15.6581  -42.8215 C.2       5 UNK         0.5000 
     46 O          -4.5982  -16.5418  -42.6576 O.2       5 UNK        -0.5000 
     47 CA         -3.4625  -15.1381  -44.2436 C.3       5 UNK         0.1400 
     48 CB         -4.6504  -14.3197  -44.7728 C.3       5 UNK        -0.1800 
     49 N          -2.2518  -14.3134  -44.3177 N.am      5 UNK        -0.5000 
     50 C          -1.0063  -14.8025  -44.3538 C.2       4 UNK         0.5000 
     51 O          -0.7479  -16.0060  -44.3932 O.2       4 UNK        -0.5000 
     52 CA          0.1264  -13.7612  -44.2583 C.3       4 UNK         0.1400 
     53 CB          0.3006  -13.3001  -42.8013 C.3       4 UNK        -0.1800 
     54 N           1.4118  -14.2694  -44.7398 N.am      4 UNK        -0.5000 
     55 C           1.7149  -14.4658  -46.0271 C.2       3 UNK         0.5000 
     56 O           0.9420  -14.2229  -46.9592 O.2       3 UNK        -0.5000 
     57 CA          3.1202  -15.0163  -46.3245 C.3       3 UNK         0.1400 
     58 CB          3.2305  -16.4993  -45.9175 C.3       3 UNK        -0.1800 
     59 N           3.3652  -14.8657  -47.7541 N.am      3 UNK        -0.5000 
     60 C           4.5316  -14.9776  -48.4017 C.2       2 UNK         0.5000 
     61 O           5.6086  -15.1687  -47.8345 O.2       2 UNK        -0.5000 
     62 CA          4.4697  -14.8575  -49.9459 C.3       2 UNK         0.1400 
     63 CB          5.6542  -15.5496  -50.6522 C.3       2 UNK        -0.1800 
     64 N           3.1856  -15.3123  -50.5026 N.am      2 UNK        -0.5000 
     65 C           2.6502  -16.5381  -50.3732 C.2       1 UNK         0.5000 
     66 O           3.2442  -17.5098  -49.9065 O.2       1 UNK        -0.5000 
     67 C          -1.4544  -23.4177  -44.5086 C.2       11 UNK         0.5000 
     68 O          -2.1974  -24.3791  -44.7015 O.2       11 UNK        -0.5000 
     69 N          -0.2315  -23.5212  -43.9652 N.am      12 UNK        -0.5000 
     70 CA          0.4160  -24.7860  -43.6052 C.3       12 UNK         0.1400 
     71 CB          1.6813  -24.5004  -42.7831 C.3       12 UNK        -0.1800 
     72 C           0.7445  -25.6500  -44.8395 C.2       12 UNK         0.5000 
     73 O           0.5468  -26.8647  -44.8032 O.2       12 UNK        -0.5000 
     74 N           1.1957  -25.0001  -45.9223 N.am      13 UNK        -0.5000 
     75 CA          1.4116  -25.5992  -47.2433 C.3       13 UNK         0.1400 
     76 CB          2.2326  -24.6221  -48.0990 C.3       13 UNK        -0.1800 
     77 C           0.1021  -25.9708  -47.9705 C.2       13 UNK         0.5000 
     78 O           0.1387  -26.7961  -48.8840 O.2       13 UNK        -0.5000 
     79 N          -1.0104  -25.3623  -47.5344 N.am      14 UNK        -0.5000 
     80 CA         -2.3859  -25.4696  -48.0237 C.3       14 UNK         0.1400 
     81 CB         -2.8696  -26.9338  -48.0444 C.3       14 UNK        -0.1800 
     82 C          -2.6127  -24.7753  -49.3790 C.2       14 UNK         0.5000 
     83 O          -1.6701  -24.5103  -50.1294 O.2       14 UNK        -0.5000 
     84 N          -3.8920  -24.4749  -49.6506 N.am      15 UNK        -0.5000 
     85 CA         -4.4173  -23.8566  -50.8747 C.3       15 UNK         0.1400 
     86 CB         -4.3993  -24.8758  -52.0324 C.3       15 UNK        -0.1800 
     87 C          -3.7464  -22.5121  -51.2317 C.2       15 UNK         0.5000 
     88 O          -3.5419  -22.2194  -52.4117 O.2       15 UNK        -0.5000 
     89 N          -3.4049  -21.7305  -50.1932 N.am      16 UNK        -0.5000 
     90 CA         -2.7263  -20.4320  -50.2510 C.3       16 UNK         0.1400 
     91 CB         -3.6705  -19.3836  -50.8686 C.3       16 UNK        -0.1800 
     92 C          -1.3687  -20.5409  -50.9737 C.2       16 UNK         0.5000 
     93 O          -1.1885  -19.9700  -52.0499 O.2       16 UNK        -0.5000 
     94 N          -0.4751  -21.3579  -50.3950 N.am      17 UNK        -0.5000 
     95 CA          0.8361  -21.7648  -50.9214 C.3       17 UNK         0.1400 
     96 CB          1.8043  -20.5654  -50.9677 C.3       17 UNK        -0.1800 
     97 C           0.7419  -22.4915  -52.2807 C.2       17 UNK         0.5000 
     98 O           1.6422  -22.3672  -53.1123 O.2       17 UNK        -0.5000 
     99 N          -0.3744  -23.2039  -52.4901 N.am      18 UNK        -0.5000 
    100 CA        -0.8184  -23.8439  -53.7323 C.3       18 UNK         0.1400 
    101 CB         0.1262  -25.0001  -54.1190 C.3       18 UNK        -0.1800 
    102 C         -1.0724  -22.8694  -54.9069 C.2       18 UNK         0.5000 
    103 O         -1.2465  -23.3284  -56.0373 O.2       18 UNK        -0.5000 
    104 N         -1.1052  -21.5556  -54.6408 N.am      19 UNK        -0.5000 
    105 CA        -1.3085  -20.5103  -55.6433 C.3       19 UNK         0.1400 
    106 CB        -0.4446  -19.2922  -55.2758 C.3       19 UNK        -0.1800 
    107 C         -2.7846  -20.0964  -55.7729 C.2       19 UNK         0.5000 
    108 O         -3.1244  -19.4146  -56.7406 O.2       19 UNK        -0.5000 
    109 N         -3.6268  -20.4838  -54.7999 N.am      20 UNK        -0.5000 
    110 CA        -5.0502  -20.1433  -54.6734 C.3       20 UNK         0.1400 
    111 CB        -5.8735  -20.7751  -55.8145 C.3       20 UNK        -0.1800 
    112 C         -5.3099  -18.6278  -54.5126 C.2       20 UNK         0.5000 
    113 O         -6.3961  -18.1477  -54.8422 O.2       20 UNK        -0.5000 
    114 N         -4.3173  -17.9018  -53.9753 N.am      21 UNK        -0.5000 
    115 CA        -4.3101  -16.4467  -53.7877 C.3       21 UNK         0.1400 
    116 CB        -2.9103  -16.0214  -53.3190 C.3       21 UNK        -0.1800 
    117 C         -5.4002  -15.9116  -52.8338 C.2       21 UNK         0.5000 
    118 O         -5.7321  -14.7275  -52.8995 O.2       21 UNK        -0.5000 
    119 N         -5.9548  -16.7927  -51.9922 N.am      22 UNK        -0.5000 
    120 CA        -7.1480  -16.5453  -51.1684 C.3       22 UNK         0.1400 
    121 C         -8.4759  -16.4494  -51.9844 C.2       22 UNK         0.5000 
    122 N         -8.5289  -16.8914  -53.2369 N.am      22 UNK        -0.7600 
    123 O         -9.4760  -15.9450  -51.4821 O.2       22 UNK        -0.5000 
    124 C124       -7.2370  -17.5987  -50.0334 C.3       23 UNK        -0.0398 
    125 S125       -8.2077  -17.0833  -48.5739 S.3       23 UNK        -0.2404 
    126 C126       -7.0495  -16.0012  -47.6687 C.3       23 UNK        -0.0205 
    127 H127        1.6854  -15.1608  -54.9571 H         1 UNK         0.0600 
    128 H128        0.1464  -14.8207  -54.1608 H         1 UNK         0.0600 
    129 H129        0.3295  -16.2782  -55.1396 H         1 UNK         0.0600 
    130 H130        0.1700  -15.2784  -51.9884 H         1 UNK         0.3000 
    131 H131        0.9478  -17.7374  -50.8565 H         1 UNK         0.0600 
    132 H132        0.6870  -16.4392  -48.6363 H         1 UNK         0.0800 
    133 H133        0.3479  -15.0150  -49.5830 H         1 UNK         0.0800 
    134 H134       -2.1642  -14.8745  -48.2067 H         1 UNK         0.0800 
    135 H135       -1.2460  -16.0822  -47.3461 H         1 UNK         0.0800 
    136 H136       -4.5934  -15.1458  -48.4786 H         1 UNK         0.1150 
    137 H137       -6.5014  -18.2649  -46.2352 H         1 UNK         0.1150 
    138 H138       -2.2445  -18.2731  -46.7407 H         1 UNK         0.1150 
    139 H139       -5.2234  -19.9960  -45.1966 H         1 UNK         0.0800 
    140 H140       -3.9398  -20.4862  -46.2792 H         1 UNK         0.0800 
    141 H141       -3.6137  -21.8110  -43.6127 H         1 UNK         0.0800 
    142 H142       -2.0990  -21.2967  -42.9144 H         1 UNK         0.0800 
    143 H143       -2.6023  -22.1820  -45.7863 H         1 UNK         0.0600 
    144 H144       -0.2564  -20.7168  -44.7698 H         1 UNK         0.3000 
    145 H145        1.4978  -21.0215  -47.8152 H         1 UNK         0.0600 
    146 H146        0.1245  -18.4662  -46.8241 H         1 UNK         0.0600 
    147 H147        1.4457  -18.5919  -47.9864 H         1 UNK         0.0600 
    148 H148       -0.1502  -19.1836  -48.4079 H         1 UNK         0.0600 
    149 H149        1.9144  -19.3746  -45.5075 H         1 UNK         0.3000 
    150 H150        3.4121  -21.8371  -43.4358 H         1 UNK         0.0600 
    151 H151        5.2407  -21.2413  -45.0418 H         1 UNK         0.0600 
    152 H152        5.3684  -20.3334  -43.5447 H         1 UNK         0.0600 
    153 H153        4.7354  -19.5563  -44.9966 H         1 UNK         0.0600 
    154 H154        3.3209  -19.1359  -42.9354 H         1 UNK         0.3000 
    155 H155        1.6232  -18.8564  -40.8444 H         1 UNK         0.0600 
    156 H156        2.5977  -17.2587  -42.3699 H         1 UNK         0.0600 
    157 H157        1.0838  -16.5462  -41.8514 H         1 UNK         0.0600 
    158 H158        1.2030  -17.3032  -43.4393 H         1 UNK         0.0600 
    159 H159       -0.9046  -18.1101  -42.1259 H         1 UNK         0.3000 
    160 H160       -2.9403  -19.7929  -41.2342 H         1 UNK         0.0600 
    161 H161       -4.1385  -19.6077  -39.0566 H         1 UNK         0.0600 
    162 H162       -2.6189  -19.2316  -38.2452 H         1 UNK         0.0600 
    163 H163       -2.8567  -20.8048  -38.9940 H         1 UNK         0.0600 
    164 H164       -3.5889  -17.6785  -41.4162 H         1 UNK         0.3000 
    165 H165       -4.2944  -15.5015  -40.1710 H         1 UNK         0.0600 
    166 H166       -1.6415  -14.0286  -39.7524 H         1 UNK         0.0600 
    167 H167       -3.2349  -13.2797  -39.8548 H         1 UNK         0.0600 
    168 H168       -2.8517  -14.3429  -38.5129 H         1 UNK         0.0600 
    169 H169       -2.3854  -14.4027  -42.0446 H         1 UNK         0.3000 
    170 H170       -3.3355  -16.0124  -44.8813 H         1 UNK         0.0600 
    171 H171       -4.8443  -13.4426  -44.1543 H         1 UNK         0.0600 
    172 H172       -4.4719  -13.9796  -45.7929 H         1 UNK         0.0600 
    173 H173       -5.5609  -14.9204  -44.7879 H         1 UNK         0.0600 
    174 H174       -2.3896  -13.3131  -44.2906 H         1 UNK         0.3000 
    175 H175       -0.1499  -12.8969  -44.8663 H         1 UNK         0.0600 
    176 H176        0.5569  -14.1307  -42.1426 H         1 UNK         0.0600 
    177 H177        1.0883  -12.5510  -42.7167 H         1 UNK         0.0600 
    178 H178       -0.6135  -12.8464  -42.4167 H         1 UNK         0.0600 
    179 H179        2.0854  -14.5214  -44.0321 H         1 UNK         0.3000 
    180 H180        3.8533  -14.4226  -45.7749 H         1 UNK         0.0600 
    181 H181        2.4734  -17.1051  -46.4144 H         1 UNK         0.0600 
    182 H182        3.0996  -16.6219  -44.8430 H         1 UNK         0.0600 
    183 H183        4.2065  -16.9145  -46.1682 H         1 UNK         0.0600 
    184 H184        2.5282  -14.6372  -48.2748 H         1 UNK         0.3000 
    185 H185        4.5360  -13.7912  -50.1660 H         1 UNK         0.0600 
    186 H186        5.7061  -16.6120  -50.4128 H         1 UNK         0.0600 
    187 H187        5.5780  -15.4533  -51.7352 H         1 UNK         0.0600 
    188 H188        6.6028  -15.1021  -50.3534 H         1 UNK         0.0600 
    189 H189        2.6167  -14.5923  -50.9257 H         1 UNK         0.3000 
    190 H190        0.2940  -22.6711  -43.7950 H         1 UNK         0.3000 
    191 H191       -0.2770  -25.3491  -42.9765 H         1 UNK         0.0600 
    192 H192        2.4413  -23.9933  -43.3765 H         1 UNK         0.0600 
    193 H193        1.4593  -23.8777  -41.9161 H         1 UNK         0.0600 
    194 H194        2.1215  -25.4279  -42.4152 H         1 UNK         0.0600 
    195 H195        1.4291  -24.0141  -45.8352 H         1 UNK         0.3000 
    196 H196        1.9899  -26.5164  -47.1151 H         1 UNK         0.0600 
    197 H197        3.2080  -24.4305  -47.6515 H         1 UNK         0.0600 
    198 H198        1.7213  -23.6654  -48.2072 H         1 UNK         0.0600 
    199 H199        2.4054  -25.0208  -49.0996 H         1 UNK         0.0600 
    200 H200       -0.8867  -24.6966  -46.7859 H         1 UNK         0.3000 
    201 H201       -2.9896  -24.9332  -47.2904 H         1 UNK         0.0600 
    202 H202       -3.9429  -26.9893  -48.2285 H         1 UNK         0.0600 
    203 H203       -2.6801  -27.4249  -47.0898 H         1 UNK         0.0600 
    204 H204       -2.3798  -27.5154  -48.8257 H         1 UNK         0.0600 
    205 H205       -4.5915  -24.7177  -48.9627 H         1 UNK         0.3000 
    206 H206       -5.4616  -23.6133  -50.6744 H         1 UNK         0.0600 
    207 H207       -3.3933  -25.2397  -52.2356 H         1 UNK         0.0600 
    208 H208       -4.7915  -24.4444  -52.9542 H         1 UNK         0.0600 
    209 H209       -5.0180  -25.7414  -51.7959 H         1 UNK         0.0600 
    210 H210       -3.5827  -22.0880  -49.2659 H         1 UNK         0.3000 
    211 H211       -2.5159  -20.1263  -49.2247 H         1 UNK         0.0600 
    212 H212       -3.9761  -19.6603  -51.8747 H         1 UNK         0.0600 
    213 H213       -4.5681  -19.2775  -50.2627 H         1 UNK         0.0600 
    214 H214       -3.1995  -18.4055  -50.9299 H         1 UNK         0.0600 
    215 H215       -0.7395  -21.7960  -49.5157 H         1 UNK         0.3000 
    216 H216        1.2363  -22.4909  -50.2142 H         1 UNK         0.0600 
    217 H217        2.8223  -20.8930  -51.1805 H         1 UNK         0.0600 
    218 H218        1.5253  -19.8540  -51.7457 H         1 UNK         0.0600 
    219 H219        1.8315  -20.0322  -50.0193 H         1 UNK         0.0600 
    220 H220       -1.0178  -23.2944  -51.7106 H         1 UNK         0.3000 
    221 H221       -1.7899  -24.2802  -53.5072 H         1 UNK         0.0600 
    222 H222        1.1051  -24.6371  -54.4327 H         1 UNK         0.0600 
    223 H223        0.2728  -25.6842  -53.2830 H         1 UNK         0.0600 
    224 H224       -0.2843  -25.5831  -54.9441 H         1 UNK         0.0600 
    225 H225       -0.9902  -21.2401  -53.6830 H         1 UNK         0.3000 
    226 H226       -0.9792  -20.8680  -56.6210 H         1 UNK         0.0600 
    227 H227        0.6015  -19.5713  -55.1464 H         1 UNK         0.0600 
    228 H228       -0.4846  -18.5370  -56.0614 H         1 UNK         0.0600 
    229 H229       -0.7790  -18.8178  -54.3531 H         1 UNK         0.0600 
    230 H230       -3.2605  -21.0608  -54.0475 H         1 UNK         0.3000 
    231 H231       -5.3858  -20.6019  -53.7426 H         1 UNK         0.0600 
    232 H232       -6.9431  -20.6595  -55.6357 H         1 UNK         0.0600 
    233 H233       -5.6741  -21.8435  -55.8983 H         1 UNK         0.0600 
    234 H234       -5.6533  -20.3152  -56.7781 H         1 UNK         0.0600 
    235 H235       -3.4652  -18.3857  -53.7313 H         1 UNK         0.3000 
    236 H236       -4.4930  -15.9924  -54.7635 H         1 UNK         0.0600 
    237 H237       -2.1502  -16.2963  -54.0504 H         1 UNK         0.0600 
    238 H238       -2.8516  -14.9412  -53.1793 H         1 UNK         0.0600 
    239 H239       -2.6468  -16.4905  -52.3719 H         1 UNK         0.0600 
    240 H240       -5.6176  -17.7419  -52.0198 H         1 UNK         0.3000 
    241 H241       -7.0049  -15.5680  -50.7041 H         1 UNK         0.0600 
    242 H242       -7.7191  -17.2956  -53.6975 H         1 UNK         0.3800 
    243 H243       -9.3939  -16.8103  -53.7473 H         1 UNK         0.3800 
    244 H244       -7.6540  -18.5335  -50.4119 H         1 UNK         0.0800 
    245 H245       -6.2386  -17.8552  -49.6840 H         1 UNK         0.0800 
    246 H246       -7.5014  -15.7234  -46.7157 H         1 UNK         0.0800 
    247 H247       -6.9295  -15.0728  -48.2288 H         1 UNK         0.0800 
@<TRIPOS>BOND
     1    1    2 1    
     2    1  127 1    
     3    1  128 1    
     4    1  129 1    
     5    2    3 2    
     6    2    4 am   BACKBONE|DICT|INTERRES
     7    4    5 1    
     8    4  130 1    
     9    5    6 1    
    10    5   65 1    
    11    5  131 1    
    12    6    7 1    
    13    6  132 1    
    14    6  133 1    
    15    7    8 1    
    16    8    9 1    
    17    8  134 1    
    18    8  135 1    
    19    9   10 ar   
    20    9   14 ar   
    21   10   11 ar   
    22   10  136 1    
    23   11   12 ar   
    24   11  126 1    
    25   12   13 ar   
    26   12  137 1    
    27   13   14 ar   
    28   13   15 1    
    29   14  138 1    
    30   15   16 1    
    31   15  139 1    
    32   15  140 1    
    33   16   17 1    
    34   17   18 1    
    35   17  141 1    
    36   17  142 1    
    37   18   19 1    
    38   18   67 1    
    39   18  143 1    
    40   19   20 am   BACKBONE|DICT|INTERRES
    41   19  144 1    
    42   20   21 2    
    43   20   22 1    
    44   22   23 1    
    45   22   24 1    
    46   22  145 1    
    47   23  146 1    
    48   23  147 1    
    49   23  148 1    
    50   24   25 am   BACKBONE|DICT|INTERRES
    51   24  149 1    
    52   25   26 2    
    53   25   27 1    
    54   27   28 1    
    55   27   29 1    
    56   27  150 1    
    57   28  151 1    
    58   28  152 1    
    59   28  153 1    
    60   29   30 am   BACKBONE|DICT|INTERRES
    61   29  154 1    
    62   30   31 2    
    63   30   32 1    
    64   32   33 1    
    65   32   34 1    
    66   32  155 1    
    67   33  156 1    
    68   33  157 1    
    69   33  158 1    
    70   34   35 am   BACKBONE|DICT|INTERRES
    71   34  159 1    
    72   35   36 2    
    73   35   37 1    
    74   37   38 1    
    75   37   39 1    
    76   37  160 1    
    77   38  161 1    
    78   38  162 1    
    79   38  163 1    
    80   39   40 am   BACKBONE|DICT|INTERRES
    81   39  164 1    
    82   40   41 2    
    83   40   42 1    
    84   42   43 1    
    85   42   44 1    
    86   42  165 1    
    87   43  166 1    
    88   43  167 1    
    89   43  168 1    
    90   44   45 am   BACKBONE|DICT|INTERRES
    91   44  169 1    
    92   45   46 2    
    93   45   47 1    
    94   47   48 1    
    95   47   49 1    
    96   47  170 1    
    97   48  171 1    
    98   48  172 1    
    99   48  173 1    
   100   49   50 am   BACKBONE|DICT|INTERRES
   101   49  174 1    
   102   50   51 2    
   103   50   52 1    
   104   52   53 1    
   105   52   54 1    
   106   52  175 1    
   107   53  176 1    
   108   53  177 1    
   109   53  178 1    
   110   54   55 am   BACKBONE|DICT|INTERRES
   111   54  179 1    
   112   55   56 2    
   113   55   57 1    
   114   57   58 1    
   115   57   59 1    
   116   57  180 1    
   117   58  181 1    
   118   58  182 1    
   119   58  183 1    
   120   59   60 am   BACKBONE|DICT|INTERRES
   121   59  184 1    
   122   60   61 2    
   123   60   62 1    
   124   62   63 1    
   125   62   64 1    
   126   62  185 1    
   127   63  186 1    
   128   63  187 1    
   129   63  188 1    
   130   64   65 am   BACKBONE|DICT|INTERRES
   131   64  189 1    
   132   65   66 2    
   133   67   68 2    
   134   67   69 am   BACKBONE|DICT|INTERRES
   135   69   70 1    
   136   69  190 1    
   137   70   71 1    
   138   70   72 1    
   139   70  191 1    
   140   71  192 1    
   141   71  193 1    
   142   71  194 1    
   143   72   73 2    
   144   72   74 am   BACKBONE|DICT|INTERRES
   145   74   75 1    
   146   74  195 1    
   147   75   76 1    
   148   75   77 1    
   149   75  196 1    
   150   76  197 1    
   151   76  198 1    
   152   76  199 1    
   153   77   78 2    
   154   77   79 am   BACKBONE|DICT|INTERRES
   155   79   80 1    
   156   79  200 1    
   157   80   81 1    
   158   80   82 1    
   159   80  201 1    
   160   81  202 1    
   161   81  203 1    
   162   81  204 1    
   163   82   83 2    
   164   82   84 am   BACKBONE|DICT|INTERRES
   165   84   85 1    
   166   84  205 1    
   167   85   86 1    
   168   85   87 1    
   169   85  206 1    
   170   86  207 1    
   171   86  208 1    
   172   86  209 1    
   173   87   88 2    
   174   87   89 am   BACKBONE|DICT|INTERRES
   175   89   90 1    
   176   89  210 1    
   177   90   91 1    
   178   90   92 1    
   179   90  211 1    
   180   91  212 1    
   181   91  213 1    
   182   91  214 1    
   183   92   93 2    
   184   92   94 am   BACKBONE|DICT|INTERRES
   185   94   95 1    
   186   94  215 1    
   187   95   96 1    
   188   95   97 1    
   189   95  216 1    
   190   96  217 1    
   191   96  218 1    
   192   96  219 1    
   193   97   98 2    
   194   97   99 am   BACKBONE|DICT|INTERRES
   195   99  100 1    
   196   99  220 1    
   197  100  101 1    
   198  100  102 1    
   199  100  221 1    
   200  101  222 1    
   201  101  223 1    
   202  101  224 1    
   203  102  103 2    
   204  102  104 am   BACKBONE|DICT|INTERRES
   205  104  105 1    
   206  104  225 1    
   207  105  106 1    
   208  105  107 1    
   209  105  226 1    
   210  106  227 1    
   211  106  228 1    
   212  106  229 1    
   213  107  108 2    
   214  107  109 am   BACKBONE|DICT|INTERRES
   215  109  110 1    
   216  109  230 1    
   217  110  111 1    
   218  110  112 1    
   219  110  231 1    
   220  111  232 1    
   221  111  233 1    
   222  111  234 1    
   223  112  113 2    
   224  112  114 am   BACKBONE|DICT|INTERRES
   225  114  115 1    
   226  114  235 1    
   227  115  116 1    
   228  115  117 1    
   229  115  236 1    
   230  116  237 1    
   231  116  238 1    
   232  116  239 1    
   233  117  118 2    
   234  117  119 am   BACKBONE|DICT|INTERRES
   235  119  120 1    
   236  119  240 1    
   237  120  121 1    
   238  120  124 1    
   239  120  241 1    
   240  121  122 am   BACKBONE|DICT|INTERRES
   241  121  123 2    
   242  122  242 1    
   243  122  243 1    
   244  124  125 1    
   245  124  244 1    
   246  124  245 1    
   247  125  126 1    
   248  126  246 1    
   249  126  247 1    
@<TRIPOS>SUBSTRUCTURE
     1 UNK         1 GROUP             0       ****    0 ROOT    
