@<TRIPOS>MOLECULE
3R540
247   249    1
SMALL
USER_CHARGES


@<TRIPOS>ATOM
      1 CA         -3.1087  -18.3789  -42.0961 C.3       0 UNK        -0.1800 
      2 C          -2.6386  -17.0349  -42.6338 C.2       0 UNK         0.5000 
      3 O          -2.8086  -16.0140  -41.9669 O.2       0 UNK        -0.5000 
      4 N          -2.0182  -17.0231  -43.8231 N.am      1 UNK        -0.5000 
      5 CA         -1.5557  -15.8165  -44.5265 C.3       1 UNK         0.1400 
      6 C6         -1.3281  -16.0699  -46.0354 C.3       23 UNK        -0.0398 
      7 S7          0.0648  -17.1875  -46.4061 S.3       23 UNK        -0.2404 
      8 C8          0.1764  -17.0106  -48.2148 C.3       23 UNK        -0.0205 
      9 C9         -0.3669  -18.2292  -48.9461 C.ar      23 UNK        -0.0193 
     10 C10        -1.7417  -18.3951  -49.1314 C.ar      23 UNK        -0.1150 
     11 C11        -2.2376  -19.4959  -49.8392 C.ar      23 UNK        -0.0193 
     12 C12        -1.3449  -20.4415  -50.3514 C.ar      23 UNK        -0.1150 
     13 C13         0.0334  -20.2828  -50.1798 C.ar      23 UNK        -0.0193 
     14 C14         0.5131  -19.1757  -49.4756 C.ar      23 UNK        -0.1150 
     15 C15         1.0159  -21.2799  -50.7803 C.3       23 UNK        -0.0205 
     16 S16         0.8864  -22.9458  -50.0593 S.3       23 UNK        -0.2404 
     17 C17         1.2491  -22.6490  -48.2933 C.3       23 UNK        -0.0398 
     18 CA          0.2780  -23.3897  -47.3407 C.3       11 UNK         0.1400 
     19 N           0.7404  -23.3488  -45.9518 N.am      11 UNK        -0.5000 
     20 C           0.2693  -24.1270  -44.9662 C.2       10 UNK         0.5000 
     21 O          -0.5805  -25.0019  -45.1324 O.2       10 UNK        -0.5000 
     22 CA          0.8051  -23.8496  -43.5482 C.3       10 UNK         0.1400 
     23 CB          2.1319  -24.5877  -43.3173 C.3       10 UNK        -0.1800 
     24 N           0.9908  -22.4217  -43.2804 N.am      10 UNK        -0.5000 
     25 C          -0.0087  -21.5313  -43.2217 C.2       9 UNK         0.5000 
     26 O          -1.1956  -21.8318  -43.3333 O.2       9 UNK        -0.5000 
     27 CA          0.3725  -20.0482  -43.0629 C.3       9 UNK         0.1400 
     28 CB          0.3853  -19.6502  -41.5805 C.3       9 UNK        -0.1800 
     29 N           1.6422  -19.6613  -43.6849 N.am      9 UNK        -0.5000 
     30 C           1.9605  -19.8296  -44.9772 C.2       8 UNK         0.5000 
     31 O           1.2458  -20.4340  -45.7783 O.2       8 UNK        -0.5000 
     32 CA          3.2838  -19.1935  -45.4343 C.3       8 UNK         0.1400 
     33 CB          3.4412  -19.1435  -46.9637 C.3       8 UNK        -0.1800 
     34 N           3.3943  -17.8399  -44.8881 N.am      8 UNK        -0.5000 
     35 C           4.4916  -17.3279  -44.3200 C.2       7 UNK         0.5000 
     36 O           5.5530  -17.9452  -44.2133 O.2       7 UNK        -0.5000 
     37 CA          4.3659  -15.8986  -43.7496 C.3       7 UNK         0.1400 
     38 CB          5.7296  -15.2659  -43.4019 C.3       7 UNK        -0.1800 
     39 N           3.5779  -14.9785  -44.5798 N.am      7 UNK        -0.5000 
     40 C           3.8368  -14.5852  -45.8373 C.2       6 UNK         0.5000 
     41 O           4.7243  -15.0630  -46.5440 O.2       6 UNK        -0.5000 
     42 CA          2.9829  -13.4211  -46.3808 C.3       6 UNK         0.1400 
     43 CB          1.8322  -13.9348  -47.2533 C.3       6 UNK        -0.1800 
     44 N           2.4398  -12.5797  -45.3090 N.am      6 UNK        -0.5000 
     45 C           3.1430  -11.6260  -44.6794 C.2       5 UNK         0.5000 
     46 O           4.3028  -11.3387  -44.9807 O.2       5 UNK        -0.5000 
     47 CA          2.4675  -10.8950  -43.4983 C.3       5 UNK         0.1400 
     48 CB          2.9062   -9.4203  -43.3793 C.3       5 UNK        -0.1800 
     49 N           1.0063  -11.0162  -43.4645 N.am      5 UNK        -0.5000 
     50 C           0.1109  -10.5120  -44.3293 C.2       4 UNK         0.5000 
     51 O           0.4171   -9.8374  -45.3129 O.2       4 UNK        -0.5000 
     52 CA         -1.3785  -10.8232  -44.0632 C.3       4 UNK         0.1400 
     53 CB         -2.0495  -11.4251  -45.3106 C.3       4 UNK        -0.1800 
     54 N          -1.5533  -11.7544  -42.9465 N.am      4 UNK        -0.5000 
     55 C          -1.8225  -11.4148  -41.6781 C.2       3 UNK         0.5000 
     56 O          -2.0400  -10.2601  -41.3111 O.2       3 UNK        -0.5000 
     57 CA         -1.8205  -12.5547  -40.6360 C.3       3 UNK         0.1400 
     58 CB         -3.2547  -13.0292  -40.3590 C.3       3 UNK        -0.1800 
     59 N          -1.0049  -13.7059  -41.0372 N.am      3 UNK        -0.5000 
     60 C           0.3326  -13.6872  -41.1562 C.2       2 UNK         0.5000 
     61 O           1.0247  -12.7106  -40.8721 O.2       2 UNK        -0.5000 
     62 CA          1.0073  -14.9257  -41.7816 C.3       2 UNK         0.1400 
     63 CB          1.4747  -15.9027  -40.6941 C.3       2 UNK        -0.1800 
     64 N           0.1394  -15.6281  -42.7298 N.am      2 UNK        -0.5000 
     65 C          -0.3704  -15.0867  -43.8458 C.2       1 UNK         0.5000 
     66 O           0.0209  -14.0090  -44.2957 O.2       1 UNK        -0.5000 
     67 C          -1.1664  -22.8643  -47.4460 C.2       11 UNK         0.5000 
     68 O          -1.9837  -23.4811  -48.1303 O.2       11 UNK        -0.5000 
     69 N          -1.4647  -21.7756  -46.7225 N.am      12 UNK        -0.5000 
     70 CA         -2.7998  -21.1865  -46.6320 C.3       12 UNK         0.1400 
     71 CB         -2.7227  -19.8379  -45.9071 C.3       12 UNK        -0.1800 
     72 C          -3.8252  -22.1143  -45.9590 C.2       12 UNK         0.5000 
     73 O          -4.9380  -22.2498  -46.4669 O.2       12 UNK        -0.5000 
     74 N          -3.4254  -22.7547  -44.8516 N.am      13 UNK        -0.5000 
     75 CA         -4.2387  -23.7118  -44.0999 C.3       13 UNK         0.1400 
     76 CB         -3.5292  -24.0641  -42.7837 C.3       13 UNK        -0.1800 
     77 C          -4.5592  -24.9860  -44.9015 C.2       13 UNK         0.5000 
     78 O          -5.6905  -25.4697  -44.8466 O.2       13 UNK        -0.5000 
     79 N          -3.5672  -25.4933  -45.6455 N.am      14 UNK        -0.5000 
     80 CA         -3.7142  -26.6458  -46.5356 C.3       14 UNK         0.1400 
     81 CB         -2.3184  -27.2094  -46.8438 C.3       14 UNK        -0.1800 
     82 C          -4.4491  -26.3130  -47.8492 C.2       14 UNK         0.5000 
     83 O          -4.9686  -27.2263  -48.4914 O.2       14 UNK        -0.5000 
     84 N          -4.4378  -25.0286  -48.2395 N.am      15 UNK        -0.5000 
     85 CA         -4.8327  -24.4827  -49.5439 C.3       15 UNK         0.1400 
     86 CB         -6.3484  -24.6370  -49.7809 C.3       15 UNK        -0.1800 
     87 C          -3.9714  -25.0647  -50.6862 C.2       15 UNK         0.5000 
     88 O          -4.4717  -25.3321  -51.7807 O.2       15 UNK        -0.5000 
     89 N          -2.6779  -25.2657  -50.3962 N.am      16 UNK        -0.5000 
     90 CA         -1.7285  -26.0178  -51.2205 C.3       16 UNK         0.1400 
     91 CB         -0.5310  -26.4434  -50.3563 C.3       16 UNK        -0.1800 
     92 C          -1.2925  -25.3095  -52.5188 C.2       16 UNK         0.5000 
     93 O          -0.6396  -25.9378  -53.3532 O.2       16 UNK        -0.5000 
     94 N          -1.6988  -24.0446  -52.7019 N.am      17 UNK        -0.5000 
     95 CA         -1.6225  -23.3313  -53.9791 C.3       17 UNK         0.1400 
     96 CB         -1.9486  -21.8443  -53.7627 C.3       17 UNK        -0.1800 
     97 C          -2.5568  -23.9265  -55.0531 C.2       17 UNK         0.5000 
     98 O          -2.2696  -23.7747  -56.2415 O.2       17 UNK        -0.5000 
     99 N          -3.6491  -24.5808  -54.6200 N.am      18 UNK        -0.5000 
    100 CA        -4.7247  -25.2196  -55.3923 C.3       18 UNK         0.1400 
    101 CB        -4.1857  -26.3612  -56.2752 C.3       18 UNK        -0.1800 
    102 C         -5.5859  -24.2320  -56.2048 C.2       18 UNK         0.5000 
    103 O         -6.8123  -24.2518  -56.0892 O.2       18 UNK        -0.5000 
    104 N         -4.9289  -23.3745  -56.9901 N.am      19 UNK        -0.5000 
    105 CA        -5.5032  -22.2162  -57.6643 C.3       19 UNK         0.1400 
    106 CB        -4.5491  -21.8016  -58.7978 C.3       19 UNK        -0.1800 
    107 C         -5.7161  -21.0494  -56.6796 C.2       19 UNK         0.5000 
    108 O         -5.2329  -21.0866  -55.5455 O.2       19 UNK        -0.5000 
    109 N         -6.3994  -20.0013  -57.1554 N.am      20 UNK        -0.5000 
    110 CA        -6.6725  -18.7647  -56.4144 C.3       20 UNK         0.1400 
    111 CB        -7.7679  -17.9823  -57.1569 C.3       20 UNK        -0.1800 
    112 C         -5.4324  -17.8725  -56.1803 C.2       20 UNK         0.5000 
    113 O         -5.5311  -16.8877  -55.4466 O.2       20 UNK        -0.5000 
    114 N         -4.2918  -18.2180  -56.7946 N.am      21 UNK        -0.5000 
    115 CA        -2.9984  -17.5309  -56.7207 C.3       21 UNK         0.1400 
    116 CB        -2.1389  -17.9936  -57.9116 C.3       21 UNK        -0.1800 
    117 C         -2.2717  -17.6999  -55.3634 C.2       21 UNK         0.5000 
    118 O         -1.0794  -18.0102  -55.3293 O.2       21 UNK        -0.5000 
    119 N         -3.0042  -17.4874  -54.2681 N.am      22 UNK        -0.5000 
    120 CA        -2.5045  -17.4194  -52.8900 C.3       22 UNK         0.1400 
    121 C         -1.6616  -16.1389  -52.6380 C.2       22 UNK         0.5000 
    122 N         -0.6382  -16.2223  -51.7992 N.am      22 UNK        -0.7600 
    123 O         -1.9478  -15.0645  -53.1629 O.2       22 UNK        -0.5000 
    124 C124       -3.6822  -17.5119  -51.8875 C.3       23 UNK        -0.0398 
    125 S125       -4.2753  -19.2309  -51.7310 S.3       23 UNK        -0.2404 
    126 C126       -3.7380  -19.6657  -50.0439 C.3       23 UNK        -0.0205 
    127 H127       -2.7623  -19.2115  -42.7067 H         1 UNK         0.0600 
    128 H128       -4.1978  -18.4081  -42.0666 H         1 UNK         0.0600 
    129 H129       -2.7368  -18.5271  -41.0823 H         1 UNK         0.0600 
    130 H130       -1.8905  -17.8859  -44.3301 H         1 UNK         0.3000 
    131 H131       -2.3809  -15.1033  -44.4685 H         1 UNK         0.0600 
    132 H132       -1.1692  -15.1198  -46.5480 H         1 UNK         0.0800 
    133 H133       -2.2319  -16.4917  -46.4768 H         1 UNK         0.0800 
    134 H134       -0.3518  -16.1167  -48.5489 H         1 UNK         0.0800 
    135 H135        1.2220  -16.8513  -48.4808 H         1 UNK         0.0800 
    136 H136       -2.4245  -17.6616  -48.7273 H         1 UNK         0.1150 
    137 H137       -1.7239  -21.2995  -50.8863 H         1 UNK         0.1150 
    138 H138        1.5778  -19.0454  -49.3505 H         1 UNK         0.1150 
    139 H139        0.8396  -21.3491  -51.8539 H         1 UNK         0.0800 
    140 H140        2.0429  -20.9299  -50.6651 H         1 UNK         0.0800 
    141 H141        1.2504  -21.5794  -48.0860 H         1 UNK         0.0800 
    142 H142        2.2699  -22.9874  -48.1127 H         1 UNK         0.0800 
    143 H143        0.2606  -24.4403  -47.6390 H         1 UNK         0.0600 
    144 H144        1.3555  -22.5819  -45.7125 H         1 UNK         0.3000 
    145 H145        0.0722  -24.2348  -42.8360 H         1 UNK         0.0600 
    146 H146        2.4793  -24.4628  -42.2916 H         1 UNK         0.0600 
    147 H147        2.0178  -25.6584  -43.4925 H         1 UNK         0.0600 
    148 H148        2.9161  -24.2275  -43.9844 H         1 UNK         0.0600 
    149 H149        1.9389  -22.0909  -43.1804 H         1 UNK         0.3000 
    150 H150       -0.4064  -19.4694  -43.5598 H         1 UNK         0.0600 
    151 H151        1.2097  -20.1219  -41.0445 H         1 UNK         0.0600 
    152 H152       -0.5399  -19.9480  -41.0851 H         1 UNK         0.0600 
    153 H153        0.4791  -18.5721  -41.4630 H         1 UNK         0.0600 
    154 H154        2.2987  -19.1697  -43.0967 H         1 UNK         0.3000 
    155 H155        4.0738  -19.8318  -45.0341 H         1 UNK         0.0600 
    156 H156        2.6900  -18.4973  -47.4140 H         1 UNK         0.0600 
    157 H157        3.3415  -20.1343  -47.4084 H         1 UNK         0.0600 
    158 H158        4.4214  -18.7578  -47.2438 H         1 UNK         0.0600 
    159 H159        2.5604  -17.2715  -44.9462 H         1 UNK         0.3000 
    160 H160        3.8180  -16.0077  -42.8135 H         1 UNK         0.0600 
    161 H161        6.3655  -15.1677  -44.2823 H         1 UNK         0.0600 
    162 H162        6.2701  -15.8710  -42.6731 H         1 UNK         0.0600 
    163 H163        5.6044  -14.2739  -42.9675 H         1 UNK         0.0600 
    164 H164        2.8044  -14.5225  -44.1201 H         1 UNK         0.3000 
    165 H165        3.6296  -12.8114  -47.0155 H         1 UNK         0.0600 
    166 H166        1.2748  -13.1103  -47.6978 H         1 UNK         0.0600 
    167 H167        2.2047  -14.5561  -48.0684 H         1 UNK         0.0600 
    168 H168        1.1356  -14.5326  -46.6718 H         1 UNK         0.0600 
    169 H169        1.4947  -12.7847  -45.0012 H         1 UNK         0.3000 
    170 H170        2.8221  -11.4066  -42.6026 H         1 UNK         0.0600 
    171 H171        3.9827   -9.3431  -43.2220 H         1 UNK         0.0600 
    172 H172        2.6683   -8.8512  -44.2782 H         1 UNK         0.0600 
    173 H173        2.4221   -8.9318  -42.5337 H         1 UNK         0.0600 
    174 H174        0.6489  -11.5502  -42.6828 H         1 UNK         0.3000 
    175 H175       -1.8716   -9.8755  -43.8384 H         1 UNK         0.0600 
    176 H176       -1.5580  -12.3429  -45.6339 H         1 UNK         0.0600 
    177 H177       -3.0983  -11.6547  -45.1220 H         1 UNK         0.0600 
    178 H178       -2.0182  -10.7267  -46.1477 H         1 UNK         0.0600 
    179 H179       -1.3467  -12.7218  -43.1543 H         1 UNK         0.3000 
    180 H180       -1.4074  -12.1530  -39.7083 H         1 UNK         0.0600 
    181 H181       -3.7219  -13.4399  -41.2550 H         1 UNK         0.0600 
    182 H182       -3.8792  -12.2055  -40.0107 H         1 UNK         0.0600 
    183 H183       -3.2738  -13.8001  -39.5884 H         1 UNK         0.0600 
    184 H184       -1.5143  -14.5441  -41.2997 H         1 UNK         0.3000 
    185 H185        1.8848  -14.5707  -42.3227 H         1 UNK         0.0600 
    186 H186        2.1272  -15.4042  -39.9759 H         1 UNK         0.0600 
    187 H187        0.6335  -16.3194  -40.1387 H         1 UNK         0.0600 
    188 H188        2.0405  -16.7298  -41.1223 H         1 UNK         0.0600 
    189 H189       -0.2555  -16.5024  -42.4184 H         1 UNK         0.3000 
    190 H190       -0.7191  -21.3168  -46.2128 H         1 UNK         0.3000 
    191 H191       -3.1473  -21.0058  -47.6480 H         1 UNK         0.0600 
    192 H192       -2.0429  -19.1616  -46.4202 H         1 UNK         0.0600 
    193 H193       -3.6999  -19.3548  -45.8698 H         1 UNK         0.0600 
    194 H194       -2.3718  -19.9576  -44.8845 H         1 UNK         0.0600 
    195 H195       -2.5121  -22.5350  -44.4612 H         1 UNK         0.3000 
    196 H196       -5.1858  -23.2261  -43.8560 H         1 UNK         0.0600 
    197 H197       -4.1162  -24.7738  -42.1995 H         1 UNK         0.0600 
    198 H198       -3.3826  -23.1776  -42.1663 H         1 UNK         0.0600 
    199 H199       -2.5511  -24.5125  -42.9621 H         1 UNK         0.0600 
    200 H200       -2.6458  -25.0721  -45.5944 H         1 UNK         0.3000 
    201 H201       -4.2886  -27.4183  -46.0201 H         1 UNK         0.0600 
    202 H202       -2.3796  -28.0761  -47.5032 H         1 UNK         0.0600 
    203 H203       -1.8127  -27.5289  -45.9325 H         1 UNK         0.0600 
    204 H204       -1.6868  -26.4664  -47.3324 H         1 UNK         0.0600 
    205 H205       -3.9424  -24.3752  -47.6459 H         1 UNK         0.3000 
    206 H206       -4.6105  -23.4152  -49.5062 H         1 UNK         0.0600 
    207 H207       -6.9197  -24.2208  -48.9511 H         1 UNK         0.0600 
    208 H208       -6.6563  -24.1093  -50.6843 H         1 UNK         0.0600 
    209 H209       -6.6384  -25.6812  -49.8991 H         1 UNK         0.0600 
    210 H210       -2.3373  -24.9186  -49.5051 H         1 UNK         0.3000 
    211 H211       -2.2325  -26.9322  -51.5407 H         1 UNK         0.0600 
    212 H212       -0.0609  -25.5942  -49.8661 H         1 UNK         0.0600 
    213 H213        0.2325  -26.9449  -50.9522 H         1 UNK         0.0600 
    214 H214       -0.8411  -27.1427  -49.5803 H         1 UNK         0.0600 
    215 H215       -2.2171  -23.6039  -51.9574 H         1 UNK         0.3000 
    216 H216       -0.5998  -23.4060  -54.3547 H         1 UNK         0.0600 
    217 H217       -1.9753  -21.3046  -54.7107 H         1 UNK         0.0600 
    218 H218       -1.1939  -21.3594  -53.1463 H         1 UNK         0.0600 
    219 H219       -2.9200  -21.7071  -53.2859 H         1 UNK         0.0600 
    220 H220       -3.7840  -24.6393  -53.6161 H         1 UNK         0.3000 
    221 H221       -5.3847  -25.6699  -54.6490 H         1 UNK         0.0600 
    222 H222       -3.5224  -25.9963  -57.0597 H         1 UNK         0.0600 
    223 H223       -3.6330  -27.0892  -55.6812 H         1 UNK         0.0600 
    224 H224       -5.0036  -26.8925  -56.7631 H         1 UNK         0.0600 
    225 H225       -3.9133  -23.4187  -56.9547 H         1 UNK         0.3000 
    226 H226       -6.4691  -22.4929  -58.0919 H         1 UNK         0.0600 
    227 H227       -4.3855  -22.6251  -59.4934 H         1 UNK         0.0600 
    228 H228       -4.9524  -20.9697  -59.3761 H         1 UNK         0.0600 
    229 H229       -3.5759  -21.4943  -58.4117 H         1 UNK         0.0600 
    230 H230       -6.7545  -20.0390  -58.1004 H         1 UNK         0.3000 
    231 H231       -7.0578  -19.0378  -55.4298 H         1 UNK         0.0600 
    232 H232       -7.4429  -17.6847  -58.1546 H         1 UNK         0.0600 
    233 H233       -8.0383  -17.0745  -56.6157 H         1 UNK         0.0600 
    234 H234       -8.6760  -18.5764  -57.2614 H         1 UNK         0.0600 
    235 H235       -4.3085  -19.0603  -57.3484 H         1 UNK         0.3000 
    236 H236       -3.1806  -16.4612  -56.8426 H         1 UNK         0.0600 
    237 H237       -2.6459  -17.8112  -58.8594 H         1 UNK         0.0600 
    238 H238       -1.1912  -17.4547  -57.9464 H         1 UNK         0.0600 
    239 H239       -1.9111  -19.0587  -57.8518 H         1 UNK         0.0600 
    240 H240       -3.9723  -17.2161  -54.4082 H         1 UNK         0.3000 
    241 H241       -1.8439  -18.2755  -52.7348 H         1 UNK         0.0600 
    242 H242       -0.0870  -15.3979  -51.6203 H         1 UNK         0.3800 
    243 H243       -0.3956  -17.0922  -51.3509 H         1 UNK         0.3800 
    244 H244       -3.4038  -17.1376  -50.9025 H         1 UNK         0.0800 
    245 H245       -4.5128  -16.8811  -52.2086 H         1 UNK         0.0800 
    246 H246       -4.2938  -19.0630  -49.3239 H         1 UNK         0.0800 
    247 H247       -4.0151  -20.7029  -49.8509 H         1 UNK         0.0800 
@<TRIPOS>BOND
     1    1    2 1    
     2    1  127 1    
     3    1  128 1    
     4    1  129 1    
     5    2    3 2    
     6    2    4 am   BACKBONE|DICT|INTERRES
     7    4    5 1    
     8    4  130 1    
     9    5    6 1    
    10    5   65 1    
    11    5  131 1    
    12    6    7 1    
    13    6  132 1    
    14    6  133 1    
    15    7    8 1    
    16    8    9 1    
    17    8  134 1    
    18    8  135 1    
    19    9   10 ar   
    20    9   14 ar   
    21   10   11 ar   
    22   10  136 1    
    23   11   12 ar   
    24   11  126 1    
    25   12   13 ar   
    26   12  137 1    
    27   13   14 ar   
    28   13   15 1    
    29   14  138 1    
    30   15   16 1    
    31   15  139 1    
    32   15  140 1    
    33   16   17 1    
    34   17   18 1    
    35   17  141 1    
    36   17  142 1    
    37   18   19 1    
    38   18   67 1    
    39   18  143 1    
    40   19   20 am   BACKBONE|DICT|INTERRES
    41   19  144 1    
    42   20   21 2    
    43   20   22 1    
    44   22   23 1    
    45   22   24 1    
    46   22  145 1    
    47   23  146 1    
    48   23  147 1    
    49   23  148 1    
    50   24   25 am   BACKBONE|DICT|INTERRES
    51   24  149 1    
    52   25   26 2    
    53   25   27 1    
    54   27   28 1    
    55   27   29 1    
    56   27  150 1    
    57   28  151 1    
    58   28  152 1    
    59   28  153 1    
    60   29   30 am   BACKBONE|DICT|INTERRES
    61   29  154 1    
    62   30   31 2    
    63   30   32 1    
    64   32   33 1    
    65   32   34 1    
    66   32  155 1    
    67   33  156 1    
    68   33  157 1    
    69   33  158 1    
    70   34   35 am   BACKBONE|DICT|INTERRES
    71   34  159 1    
    72   35   36 2    
    73   35   37 1    
    74   37   38 1    
    75   37   39 1    
    76   37  160 1    
    77   38  161 1    
    78   38  162 1    
    79   38  163 1    
    80   39   40 am   BACKBONE|DICT|INTERRES
    81   39  164 1    
    82   40   41 2    
    83   40   42 1    
    84   42   43 1    
    85   42   44 1    
    86   42  165 1    
    87   43  166 1    
    88   43  167 1    
    89   43  168 1    
    90   44   45 am   BACKBONE|DICT|INTERRES
    91   44  169 1    
    92   45   46 2    
    93   45   47 1    
    94   47   48 1    
    95   47   49 1    
    96   47  170 1    
    97   48  171 1    
    98   48  172 1    
    99   48  173 1    
   100   49   50 am   BACKBONE|DICT|INTERRES
   101   49  174 1    
   102   50   51 2    
   103   50   52 1    
   104   52   53 1    
   105   52   54 1    
   106   52  175 1    
   107   53  176 1    
   108   53  177 1    
   109   53  178 1    
   110   54   55 am   BACKBONE|DICT|INTERRES
   111   54  179 1    
   112   55   56 2    
   113   55   57 1    
   114   57   58 1    
   115   57   59 1    
   116   57  180 1    
   117   58  181 1    
   118   58  182 1    
   119   58  183 1    
   120   59   60 am   BACKBONE|DICT|INTERRES
   121   59  184 1    
   122   60   61 2    
   123   60   62 1    
   124   62   63 1    
   125   62   64 1    
   126   62  185 1    
   127   63  186 1    
   128   63  187 1    
   129   63  188 1    
   130   64   65 am   BACKBONE|DICT|INTERRES
   131   64  189 1    
   132   65   66 2    
   133   67   68 2    
   134   67   69 am   BACKBONE|DICT|INTERRES
   135   69   70 1    
   136   69  190 1    
   137   70   71 1    
   138   70   72 1    
   139   70  191 1    
   140   71  192 1    
   141   71  193 1    
   142   71  194 1    
   143   72   73 2    
   144   72   74 am   BACKBONE|DICT|INTERRES
   145   74   75 1    
   146   74  195 1    
   147   75   76 1    
   148   75   77 1    
   149   75  196 1    
   150   76  197 1    
   151   76  198 1    
   152   76  199 1    
   153   77   78 2    
   154   77   79 am   BACKBONE|DICT|INTERRES
   155   79   80 1    
   156   79  200 1    
   157   80   81 1    
   158   80   82 1    
   159   80  201 1    
   160   81  202 1    
   161   81  203 1    
   162   81  204 1    
   163   82   83 2    
   164   82   84 am   BACKBONE|DICT|INTERRES
   165   84   85 1    
   166   84  205 1    
   167   85   86 1    
   168   85   87 1    
   169   85  206 1    
   170   86  207 1    
   171   86  208 1    
   172   86  209 1    
   173   87   88 2    
   174   87   89 am   BACKBONE|DICT|INTERRES
   175   89   90 1    
   176   89  210 1    
   177   90   91 1    
   178   90   92 1    
   179   90  211 1    
   180   91  212 1    
   181   91  213 1    
   182   91  214 1    
   183   92   93 2    
   184   92   94 am   BACKBONE|DICT|INTERRES
   185   94   95 1    
   186   94  215 1    
   187   95   96 1    
   188   95   97 1    
   189   95  216 1    
   190   96  217 1    
   191   96  218 1    
   192   96  219 1    
   193   97   98 2    
   194   97   99 am   BACKBONE|DICT|INTERRES
   195   99  100 1    
   196   99  220 1    
   197  100  101 1    
   198  100  102 1    
   199  100  221 1    
   200  101  222 1    
   201  101  223 1    
   202  101  224 1    
   203  102  103 2    
   204  102  104 am   BACKBONE|DICT|INTERRES
   205  104  105 1    
   206  104  225 1    
   207  105  106 1    
   208  105  107 1    
   209  105  226 1    
   210  106  227 1    
   211  106  228 1    
   212  106  229 1    
   213  107  108 2    
   214  107  109 am   BACKBONE|DICT|INTERRES
   215  109  110 1    
   216  109  230 1    
   217  110  111 1    
   218  110  112 1    
   219  110  231 1    
   220  111  232 1    
   221  111  233 1    
   222  111  234 1    
   223  112  113 2    
   224  112  114 am   BACKBONE|DICT|INTERRES
   225  114  115 1    
   226  114  235 1    
   227  115  116 1    
   228  115  117 1    
   229  115  236 1    
   230  116  237 1    
   231  116  238 1    
   232  116  239 1    
   233  117  118 2    
   234  117  119 am   BACKBONE|DICT|INTERRES
   235  119  120 1    
   236  119  240 1    
   237  120  121 1    
   238  120  124 1    
   239  120  241 1    
   240  121  122 am   BACKBONE|DICT|INTERRES
   241  121  123 2    
   242  122  242 1    
   243  122  243 1    
   244  124  125 1    
   245  124  244 1    
   246  124  245 1    
   247  125  126 1    
   248  126  246 1    
   249  126  247 1    
@<TRIPOS>SUBSTRUCTURE
     1 UNK         1 GROUP             0       ****    0 ROOT    
