@<TRIPOS>MOLECULE
3R540
247   249    1
SMALL
USER_CHARGES


@<TRIPOS>ATOM
      1 CA         -1.3015  -17.8830  -47.3418 C.3       0 UNK        -0.1800 
      2 C          -0.9720  -16.5497  -47.9930 C.2       0 UNK         0.5000 
      3 O          -1.8187  -15.9842  -48.6848 O.2       0 UNK        -0.5000 
      4 N           0.2525  -16.0512  -47.7829 N.am      1 UNK        -0.5000 
      5 CA          0.7406  -14.7895  -48.3519 C.3       1 UNK         0.1400 
      6 C6          2.2817  -14.6376  -48.2854 C.3       23 UNK        -0.0398 
      7 S7          3.2431  -16.0572  -48.9054 S.3       23 UNK        -0.2404 
      8 C8          2.7611  -16.1384  -50.6607 C.3       23 UNK        -0.0205 
      9 C9          1.8387  -17.3205  -50.9162 C.ar      23 UNK        -0.0193 
     10 C10         0.4890  -17.1317  -51.2259 C.ar      23 UNK        -0.1150 
     11 C11        -0.3553  -18.2290  -51.4274 C.ar      23 UNK        -0.0193 
     12 C12         0.1674  -19.5236  -51.3300 C.ar      23 UNK        -0.1150 
     13 C13         1.5193  -19.7240  -51.0323 C.ar      23 UNK        -0.0193 
     14 C14         2.3472  -18.6181  -50.8320 C.ar      23 UNK        -0.1150 
     15 C15         2.1004  -21.1262  -50.9113 C.3       23 UNK        -0.0205 
     16 S16         1.2118  -22.1862  -49.7262 S.3       23 UNK        -0.2404 
     17 C17         1.0473  -21.1226  -48.2463 C.3       23 UNK        -0.0398 
     18 CA          0.1233  -21.7617  -47.1784 C.3       11 UNK         0.1400 
     19 N           0.4743  -21.3203  -45.8250 N.am      11 UNK        -0.5000 
     20 C           0.1954  -22.0065  -44.7087 C.2       10 UNK         0.5000 
     21 O          -0.4046  -23.0820  -44.7040 O.2       10 UNK        -0.5000 
     22 CA          0.6283  -21.3753  -43.3709 C.3       10 UNK         0.1400 
     23 CB          2.0448  -21.8472  -43.0058 C.3       10 UNK        -0.1800 
     24 N           0.5802  -19.9085  -43.3168 N.am      10 UNK        -0.5000 
     25 C          -0.4689  -19.1353  -43.6344 C.2       9 UNK         0.5000 
     26 O          -1.5112  -19.5700  -44.1212 O.2       9 UNK        -0.5000 
     27 CA         -0.3513  -17.6253  -43.3598 C.3       9 UNK         0.1400 
     28 CB         -1.0306  -17.2788  -42.0268 C.3       9 UNK        -0.1800 
     29 N           1.0239  -17.1316  -43.3285 N.am      9 UNK        -0.5000 
     30 C           1.8170  -16.9929  -44.3987 C.2       8 UNK         0.5000 
     31 O           1.4965  -17.3171  -45.5417 O.2       8 UNK        -0.5000 
     32 CA          3.2119  -16.4011  -44.1417 C.3       8 UNK         0.1400 
     33 CB          3.1455  -14.8688  -44.0290 C.3       8 UNK        -0.1800 
     34 N           3.8098  -16.9584  -42.9293 N.am      8 UNK        -0.5000 
     35 C           4.3418  -18.1863  -42.8471 C.2       7 UNK         0.5000 
     36 O           4.4605  -18.9470  -43.8076 O.2       7 UNK        -0.5000 
     37 CA          4.8033  -18.6521  -41.4529 C.3       7 UNK         0.1400 
     38 CB          6.2747  -18.2776  -41.2197 C.3       7 UNK        -0.1800 
     39 N           3.9907  -18.1022  -40.3662 N.am      7 UNK        -0.5000 
     40 C           2.7079  -18.4188  -40.1390 C.2       6 UNK         0.5000 
     41 O           2.0728  -19.2278  -40.8123 O.2       6 UNK        -0.5000 
     42 CA          2.0038  -17.6633  -38.9973 C.3       6 UNK         0.1400 
     43 CB          2.2415  -18.3684  -37.6537 C.3       6 UNK        -0.1800 
     44 N           2.4231  -16.2626  -38.8950 N.am      6 UNK        -0.5000 
     45 C           2.2236  -15.3449  -39.8489 C.2       5 UNK         0.5000 
     46 O           1.6786  -15.5853  -40.9285 O.2       5 UNK        -0.5000 
     47 CA          2.7712  -13.9419  -39.5766 C.3       5 UNK         0.1400 
     48 CB          4.2112  -13.8083  -40.1013 C.3       5 UNK        -0.1800 
     49 N           1.9119  -12.9707  -40.2418 N.am      5 UNK        -0.5000 
     50 C           1.6829  -11.7264  -39.8092 C.2       4 UNK         0.5000 
     51 O           2.2278  -11.2408  -38.8166 O.2       4 UNK        -0.5000 
     52 CA          0.6831  -10.8665  -40.6081 C.3       4 UNK         0.1400 
     53 CB          1.4360   -9.8943  -41.5303 C.3       4 UNK        -0.1800 
     54 N          -0.2760  -11.6226  -41.4167 N.am      4 UNK        -0.5000 
     55 C          -1.2332  -12.4413  -40.9563 C.2       3 UNK         0.5000 
     56 O          -1.3811  -12.7093  -39.7636 O.2       3 UNK        -0.5000 
     57 CA         -2.2101  -13.0369  -41.9952 C.3       3 UNK         0.1400 
     58 CB         -3.6549  -12.6058  -41.6932 C.3       3 UNK        -0.1800 
     59 N          -1.8902  -12.6529  -43.3747 N.am      3 UNK        -0.5000 
     60 C          -0.9732  -13.2576  -44.1372 C.2       2 UNK         0.5000 
     61 O          -0.3182  -14.2368  -43.7775 O.2       2 UNK        -0.5000 
     62 CA         -0.7050  -12.6279  -45.5088 C.3       2 UNK         0.1400 
     63 CB          0.2504  -11.4261  -45.3627 C.3       2 UNK        -0.1800 
     64 N          -0.1144  -13.6486  -46.3641 N.am      2 UNK        -0.5000 
     65 C           0.0734  -13.5703  -47.6861 C.2       1 UNK         0.5000 
     66 O          -0.2493  -12.5993  -48.3719 O.2       1 UNK        -0.5000 
     67 C          -1.3836  -21.6043  -47.5120 C.2       11 UNK         0.5000 
     68 O          -1.8024  -22.0329  -48.5848 O.2       11 UNK        -0.5000 
     69 N          -2.1943  -21.0322  -46.6043 N.am      12 UNK        -0.5000 
     70 CA         -3.6556  -20.9661  -46.7350 C.3       12 UNK         0.1400 
     71 CB         -4.2311  -20.0243  -45.6674 C.3       12 UNK        -0.1800 
     72 C          -4.3387  -22.3472  -46.6435 C.2       12 UNK         0.5000 
     73 O          -5.4581  -22.5025  -47.1369 O.2       12 UNK        -0.5000 
     74 N          -3.6545  -23.3208  -46.0249 N.am      13 UNK        -0.5000 
     75 CA         -4.0733  -24.7158  -45.8982 C.3       13 UNK         0.1400 
     76 CB         -3.0136  -25.4714  -45.0824 C.3       13 UNK        -0.1800 
     77 C          -4.2932  -25.4054  -47.2592 C.2       13 UNK         0.5000 
     78 O          -3.6650  -25.0324  -48.2533 O.2       13 UNK        -0.5000 
     79 N          -5.1842  -26.4073  -47.2663 N.am      14 UNK        -0.5000 
     80 CA         -5.5958  -27.2036  -48.4296 C.3       14 UNK         0.1400 
     81 CB         -4.4378  -28.1046  -48.9098 C.3       14 UNK        -0.1800 
     82 C          -6.1930  -26.3378  -49.5594 C.2       14 UNK         0.5000 
     83 O          -5.8712  -26.5442  -50.7297 O.2       14 UNK        -0.5000 
     84 N          -7.0320  -25.3634  -49.1734 N.am      15 UNK        -0.5000 
     85 CA         -7.6798  -24.3660  -50.0331 C.3       15 UNK         0.1400 
     86 CB         -8.7252  -25.0342  -50.9514 C.3       15 UNK        -0.1800 
     87 C          -6.6496  -23.5211  -50.8089 C.2       15 UNK         0.5000 
     88 O          -6.6732  -23.4880  -52.0404 O.2       15 UNK        -0.5000 
     89 N          -5.7351  -22.8880  -50.0608 N.am      16 UNK        -0.5000 
     90 CA         -4.6114  -22.0836  -50.5500 C.3       16 UNK         0.1400 
     91 CB         -5.1184  -20.7812  -51.2002 C.3       16 UNK        -0.1800 
     92 C          -3.6575  -22.8936  -51.4527 C.2       16 UNK         0.5000 
     93 O          -3.3327  -22.4576  -52.5600 O.2       16 UNK        -0.5000 
     94 N          -3.2797  -24.0876  -50.9685 N.am      17 UNK        -0.5000 
     95 CA         -2.4568  -25.0993  -51.6368 C.3       17 UNK         0.1400 
     96 CB         -0.9895  -24.6321  -51.7073 C.3       17 UNK        -0.1800 
     97 C          -3.0362  -25.5260  -53.0026 C.2       17 UNK         0.5000 
     98 O          -2.3225  -25.5355  -54.0070 O.2       17 UNK        -0.5000 
     99 N          -4.3384  -25.8484  -53.0034 N.am      18 UNK        -0.5000 
    100 CA        -5.1818  -26.1586  -54.1609 C.3       18 UNK         0.1400 
    101 CB        -4.7616  -27.4970  -54.8036 C.3       18 UNK        -0.1800 
    102 C         -5.2513  -24.9883  -55.1650 C.2       18 UNK         0.5000 
    103 O         -5.1308  -25.2005  -56.3733 O.2       18 UNK        -0.5000 
    104 N         -5.4422  -23.7747  -54.6258 N.am      19 UNK        -0.5000 
    105 CA        -5.4873  -22.4792  -55.3054 C.3       19 UNK         0.1400 
    106 CB        -6.7869  -22.3485  -56.1249 C.3       19 UNK        -0.1800 
    107 C         -4.2181  -22.2075  -56.1375 C.2       19 UNK         0.5000 
    108 O         -4.2913  -22.0905  -57.3633 O.2       19 UNK        -0.5000 
    109 N         -3.0692  -22.1194  -55.4545 N.am      20 UNK        -0.5000 
    110 CA        -1.7309  -21.9202  -56.0258 C.3       20 UNK         0.1400 
    111 CB        -0.6868  -22.3127  -54.9647 C.3       20 UNK        -0.1800 
    112 C         -1.4974  -20.4957  -56.5858 C.2       20 UNK         0.5000 
    113 O         -0.5603  -19.8123  -56.1708 O.2       20 UNK        -0.5000 
    114 N         -2.3697  -20.0711  -57.5122 N.am      21 UNK        -0.5000 
    115 CA        -2.4679  -18.7380  -58.1250 C.3       21 UNK         0.1400 
    116 CB        -1.2025  -18.4008  -58.9411 C.3       21 UNK        -0.1800 
    117 C         -2.8469  -17.6336  -57.1119 C.2       21 UNK         0.5000 
    118 O         -2.5262  -16.4619  -57.3188 O.2       21 UNK        -0.5000 
    119 N         -3.5304  -18.0360  -56.0347 N.am      22 UNK        -0.5000 
    120 CA        -3.9124  -17.1944  -54.8896 C.3       22 UNK         0.1400 
    121 C         -5.2271  -16.3860  -55.0938 C.2       22 UNK         0.5000 
    122 N         -5.9532  -16.5555  -56.1921 N.am      22 UNK        -0.7600 
    123 O         -5.5917  -15.5798  -54.2426 O.2       22 UNK        -0.5000 
    124 C124       -3.9637  -18.0296  -53.5835 C.3       23 UNK        -0.0398 
    125 S125       -2.3690  -18.8505  -53.2391 S.3       23 UNK        -0.2404 
    126 C126       -1.8344  -18.0077  -51.7173 C.3       23 UNK        -0.0205 
    127 H127       -1.9289  -17.7260  -46.4655 H         1 UNK         0.0600 
    128 H128       -0.4030  -18.4140  -47.0296 H         1 UNK         0.0600 
    129 H129       -1.8409  -18.5184  -48.0442 H         1 UNK         0.0600 
    130 H130        0.8935  -16.5522  -47.1722 H         1 UNK         0.3000 
    131 H131        0.4516  -14.7696  -49.4035 H         1 UNK         0.0600 
    132 H132        2.6024  -14.4726  -47.2564 H         1 UNK         0.0800 
    133 H133        2.5959  -13.7515  -48.8401 H         1 UNK         0.0800 
    134 H134        3.6612  -16.2543  -51.2660 H         1 UNK         0.0800 
    135 H135        2.3013  -15.2016  -50.9782 H         1 UNK         0.0800 
    136 H136        0.0894  -16.1301  -51.2930 H         1 UNK         0.1150 
    137 H137       -0.4810  -20.3768  -51.4766 H         1 UNK         0.1150 
    138 H138        3.3913  -18.7625  -50.5918 H         1 UNK         0.1150 
    139 H139        2.0779  -21.6019  -51.8925 H         1 UNK         0.0800 
    140 H140        3.1493  -21.0857  -50.6134 H         1 UNK         0.0800 
    141 H141        0.6879  -20.1300  -48.5198 H         1 UNK         0.0800 
    142 H142        2.0520  -20.9810  -47.8455 H         1 UNK         0.0800 
    143 H143        0.3106  -22.8379  -47.1998 H         1 UNK         0.0600 
    144 H144        0.9425  -20.4295  -45.7373 H         1 UNK         0.3000 
    145 H145       -0.0597  -21.7438  -42.6078 H         1 UNK         0.0600 
    146 H146        2.3049  -21.5704  -41.9848 H         1 UNK         0.0600 
    147 H147        2.1282  -22.9329  -43.0724 H         1 UNK         0.0600 
    148 H148        2.7946  -21.4176  -43.6714 H         1 UNK         0.0600 
    149 H149        1.3586  -19.4603  -42.8487 H         1 UNK         0.3000 
    150 H150       -0.8792  -17.1002  -44.1584 H         1 UNK         0.0600 
    151 H151       -2.0841  -17.5609  -42.0385 H         1 UNK         0.0600 
    152 H152       -0.9805  -16.2091  -41.8262 H         1 UNK         0.0600 
    153 H153       -0.5585  -17.7964  -41.1913 H         1 UNK         0.0600 
    154 H154        1.3444  -16.7601  -42.4394 H         1 UNK         0.3000 
    155 H155        3.8451  -16.6501  -44.9962 H         1 UNK         0.0600 
    156 H156        2.7019  -14.4287  -44.9216 H         1 UNK         0.0600 
    157 H157        4.1400  -14.4382  -43.9128 H         1 UNK         0.0600 
    158 H158        2.5399  -14.5470  -43.1820 H         1 UNK         0.0600 
    159 H159        3.7080  -16.4173  -42.0838 H         1 UNK         0.3000 
    160 H160        4.7177  -19.7406  -41.4232 H         1 UNK         0.0600 
    161 H161        6.4200  -17.1965  -41.2160 H         1 UNK         0.0600 
    162 H162        6.9116  -18.6919  -42.0024 H         1 UNK         0.0600 
    163 H163        6.6354  -18.6689  -40.2682 H         1 UNK         0.0600 
    164 H164        4.4341  -17.4272  -39.7611 H         1 UNK         0.3000 
    165 H165        0.9318  -17.6775  -39.2039 H         1 UNK         0.0600 
    166 H166        1.6784  -17.8900  -36.8522 H         1 UNK         0.0600 
    167 H167        1.9199  -19.4099  -37.6979 H         1 UNK         0.0600 
    168 H168        3.2959  -18.3619  -37.3747 H         1 UNK         0.0600 
    169 H169        2.8869  -15.9923  -38.0394 H         1 UNK         0.3000 
    170 H170        2.7572  -13.7707  -38.4981 H         1 UNK         0.0600 
    171 H171        4.6172  -12.8191  -39.8890 H         1 UNK         0.0600 
    172 H172        4.8713  -14.5371  -39.6295 H         1 UNK         0.0600 
    173 H173        4.2628  -13.9649  -41.1794 H         1 UNK         0.0600 
    174 H174        1.3932  -13.3318  -41.0326 H         1 UNK         0.3000 
    175 H175        0.1137  -10.2797  -39.8845 H         1 UNK         0.0600 
    176 H176        2.0016  -10.4253  -42.2972 H         1 UNK         0.0600 
    177 H177        0.7493   -9.2113  -42.0308 H         1 UNK         0.0600 
    178 H178        2.1422   -9.2848  -40.9648 H         1 UNK         0.0600 
    179 H179       -0.2355  -11.4703  -42.4123 H         1 UNK         0.3000 
    180 H180       -2.1573  -14.1233  -41.9044 H         1 UNK         0.0600 
    181 H181       -3.7721  -11.5229  -41.7495 H         1 UNK         0.0600 
    182 H182       -3.9575  -12.9173  -40.6926 H         1 UNK         0.0600 
    183 H183       -4.3558  -13.0571  -42.3958 H         1 UNK         0.0600 
    184 H184       -2.3821  -11.8491  -43.7390 H         1 UNK         0.3000 
    185 H185       -1.6528  -12.3041  -45.9434 H         1 UNK         0.0600 
    186 H186       -0.1696  -10.6654  -44.7038 H         1 UNK         0.0600 
    187 H187        1.2124  -11.7281  -44.9462 H         1 UNK         0.0600 
    188 H188        0.4399  -10.9441  -46.3215 H         1 UNK         0.0600 
    189 H189        0.1396  -14.4952  -45.8693 H         1 UNK         0.3000 
    190 H190       -1.8038  -20.6664  -45.7406 H         1 UNK         0.3000 
    191 H191       -3.8888  -20.5418  -47.7129 H         1 UNK         0.0600 
    192 H192       -3.8030  -19.0256  -45.7447 H         1 UNK         0.0600 
    193 H193       -5.3112  -19.9218  -45.7788 H         1 UNK         0.0600 
    194 H194       -4.0401  -20.3953  -44.6598 H         1 UNK         0.0600 
    195 H195       -2.7297  -23.1015  -45.6812 H         1 UNK         0.3000 
    196 H196       -5.0160  -24.7266  -45.3477 H         1 UNK         0.0600 
    197 H197       -3.2994  -26.5133  -44.9324 H         1 UNK         0.0600 
    198 H198       -2.8818  -25.0259  -44.0961 H         1 UNK         0.0600 
    199 H199       -2.0443  -25.4651  -45.5832 H         1 UNK         0.0600 
    200 H200       -5.6459  -26.6425  -46.3984 H         1 UNK         0.3000 
    201 H201       -6.4011  -27.8568  -48.0907 H         1 UNK         0.0600 
    202 H202       -4.0536  -28.7190  -48.0958 H         1 UNK         0.0600 
    203 H203       -3.6076  -27.5222  -49.3099 H         1 UNK         0.0600 
    204 H204       -4.7701  -28.7820  -49.6973 H         1 UNK         0.0600 
    205 H205       -7.2034  -25.2606  -48.1832 H         1 UNK         0.3000 
    206 H206       -8.2113  -23.6789  -49.3730 H         1 UNK         0.0600 
    207 H207       -9.4566  -25.5968  -50.3713 H         1 UNK         0.0600 
    208 H208       -9.2724  -24.2859  -51.5258 H         1 UNK         0.0600 
    209 H209       -8.2652  -25.7189  -51.6646 H         1 UNK         0.0600 
    210 H210       -5.7805  -22.9875  -49.0509 H         1 UNK         0.3000 
    211 H211       -4.0385  -21.8002  -49.6720 H         1 UNK         0.0600 
    212 H212       -5.6509  -20.9687  -52.1326 H         1 UNK         0.0600 
    213 H213       -4.2843  -20.1185  -51.4237 H         1 UNK         0.0600 
    214 H214       -5.7889  -20.2412  -50.5320 H         1 UNK         0.0600 
    215 H215       -3.5803  -24.3385  -50.0292 H         1 UNK         0.3000 
    216 H216       -2.4881  -25.9866  -51.0033 H         1 UNK         0.0600 
    217 H217       -0.3546  -25.3881  -52.1701 H         1 UNK         0.0600 
    218 H218       -0.5959  -24.4456  -50.7084 H         1 UNK         0.0600 
    219 H219       -0.8825  -23.7122  -52.2817 H         1 UNK         0.0600 
    220 H220       -4.8315  -25.8557  -52.1127 H         1 UNK         0.3000 
    221 H221       -6.1928  -26.2847  -53.7707 H         1 UNK         0.0600 
    222 H222       -3.7732  -27.4369  -55.2597 H         1 UNK         0.0600 
    223 H223       -4.7427  -28.2986  -54.0653 H         1 UNK         0.0600 
    224 H224       -5.4640  -27.7917  -55.5840 H         1 UNK         0.0600 
    225 H225       -5.5750  -23.7268  -53.6189 H         1 UNK         0.3000 
    226 H226       -5.5151  -21.7211  -54.5215 H         1 UNK         0.0600 
    227 H227       -7.6642  -22.4867  -55.4929 H         1 UNK         0.0600 
    228 H228       -6.8358  -23.0818  -56.9305 H         1 UNK         0.0600 
    229 H229       -6.8647  -21.3592  -56.5771 H         1 UNK         0.0600 
    230 H230       -3.1059  -22.2285  -54.4421 H         1 UNK         0.3000 
    231 H231       -1.6182  -22.6090  -56.8653 H         1 UNK         0.0600 
    232 H232        0.3287  -22.2012  -55.3463 H         1 UNK         0.0600 
    233 H233       -0.7747  -21.6961  -54.0687 H         1 UNK         0.0600 
    234 H234       -0.8050  -23.3542  -54.6682 H         1 UNK         0.0600 
    235 H235       -3.1128  -20.7231  -57.7562 H         1 UNK         0.3000 
    236 H236       -3.3007  -18.7947  -58.8270 H         1 UNK         0.0600 
    237 H237       -0.9586  -19.2010  -59.6397 H         1 UNK         0.0600 
    238 H238       -1.3469  -17.4928  -59.5276 H         1 UNK         0.0600 
    239 H239       -0.3360  -18.2381  -58.2998 H         1 UNK         0.0600 
    240 H240       -3.7308  -19.0199  -55.9451 H         1 UNK         0.3000 
    241 H241       -3.1318  -16.4426  -54.7572 H         1 UNK         0.0600 
    242 H242       -6.7995  -16.0218  -56.3158 H         1 UNK         0.3800 
    243 H243       -5.6608  -17.2044  -56.9047 H         1 UNK         0.3800 
    244 H244       -4.2382  -17.4045  -52.7321 H         1 UNK         0.0800 
    245 H245       -4.7348  -18.7982  -53.6547 H         1 UNK         0.0800 
    246 H246       -2.0452  -16.9408  -51.8065 H         1 UNK         0.0800 
    247 H247       -2.4224  -18.3728  -50.8742 H         1 UNK         0.0800 
@<TRIPOS>BOND
     1    1    2 1    
     2    1  127 1    
     3    1  128 1    
     4    1  129 1    
     5    2    3 2    
     6    2    4 am   BACKBONE|DICT|INTERRES
     7    4    5 1    
     8    4  130 1    
     9    5    6 1    
    10    5   65 1    
    11    5  131 1    
    12    6    7 1    
    13    6  132 1    
    14    6  133 1    
    15    7    8 1    
    16    8    9 1    
    17    8  134 1    
    18    8  135 1    
    19    9   10 ar   
    20    9   14 ar   
    21   10   11 ar   
    22   10  136 1    
    23   11   12 ar   
    24   11  126 1    
    25   12   13 ar   
    26   12  137 1    
    27   13   14 ar   
    28   13   15 1    
    29   14  138 1    
    30   15   16 1    
    31   15  139 1    
    32   15  140 1    
    33   16   17 1    
    34   17   18 1    
    35   17  141 1    
    36   17  142 1    
    37   18   19 1    
    38   18   67 1    
    39   18  143 1    
    40   19   20 am   BACKBONE|DICT|INTERRES
    41   19  144 1    
    42   20   21 2    
    43   20   22 1    
    44   22   23 1    
    45   22   24 1    
    46   22  145 1    
    47   23  146 1    
    48   23  147 1    
    49   23  148 1    
    50   24   25 am   BACKBONE|DICT|INTERRES
    51   24  149 1    
    52   25   26 2    
    53   25   27 1    
    54   27   28 1    
    55   27   29 1    
    56   27  150 1    
    57   28  151 1    
    58   28  152 1    
    59   28  153 1    
    60   29   30 am   BACKBONE|DICT|INTERRES
    61   29  154 1    
    62   30   31 2    
    63   30   32 1    
    64   32   33 1    
    65   32   34 1    
    66   32  155 1    
    67   33  156 1    
    68   33  157 1    
    69   33  158 1    
    70   34   35 am   BACKBONE|DICT|INTERRES
    71   34  159 1    
    72   35   36 2    
    73   35   37 1    
    74   37   38 1    
    75   37   39 1    
    76   37  160 1    
    77   38  161 1    
    78   38  162 1    
    79   38  163 1    
    80   39   40 am   BACKBONE|DICT|INTERRES
    81   39  164 1    
    82   40   41 2    
    83   40   42 1    
    84   42   43 1    
    85   42   44 1    
    86   42  165 1    
    87   43  166 1    
    88   43  167 1    
    89   43  168 1    
    90   44   45 am   BACKBONE|DICT|INTERRES
    91   44  169 1    
    92   45   46 2    
    93   45   47 1    
    94   47   48 1    
    95   47   49 1    
    96   47  170 1    
    97   48  171 1    
    98   48  172 1    
    99   48  173 1    
   100   49   50 am   BACKBONE|DICT|INTERRES
   101   49  174 1    
   102   50   51 2    
   103   50   52 1    
   104   52   53 1    
   105   52   54 1    
   106   52  175 1    
   107   53  176 1    
   108   53  177 1    
   109   53  178 1    
   110   54   55 am   BACKBONE|DICT|INTERRES
   111   54  179 1    
   112   55   56 2    
   113   55   57 1    
   114   57   58 1    
   115   57   59 1    
   116   57  180 1    
   117   58  181 1    
   118   58  182 1    
   119   58  183 1    
   120   59   60 am   BACKBONE|DICT|INTERRES
   121   59  184 1    
   122   60   61 2    
   123   60   62 1    
   124   62   63 1    
   125   62   64 1    
   126   62  185 1    
   127   63  186 1    
   128   63  187 1    
   129   63  188 1    
   130   64   65 am   BACKBONE|DICT|INTERRES
   131   64  189 1    
   132   65   66 2    
   133   67   68 2    
   134   67   69 am   BACKBONE|DICT|INTERRES
   135   69   70 1    
   136   69  190 1    
   137   70   71 1    
   138   70   72 1    
   139   70  191 1    
   140   71  192 1    
   141   71  193 1    
   142   71  194 1    
   143   72   73 2    
   144   72   74 am   BACKBONE|DICT|INTERRES
   145   74   75 1    
   146   74  195 1    
   147   75   76 1    
   148   75   77 1    
   149   75  196 1    
   150   76  197 1    
   151   76  198 1    
   152   76  199 1    
   153   77   78 2    
   154   77   79 am   BACKBONE|DICT|INTERRES
   155   79   80 1    
   156   79  200 1    
   157   80   81 1    
   158   80   82 1    
   159   80  201 1    
   160   81  202 1    
   161   81  203 1    
   162   81  204 1    
   163   82   83 2    
   164   82   84 am   BACKBONE|DICT|INTERRES
   165   84   85 1    
   166   84  205 1    
   167   85   86 1    
   168   85   87 1    
   169   85  206 1    
   170   86  207 1    
   171   86  208 1    
   172   86  209 1    
   173   87   88 2    
   174   87   89 am   BACKBONE|DICT|INTERRES
   175   89   90 1    
   176   89  210 1    
   177   90   91 1    
   178   90   92 1    
   179   90  211 1    
   180   91  212 1    
   181   91  213 1    
   182   91  214 1    
   183   92   93 2    
   184   92   94 am   BACKBONE|DICT|INTERRES
   185   94   95 1    
   186   94  215 1    
   187   95   96 1    
   188   95   97 1    
   189   95  216 1    
   190   96  217 1    
   191   96  218 1    
   192   96  219 1    
   193   97   98 2    
   194   97   99 am   BACKBONE|DICT|INTERRES
   195   99  100 1    
   196   99  220 1    
   197  100  101 1    
   198  100  102 1    
   199  100  221 1    
   200  101  222 1    
   201  101  223 1    
   202  101  224 1    
   203  102  103 2    
   204  102  104 am   BACKBONE|DICT|INTERRES
   205  104  105 1    
   206  104  225 1    
   207  105  106 1    
   208  105  107 1    
   209  105  226 1    
   210  106  227 1    
   211  106  228 1    
   212  106  229 1    
   213  107  108 2    
   214  107  109 am   BACKBONE|DICT|INTERRES
   215  109  110 1    
   216  109  230 1    
   217  110  111 1    
   218  110  112 1    
   219  110  231 1    
   220  111  232 1    
   221  111  233 1    
   222  111  234 1    
   223  112  113 2    
   224  112  114 am   BACKBONE|DICT|INTERRES
   225  114  115 1    
   226  114  235 1    
   227  115  116 1    
   228  115  117 1    
   229  115  236 1    
   230  116  237 1    
   231  116  238 1    
   232  116  239 1    
   233  117  118 2    
   234  117  119 am   BACKBONE|DICT|INTERRES
   235  119  120 1    
   236  119  240 1    
   237  120  121 1    
   238  120  124 1    
   239  120  241 1    
   240  121  122 am   BACKBONE|DICT|INTERRES
   241  121  123 2    
   242  122  242 1    
   243  122  243 1    
   244  124  125 1    
   245  124  244 1    
   246  124  245 1    
   247  125  126 1    
   248  126  246 1    
   249  126  247 1    
@<TRIPOS>SUBSTRUCTURE
     1 UNK         1 GROUP             0       ****    0 ROOT    
