@<TRIPOS>MOLECULE
3R540
247   249    1
SMALL
USER_CHARGES


@<TRIPOS>ATOM
      1 CA         -4.2922  -20.3568  -45.2275 C.3       0 UNK        -0.1800 
      2 C          -3.5582  -19.0278  -45.3185 C.2       0 UNK         0.5000 
      3 O          -3.9416  -18.0648  -44.6538 O.2       0 UNK        -0.5000 
      4 N          -2.4782  -18.9769  -46.1094 N.am      1 UNK        -0.5000 
      5 CA         -1.6061  -17.8047  -46.2537 C.3       1 UNK         0.1400 
      6 C6         -0.6037  -17.9422  -47.4216 C.3       23 UNK        -0.0398 
      7 S7         -1.4178  -17.9822  -49.0509 S.3       23 UNK        -0.2404 
      8 C8          0.0187  -18.1659  -50.1564 C.3       23 UNK        -0.0205 
      9 C9          0.5405  -19.5929  -50.1798 C.ar      23 UNK        -0.0193 
     10 C10        -0.0387  -20.5337  -51.0339 C.ar      23 UNK        -0.1150 
     11 C11         0.4420  -21.8449  -51.0727 C.ar      23 UNK        -0.0193 
     12 C12         1.4819  -22.2195  -50.2164 C.ar      23 UNK        -0.1150 
     13 C13         2.0655  -21.2939  -49.3453 C.ar      23 UNK        -0.0193 
     14 C14         1.6064  -19.9711  -49.3607 C.ar      23 UNK        -0.1150 
     15 C15         3.1902  -21.7646  -48.4187 C.3       23 UNK        -0.0205 
     16 S16         3.4596  -20.7758  -46.9011 S.3       23 UNK        -0.2404 
     17 C17         1.8206  -20.8355  -46.1000 C.3       23 UNK        -0.0398 
     18 CA          1.6231  -22.0525  -45.1686 C.3       11 UNK         0.1400 
     19 N           2.6177  -22.0943  -44.0906 N.am      11 UNK        -0.5000 
     20 C           3.0407  -23.2035  -43.4675 C.2       10 UNK         0.5000 
     21 O           2.5625  -24.3181  -43.6841 O.2       10 UNK        -0.5000 
     22 CA          4.1719  -23.0618  -42.4287 C.3       10 UNK         0.1400 
     23 CB          5.5234  -23.4228  -43.0637 C.3       10 UNK        -0.1800 
     24 N           4.2687  -21.7230  -41.8494 N.am      10 UNK        -0.5000 
     25 C           3.3817  -21.1871  -41.0010 C.2       9 UNK         0.5000 
     26 O           2.4199  -21.8043  -40.5433 O.2       9 UNK        -0.5000 
     27 CA          3.5913  -19.7096  -40.6051 C.3       9 UNK         0.1400 
     28 CB          4.1959  -19.6169  -39.1957 C.3       9 UNK        -0.1800 
     29 N           4.4220  -18.9248  -41.5268 N.am      9 UNK        -0.5000 
     30 C           4.1792  -18.7174  -42.8283 C.2       8 UNK         0.5000 
     31 O           3.2566  -19.2500  -43.4485 O.2       8 UNK        -0.5000 
     32 CA          5.1875  -17.8121  -43.5606 C.3       8 UNK         0.1400 
     33 CB          6.4461  -18.6156  -43.9260 C.3       8 UNK        -0.1800 
     34 N           4.6471  -17.2211  -44.7843 N.am      8 UNK        -0.5000 
     35 C           3.6151  -16.3714  -44.8538 C.2       7 UNK         0.5000 
     36 O           3.0091  -15.9363  -43.8698 O.2       7 UNK        -0.5000 
     37 CA          3.2119  -15.9241  -46.2685 C.3       7 UNK         0.1400 
     38 CB          2.9842  -17.1184  -47.2122 C.3       7 UNK        -0.1800 
     39 N           1.9987  -15.1202  -46.1920 N.am      7 UNK        -0.5000 
     40 C           1.6388  -14.1586  -47.0499 C.2       6 UNK         0.5000 
     41 O           2.2885  -13.8614  -48.0528 O.2       6 UNK        -0.5000 
     42 CA          0.3358  -13.3971  -46.7431 C.3       6 UNK         0.1400 
     43 CB         -0.7966  -13.8672  -47.6712 C.3       6 UNK        -0.1800 
     44 N          -0.0916  -13.5847  -45.3588 N.am      6 UNK        -0.5000 
     45 C           0.2612  -12.8207  -44.3183 C.2       5 UNK         0.5000 
     46 O           0.9683  -11.8162  -44.4161 O.2       5 UNK        -0.5000 
     47 CA         -0.2725  -13.2758  -42.9418 C.3       5 UNK         0.1400 
     48 CB         -0.2857  -12.1489  -41.8884 C.3       5 UNK        -0.1800 
     49 N          -1.5822  -13.9321  -43.0376 N.am      5 UNK        -0.5000 
     50 C          -2.7400  -13.3966  -43.4566 C.2       4 UNK         0.5000 
     51 O          -2.8886  -12.2056  -43.7321 O.2       4 UNK        -0.5000 
     52 CA         -3.9324  -14.3593  -43.6368 C.3       4 UNK         0.1400 
     53 CB         -4.1800  -14.6156  -45.1316 C.3       4 UNK        -0.1800 
     54 N          -3.7509  -15.6479  -42.9656 N.am      4 UNK        -0.5000 
     55 C          -3.8094  -15.8340  -41.6401 C.2       3 UNK         0.5000 
     56 O          -4.0806  -14.9442  -40.8333 O.2       3 UNK        -0.5000 
     57 CA         -3.4730  -17.2461  -41.1322 C.3       3 UNK         0.1400 
     58 CB         -4.7146  -18.1506  -41.1644 C.3       3 UNK        -0.1800 
     59 N          -2.3965  -17.8708  -41.9026 N.am      3 UNK        -0.5000 
     60 C          -1.1037  -17.5236  -41.8277 C.2       2 UNK         0.5000 
     61 O          -0.6746  -16.6226  -41.1077 O.2       2 UNK        -0.5000 
     62 CA         -0.1332  -18.3159  -42.7221 C.3       2 UNK         0.1400 
     63 CB          0.1140  -19.7010  -42.1064 C.3       2 UNK        -0.1800 
     64 N          -0.6323  -18.4761  -44.0887 N.am      2 UNK        -0.5000 
     65 C          -0.8704  -17.4667  -44.9398 C.2       1 UNK         0.5000 
     66 O          -0.5780  -16.2942  -44.7076 O.2       1 UNK        -0.5000 
     67 C           0.1735  -22.1292  -44.6359 C.2       11 UNK         0.5000 
     68 O          -0.6702  -21.3086  -45.0071 O.2       11 UNK        -0.5000 
     69 N          -0.0966  -23.1063  -43.7634 N.am      12 UNK        -0.5000 
     70 CA         -1.4400  -23.4386  -43.2906 C.3       12 UNK         0.1400 
     71 CB         -1.3355  -24.2459  -41.9887 C.3       12 UNK        -0.1800 
     72 C          -2.2237  -24.2167  -44.3631 C.2       12 UNK         0.5000 
     73 O          -3.4140  -23.9701  -44.5548 O.2       12 UNK        -0.5000 
     74 N          -1.5232  -25.1050  -45.0816 N.am      13 UNK        -0.5000 
     75 CA         -2.0319  -25.8855  -46.2096 C.3       13 UNK         0.1400 
     76 CB         -1.3424  -27.2621  -46.2064 C.3       13 UNK        -0.1800 
     77 C          -1.8330  -25.1205  -47.5345 C.2       13 UNK         0.5000 
     78 O          -1.2335  -25.6447  -48.4753 O.2       13 UNK        -0.5000 
     79 N          -2.3140  -23.8729  -47.5682 N.am      14 UNK        -0.5000 
     80 CA         -2.2824  -22.9926  -48.7341 C.3       14 UNK         0.1400 
     81 CB         -2.3068  -21.5374  -48.2441 C.3       14 UNK        -0.1800 
     82 C          -3.4433  -23.2815  -49.7085 C.2       14 UNK         0.5000 
     83 O          -4.2318  -24.2055  -49.4907 O.2       14 UNK        -0.5000 
     84 N          -3.5267  -22.4746  -50.7744 N.am      15 UNK        -0.5000 
     85 CA         -4.5909  -22.5177  -51.7769 C.3       15 UNK         0.1400 
     86 CB         -4.2138  -21.5902  -52.9443 C.3       15 UNK        -0.1800 
     87 C          -5.9563  -22.1153  -51.1850 C.2       15 UNK         0.5000 
     88 O          -6.0157  -21.2493  -50.3093 O.2       15 UNK        -0.5000 
     89 N          -7.0273  -22.7417  -51.6887 N.am      16 UNK        -0.5000 
     90 CA         -8.4076  -22.4930  -51.2596 C.3       16 UNK         0.1400 
     91 CB         -9.2802  -23.6874  -51.6768 C.3       16 UNK        -0.1800 
     92 C          -8.9931  -21.1792  -51.8149 C.2       16 UNK         0.5000 
     93 O          -9.9369  -20.6444  -51.2308 O.2       16 UNK        -0.5000 
     94 N          -8.4340  -20.6971  -52.9320 N.am      17 UNK        -0.5000 
     95 CA         -8.7778  -19.4325  -53.5773 C.3       17 UNK         0.1400 
     96 CB         -8.7771  -19.6484  -55.1049 C.3       17 UNK        -0.1800 
     97 C          -7.8152  -18.3232  -53.1005 C.2       17 UNK         0.5000 
     98 O          -7.5162  -18.2425  -51.9071 O.2       17 UNK        -0.5000 
     99 N          -7.3501  -17.4782  -54.0287 N.am      18 UNK        -0.5000 
    100 CA        -6.3290  -16.4585  -53.7913 C.3       18 UNK         0.1400 
    101 CB        -6.3083  -15.5008  -54.9937 C.3       18 UNK        -0.1800 
    102 C         -4.9367  -17.0856  -53.5922 C.2       18 UNK         0.5000 
    103 O         -4.6888  -18.1979  -54.0612 O.2       18 UNK        -0.5000 
    104 N         -4.0260  -16.3301  -52.9647 N.am      19 UNK        -0.5000 
    105 CA        -2.6262  -16.7101  -52.7336 C.3       19 UNK         0.1400 
    106 CB        -1.9269  -15.5683  -51.9769 C.3       19 UNK        -0.1800 
    107 C         -1.8524  -17.0527  -54.0246 C.2       19 UNK         0.5000 
    108 O         -1.0048  -17.9460  -54.0175 O.2       19 UNK        -0.5000 
    109 N         -2.1973  -16.3585  -55.1170 N.am      20 UNK        -0.5000 
    110 CA        -1.6410  -16.5426  -56.4567 C.3       20 UNK         0.1400 
    111 CB        -1.9955  -15.3081  -57.3013 C.3       20 UNK        -0.1800 
    112 C         -2.1047  -17.8322  -57.1671 C.2       20 UNK         0.5000 
    113 O         -1.5234  -18.1810  -58.1952 O.2       20 UNK        -0.5000 
    114 N         -3.1314  -18.5172  -56.6385 N.am      21 UNK        -0.5000 
    115 CA        -3.6766  -19.7528  -57.2109 C.3       21 UNK         0.1400 
    116 CB        -5.1212  -19.9460  -56.7229 C.3       21 UNK        -0.1800 
    117 C         -2.8235  -21.0025  -56.9080 C.2       21 UNK         0.5000 
    118 O         -3.0924  -22.0599  -57.4802 O.2       21 UNK        -0.5000 
    119 N         -1.8272  -20.8749  -56.0201 N.am      22 UNK        -0.5000 
    120 CA        -0.8459  -21.9199  -55.6952 C.3       22 UNK         0.1400 
    121 C          0.0214  -22.3311  -56.9212 C.2       22 UNK         0.5000 
    122 N          0.2165  -23.6223  -57.1529 N.am      22 UNK        -0.7600 
    123 O          0.5467  -21.4858  -57.6424 O.2       22 UNK        -0.5000 
    124 C124        0.0411  -21.4869  -54.5004 C.3       23 UNK        -0.0398 
    125 S125        0.7448  -22.9174  -53.6064 S.3       23 UNK        -0.2404 
    126 C126       -0.1595  -22.8641  -52.0291 C.3       23 UNK        -0.0205 
    127 H127       -4.7708  -20.4610  -44.2524 H         1 UNK         0.0600 
    128 H128       -3.6057  -21.1952  -45.3530 H         1 UNK         0.0600 
    129 H129       -5.0633  -20.4163  -45.9968 H         1 UNK         0.0600 
    130 H130       -2.1905  -19.8049  -46.6102 H         1 UNK         0.3000 
    131 H131       -2.2504  -16.9521  -46.4743 H         1 UNK         0.0600 
    132 H132       -0.0024  -18.8411  -47.3006 H         1 UNK         0.0800 
    133 H133        0.0881  -17.0992  -47.4318 H         1 UNK         0.0800 
    134 H134       -0.2732  -17.8872  -51.1681 H         1 UNK         0.0800 
    135 H135        0.8052  -17.4680  -49.8657 H         1 UNK         0.0800 
    136 H136       -0.8578  -20.2344  -51.6717 H         1 UNK         0.1150 
    137 H137        1.8428  -23.2385  -50.2343 H         1 UNK         0.1150 
    138 H138        2.0619  -19.2339  -48.7194 H         1 UNK         0.1150 
    139 H139        3.0044  -22.7963  -48.1161 H         1 UNK         0.0800 
    140 H140        4.1197  -21.7753  -48.9888 H         1 UNK         0.0800 
    141 H141        1.0535  -20.8376  -46.8726 H         1 UNK         0.0800 
    142 H142        1.6860  -19.9080  -45.5411 H         1 UNK         0.0800 
    143 H143        1.7573  -22.9437  -45.7853 H         1 UNK         0.0600 
    144 H144        3.0151  -21.1967  -43.8302 H         1 UNK         0.3000 
    145 H145        3.9706  -23.7709  -41.6230 H         1 UNK         0.0600 
    146 H146        5.5018  -24.4297  -43.4830 H         1 UNK         0.0600 
    147 H147        5.7844  -22.7368  -43.8708 H         1 UNK         0.0600 
    148 H148        6.3261  -23.3967  -42.3265 H         1 UNK         0.0600 
    149 H149        5.0281  -21.1422  -42.1719 H         1 UNK         0.3000 
    150 H150        2.6084  -19.2383  -40.5804 H         1 UNK         0.0600 
    151 H151        5.2010  -20.0393  -39.1614 H         1 UNK         0.0600 
    152 H152        3.5870  -20.1596  -38.4712 H         1 UNK         0.0600 
    153 H153        4.2533  -18.5823  -38.8567 H         1 UNK         0.0600 
    154 H154        5.2223  -18.4700  -41.1113 H         1 UNK         0.3000 
    155 H155        5.4683  -16.9966  -42.8910 H         1 UNK         0.0600 
    156 H156        6.2133  -19.4391  -44.6030 H         1 UNK         0.0600 
    157 H157        6.9153  -19.0428  -43.0389 H         1 UNK         0.0600 
    158 H158        7.1913  -17.9840  -44.4101 H         1 UNK         0.0600 
    159 H159        5.0581  -17.5471  -45.6461 H         1 UNK         0.3000 
    160 H160        4.0243  -15.3071  -46.6576 H         1 UNK         0.0600 
    161 H161        2.2837  -17.8315  -46.7793 H         1 UNK         0.0600 
    162 H162        3.9137  -17.6520  -47.4115 H         1 UNK         0.0600 
    163 H163        2.5910  -16.7972  -48.1765 H         1 UNK         0.0600 
    164 H164        1.4435  -15.2734  -45.3579 H         1 UNK         0.3000 
    165 H165        0.5165  -12.3368  -46.9312 H         1 UNK         0.0600 
    166 H166       -1.0350  -14.9195  -47.5181 H         1 UNK         0.0600 
    167 H167       -0.5233  -13.7418  -48.7197 H         1 UNK         0.0600 
    168 H168       -1.7070  -13.2920  -47.5017 H         1 UNK         0.0600 
    169 H169       -0.5984  -14.4414  -45.1564 H         1 UNK         0.3000 
    170 H170        0.4199  -14.0434  -42.5921 H         1 UNK         0.0600 
    171 H171        0.7219  -11.7729  -41.7079 H         1 UNK         0.0600 
    172 H172       -0.8968  -11.3030  -42.2040 H         1 UNK         0.0600 
    173 H173       -0.6733  -12.5068  -40.9346 H         1 UNK         0.0600 
    174 H174       -1.5728  -14.9280  -42.8629 H         1 UNK         0.3000 
    175 H175       -4.8172  -13.8742  -43.2194 H         1 UNK         0.0600 
    176 H176       -5.0230  -15.2898  -45.2849 H         1 UNK         0.0600 
    177 H177       -4.4064  -13.6862  -45.6556 H         1 UNK         0.0600 
    178 H178       -3.3060  -15.0555  -45.6113 H         1 UNK         0.0600 
    179 H179       -3.5985  -16.4571  -43.5609 H         1 UNK         0.3000 
    180 H180       -3.1451  -17.1579  -40.0941 H         1 UNK         0.0600 
    181 H181       -5.0910  -18.2869  -42.1788 H         1 UNK         0.0600 
    182 H182       -5.5231  -17.7228  -40.5702 H         1 UNK         0.0600 
    183 H183       -4.4955  -19.1359  -40.7526 H         1 UNK         0.0600 
    184 H184       -2.6704  -18.5837  -42.5626 H         1 UNK         0.3000 
    185 H185        0.8147  -17.7743  -42.7614 H         1 UNK         0.0600 
    186 H186       -0.7660  -20.3409  -42.1790 H         1 UNK         0.0600 
    187 H187        0.9383  -20.2085  -42.6028 H         1 UNK         0.0600 
    188 H188        0.3695  -19.6257  -41.0493 H         1 UNK         0.0600 
    189 H189       -0.8714  -19.4193  -44.3790 H         1 UNK         0.3000 
    190 H190        0.6632  -23.7221  -43.4929 H         1 UNK         0.3000 
    191 H191       -1.9825  -22.5148  -43.0774 H         1 UNK         0.0600 
    192 H192       -0.7928  -25.1808  -42.1341 H         1 UNK         0.0600 
    193 H193       -2.3252  -24.4954  -41.6042 H         1 UNK         0.0600 
    194 H194       -0.8197  -23.6763  -41.2151 H         1 UNK         0.0600 
    195 H195       -0.5398  -25.2097  -44.8800 H         1 UNK         0.3000 
    196 H196       -3.1045  -26.0512  -46.0892 H         1 UNK         0.0600 
    197 H197       -1.7229  -27.8925  -47.0110 H         1 UNK         0.0600 
    198 H198       -1.5231  -27.7901  -45.2700 H         1 UNK         0.0600 
    199 H199       -0.2633  -27.1736  -46.3385 H         1 UNK         0.0600 
    200 H200       -2.8256  -23.5418  -46.7615 H         1 UNK         0.3000 
    201 H201       -1.3472  -23.1566  -49.2714 H         1 UNK         0.0600 
    202 H202       -2.1855  -20.8381  -49.0702 H         1 UNK         0.0600 
    203 H203       -3.2508  -21.3010  -47.7542 H         1 UNK         0.0600 
    204 H204       -1.4919  -21.3470  -47.5467 H         1 UNK         0.0600 
    205 H205       -2.8854  -21.7001  -50.8444 H         1 UNK         0.3000 
    206 H206       -4.6580  -23.5408  -52.1530 H         1 UNK         0.0600 
    207 H207       -4.1078  -20.5542  -52.6190 H         1 UNK         0.0600 
    208 H208       -4.9785  -21.6111  -53.7211 H         1 UNK         0.0600 
    209 H209       -3.2759  -21.8939  -53.4092 H         1 UNK         0.0600 
    210 H210       -6.8986  -23.4473  -52.4000 H         1 UNK         0.3000 
    211 H211       -8.4255  -22.4250  -50.1695 H         1 UNK         0.0600 
    212 H212       -9.2968  -23.8157  -52.7599 H         1 UNK         0.0600 
    213 H213      -10.3112  -23.5523  -51.3468 H         1 UNK         0.0600 
    214 H214       -8.9182  -24.6151  -51.2331 H         1 UNK         0.0600 
    215 H215       -7.6400  -21.1903  -53.3107 H         1 UNK         0.3000 
    216 H216       -9.7846  -19.1270  -53.2857 H         1 UNK         0.0600 
    217 H217       -9.1237  -18.7609  -55.6355 H         1 UNK         0.0600 
    218 H218       -9.4484  -20.4616  -55.3821 H         1 UNK         0.0600 
    219 H219       -7.7843  -19.9006  -55.4785 H         1 UNK         0.0600 
    220 H220       -7.6180  -17.6266  -54.9899 H         1 UNK         0.3000 
    221 H221       -6.5944  -15.8971  -52.8931 H         1 UNK         0.0600 
    222 H222       -6.0324  -16.0165  -55.9149 H         1 UNK         0.0600 
    223 H223       -7.2841  -15.0396  -55.1472 H         1 UNK         0.0600 
    224 H224       -5.5911  -14.6931  -54.8428 H         1 UNK         0.0600 
    225 H225       -4.3032  -15.4234  -52.6170 H         1 UNK         0.3000 
    226 H226       -2.6219  -17.6018  -52.1033 H         1 UNK         0.0600 
    227 H227       -2.3529  -15.4373  -50.9818 H         1 UNK         0.0600 
    228 H228       -0.8622  -15.7642  -51.8490 H         1 UNK         0.0600 
    229 H229       -2.0163  -14.6202  -52.5084 H         1 UNK         0.0600 
    230 H230       -2.9139  -15.6543  -55.0227 H         1 UNK         0.3000 
    231 H231       -0.5538  -16.5960  -56.3690 H         1 UNK         0.0600 
    232 H232       -3.0745  -15.1964  -57.4161 H         1 UNK         0.0600 
    233 H233       -1.5648  -15.3790  -58.3010 H         1 UNK         0.0600 
    234 H234       -1.6087  -14.3950  -56.8484 H         1 UNK         0.0600 
    235 H235       -3.5539  -18.2018  -55.7716 H         1 UNK         0.3000 
    236 H236       -3.7091  -19.6422  -58.2969 H         1 UNK         0.0600 
    237 H237       -5.6014  -20.7741  -57.2454 H         1 UNK         0.0600 
    238 H238       -5.1596  -20.1710  -55.6578 H         1 UNK         0.0600 
    239 H239       -5.7240  -19.0555  -56.9017 H         1 UNK         0.0600 
    240 H240       -1.6677  -19.9640  -55.6140 H         1 UNK         0.3000 
    241 H241       -1.4318  -22.7879  -55.3853 H         1 UNK         0.0600 
    242 H242        0.7870  -23.9002  -57.9364 H         1 UNK         0.3800 
    243 H243       -0.1887  -24.3306  -56.5604 H         1 UNK         0.3800 
    244 H244       -0.5481  -20.8939  -53.8029 H         1 UNK         0.0800 
    245 H245        0.8517  -20.8304  -54.8224 H         1 UNK         0.0800 
    246 H246       -1.2100  -22.6493  -52.2199 H         1 UNK         0.0800 
    247 H247       -0.1309  -23.8555  -51.5742 H         1 UNK         0.0800 
@<TRIPOS>BOND
     1    1    2 1    
     2    1  127 1    
     3    1  128 1    
     4    1  129 1    
     5    2    3 2    
     6    2    4 am   BACKBONE|DICT|INTERRES
     7    4    5 1    
     8    4  130 1    
     9    5    6 1    
    10    5   65 1    
    11    5  131 1    
    12    6    7 1    
    13    6  132 1    
    14    6  133 1    
    15    7    8 1    
    16    8    9 1    
    17    8  134 1    
    18    8  135 1    
    19    9   10 ar   
    20    9   14 ar   
    21   10   11 ar   
    22   10  136 1    
    23   11   12 ar   
    24   11  126 1    
    25   12   13 ar   
    26   12  137 1    
    27   13   14 ar   
    28   13   15 1    
    29   14  138 1    
    30   15   16 1    
    31   15  139 1    
    32   15  140 1    
    33   16   17 1    
    34   17   18 1    
    35   17  141 1    
    36   17  142 1    
    37   18   19 1    
    38   18   67 1    
    39   18  143 1    
    40   19   20 am   BACKBONE|DICT|INTERRES
    41   19  144 1    
    42   20   21 2    
    43   20   22 1    
    44   22   23 1    
    45   22   24 1    
    46   22  145 1    
    47   23  146 1    
    48   23  147 1    
    49   23  148 1    
    50   24   25 am   BACKBONE|DICT|INTERRES
    51   24  149 1    
    52   25   26 2    
    53   25   27 1    
    54   27   28 1    
    55   27   29 1    
    56   27  150 1    
    57   28  151 1    
    58   28  152 1    
    59   28  153 1    
    60   29   30 am   BACKBONE|DICT|INTERRES
    61   29  154 1    
    62   30   31 2    
    63   30   32 1    
    64   32   33 1    
    65   32   34 1    
    66   32  155 1    
    67   33  156 1    
    68   33  157 1    
    69   33  158 1    
    70   34   35 am   BACKBONE|DICT|INTERRES
    71   34  159 1    
    72   35   36 2    
    73   35   37 1    
    74   37   38 1    
    75   37   39 1    
    76   37  160 1    
    77   38  161 1    
    78   38  162 1    
    79   38  163 1    
    80   39   40 am   BACKBONE|DICT|INTERRES
    81   39  164 1    
    82   40   41 2    
    83   40   42 1    
    84   42   43 1    
    85   42   44 1    
    86   42  165 1    
    87   43  166 1    
    88   43  167 1    
    89   43  168 1    
    90   44   45 am   BACKBONE|DICT|INTERRES
    91   44  169 1    
    92   45   46 2    
    93   45   47 1    
    94   47   48 1    
    95   47   49 1    
    96   47  170 1    
    97   48  171 1    
    98   48  172 1    
    99   48  173 1    
   100   49   50 am   BACKBONE|DICT|INTERRES
   101   49  174 1    
   102   50   51 2    
   103   50   52 1    
   104   52   53 1    
   105   52   54 1    
   106   52  175 1    
   107   53  176 1    
   108   53  177 1    
   109   53  178 1    
   110   54   55 am   BACKBONE|DICT|INTERRES
   111   54  179 1    
   112   55   56 2    
   113   55   57 1    
   114   57   58 1    
   115   57   59 1    
   116   57  180 1    
   117   58  181 1    
   118   58  182 1    
   119   58  183 1    
   120   59   60 am   BACKBONE|DICT|INTERRES
   121   59  184 1    
   122   60   61 2    
   123   60   62 1    
   124   62   63 1    
   125   62   64 1    
   126   62  185 1    
   127   63  186 1    
   128   63  187 1    
   129   63  188 1    
   130   64   65 am   BACKBONE|DICT|INTERRES
   131   64  189 1    
   132   65   66 2    
   133   67   68 2    
   134   67   69 am   BACKBONE|DICT|INTERRES
   135   69   70 1    
   136   69  190 1    
   137   70   71 1    
   138   70   72 1    
   139   70  191 1    
   140   71  192 1    
   141   71  193 1    
   142   71  194 1    
   143   72   73 2    
   144   72   74 am   BACKBONE|DICT|INTERRES
   145   74   75 1    
   146   74  195 1    
   147   75   76 1    
   148   75   77 1    
   149   75  196 1    
   150   76  197 1    
   151   76  198 1    
   152   76  199 1    
   153   77   78 2    
   154   77   79 am   BACKBONE|DICT|INTERRES
   155   79   80 1    
   156   79  200 1    
   157   80   81 1    
   158   80   82 1    
   159   80  201 1    
   160   81  202 1    
   161   81  203 1    
   162   81  204 1    
   163   82   83 2    
   164   82   84 am   BACKBONE|DICT|INTERRES
   165   84   85 1    
   166   84  205 1    
   167   85   86 1    
   168   85   87 1    
   169   85  206 1    
   170   86  207 1    
   171   86  208 1    
   172   86  209 1    
   173   87   88 2    
   174   87   89 am   BACKBONE|DICT|INTERRES
   175   89   90 1    
   176   89  210 1    
   177   90   91 1    
   178   90   92 1    
   179   90  211 1    
   180   91  212 1    
   181   91  213 1    
   182   91  214 1    
   183   92   93 2    
   184   92   94 am   BACKBONE|DICT|INTERRES
   185   94   95 1    
   186   94  215 1    
   187   95   96 1    
   188   95   97 1    
   189   95  216 1    
   190   96  217 1    
   191   96  218 1    
   192   96  219 1    
   193   97   98 2    
   194   97   99 am   BACKBONE|DICT|INTERRES
   195   99  100 1    
   196   99  220 1    
   197  100  101 1    
   198  100  102 1    
   199  100  221 1    
   200  101  222 1    
   201  101  223 1    
   202  101  224 1    
   203  102  103 2    
   204  102  104 am   BACKBONE|DICT|INTERRES
   205  104  105 1    
   206  104  225 1    
   207  105  106 1    
   208  105  107 1    
   209  105  226 1    
   210  106  227 1    
   211  106  228 1    
   212  106  229 1    
   213  107  108 2    
   214  107  109 am   BACKBONE|DICT|INTERRES
   215  109  110 1    
   216  109  230 1    
   217  110  111 1    
   218  110  112 1    
   219  110  231 1    
   220  111  232 1    
   221  111  233 1    
   222  111  234 1    
   223  112  113 2    
   224  112  114 am   BACKBONE|DICT|INTERRES
   225  114  115 1    
   226  114  235 1    
   227  115  116 1    
   228  115  117 1    
   229  115  236 1    
   230  116  237 1    
   231  116  238 1    
   232  116  239 1    
   233  117  118 2    
   234  117  119 am   BACKBONE|DICT|INTERRES
   235  119  120 1    
   236  119  240 1    
   237  120  121 1    
   238  120  124 1    
   239  120  241 1    
   240  121  122 am   BACKBONE|DICT|INTERRES
   241  121  123 2    
   242  122  242 1    
   243  122  243 1    
   244  124  125 1    
   245  124  244 1    
   246  124  245 1    
   247  125  126 1    
   248  126  246 1    
   249  126  247 1    
@<TRIPOS>SUBSTRUCTURE
     1 UNK         1 GROUP             0       ****    0 ROOT    
