@<TRIPOS>MOLECULE
3R540
247   249    1
SMALL
USER_CHARGES


@<TRIPOS>ATOM
      1 CA          6.1238  -11.8766  -47.6339 C.3       0 UNK        -0.1800 
      2 C           4.7744  -12.1801  -47.0015 C.2       0 UNK         0.5000 
      3 O           4.4286  -11.5823  -45.9826 O.2       0 UNK        -0.5000 
      4 N           4.0019  -13.0894  -47.6114 N.am      1 UNK        -0.5000 
      5 CA          2.7008  -13.5944  -47.1400 C.3       1 UNK         0.1400 
      6 C6          2.1620  -14.7182  -48.0547 C.3       23 UNK        -0.0398 
      7 S7          3.2622  -16.1719  -48.1219 S.3       23 UNK        -0.2404 
      8 C8          3.3442  -16.4784  -49.9150 C.3       23 UNK        -0.0205 
      9 C9          2.0359  -17.0393  -50.4555 C.ar      23 UNK        -0.0193 
     10 C10         1.0754  -16.1897  -51.0099 C.ar      23 UNK        -0.1150 
     11 C11        -0.1176  -16.7044  -51.5216 C.ar      23 UNK        -0.0193 
     12 C12        -0.3476  -18.0824  -51.4707 C.ar      23 UNK        -0.1150 
     13 C13         0.6026  -18.9521  -50.9265 C.ar      23 UNK        -0.0193 
     14 C14         1.7962  -18.4157  -50.4207 C.ar      23 UNK        -0.1150 
     15 C15         0.2978  -20.4538  -50.9410 C.3       23 UNK        -0.0205 
     16 S16         1.4459  -21.5140  -49.9952 S.3       23 UNK        -0.2404 
     17 C17         1.0057  -21.0657  -48.2820 C.3       23 UNK        -0.0398 
     18 CA          0.4833  -22.2676  -47.4615 C.3       11 UNK         0.1400 
     19 N           0.5026  -21.9870  -46.0251 N.am      11 UNK        -0.5000 
     20 C           0.2910  -22.8979  -45.0655 C.2       10 UNK         0.5000 
     21 O           0.1017  -24.0936  -45.2866 O.2       10 UNK        -0.5000 
     22 CA          0.2337  -22.3795  -43.6180 C.3       10 UNK         0.1400 
     23 CB          1.6483  -22.1820  -43.0543 C.3       10 UNK        -0.1800 
     24 N          -0.5318  -21.1374  -43.4939 N.am      10 UNK        -0.5000 
     25 C          -1.8391  -21.0263  -43.7722 C.2       9 UNK         0.5000 
     26 O          -2.5435  -21.9711  -44.1241 O.2       9 UNK        -0.5000 
     27 CA         -2.4603  -19.6221  -43.6871 C.3       9 UNK         0.1400 
     28 CB         -2.7636  -19.2462  -42.2293 C.3       9 UNK        -0.1800 
     29 N          -1.6221  -18.5918  -44.2977 N.am      9 UNK        -0.5000 
     30 C          -1.2773  -18.5468  -45.5932 C.2       8 UNK         0.5000 
     31 O          -1.6458  -19.3673  -46.4338 O.2       8 UNK        -0.5000 
     32 CA         -0.3095  -17.4202  -46.0005 C.3       8 UNK         0.1400 
     33 CB         -1.0438  -16.0695  -46.0479 C.3       8 UNK        -0.1800 
     34 N           0.8347  -17.3353  -45.0906 N.am      8 UNK        -0.5000 
     35 C           1.7178  -18.3254  -44.8880 C.2       7 UNK         0.5000 
     36 O           1.7045  -19.3946  -45.4974 O.2       7 UNK        -0.5000 
     37 CA          2.7472  -18.1135  -43.7672 C.3       7 UNK         0.1400 
     38 CB          3.9650  -17.3282  -44.2785 C.3       7 UNK        -0.1800 
     39 N           2.1503  -17.4365  -42.6144 N.am      7 UNK        -0.5000 
     40 C           1.2857  -18.0186  -41.7691 C.2       6 UNK         0.5000 
     41 O           0.9427  -19.1971  -41.8536 O.2       6 UNK        -0.5000 
     42 CA          0.6686  -17.1333  -40.6691 C.3       6 UNK         0.1400 
     43 CB          1.5891  -17.0790  -39.4412 C.3       6 UNK        -0.1800 
     44 N           0.3902  -15.7716  -41.1248 N.am      6 UNK        -0.5000 
     45 C          -0.5106  -15.4518  -42.0648 C.2       5 UNK         0.5000 
     46 O          -1.2644  -16.2707  -42.5889 O.2       5 UNK        -0.5000 
     47 CA         -0.5322  -13.9840  -42.5396 C.3       5 UNK         0.1400 
     48 CB         -1.5723  -13.1756  -41.7512 C.3       5 UNK        -0.1800 
     49 N           0.7701  -13.3153  -42.4474 N.am      5 UNK        -0.5000 
     50 C           1.8846  -13.7224  -43.0673 C.2       4 UNK         0.5000 
     51 O           1.9274  -14.7145  -43.7967 O.2       4 UNK        -0.5000 
     52 CA          3.1534  -12.8915  -42.8076 C.3       4 UNK         0.1400 
     53 CB          4.4359  -13.6302  -43.2305 C.3       4 UNK        -0.1800 
     54 N           3.0895  -11.6132  -43.5080 N.am      4 UNK        -0.5000 
     55 C           2.4236  -10.5287  -43.0901 C.2       3 UNK         0.5000 
     56 O           1.7803  -10.4866  -42.0402 O.2       3 UNK        -0.5000 
     57 CA          2.4697   -9.2975  -44.0085 C.3       3 UNK         0.1400 
     58 CB          3.8362   -8.6000  -43.9155 C.3       3 UNK        -0.1800 
     59 N           2.2221   -9.6904  -45.3941 N.am      3 UNK        -0.5000 
     60 C           1.0557   -9.5401  -46.0362 C.2       2 UNK         0.5000 
     61 O           0.0808   -8.9554  -45.5623 O.2       2 UNK        -0.5000 
     62 CA          0.9507  -10.1598  -47.4456 C.3       2 UNK         0.1400 
     63 CB          1.3240   -9.1252  -48.5181 C.3       2 UNK        -0.1800 
     64 N           1.7906  -11.3472  -47.6153 N.am      2 UNK        -0.5000 
     65 C           1.6192  -12.5038  -46.9586 C.2       1 UNK         0.5000 
     66 O           0.6609  -12.7216  -46.2183 O.2       1 UNK        -0.5000 
     67 C          -0.9087  -22.7419  -47.9304 C.2       11 UNK         0.5000 
     68 O          -0.9992  -23.7506  -48.6305 O.2       11 UNK        -0.5000 
     69 N          -1.9695  -22.0483  -47.4918 N.am      12 UNK        -0.5000 
     70 CA         -3.3596  -22.4164  -47.7631 C.3       12 UNK         0.1400 
     71 CB         -4.2997  -21.3111  -47.2619 C.3       12 UNK        -0.1800 
     72 C          -3.7449  -23.7815  -47.1648 C.2       12 UNK         0.5000 
     73 O          -4.4076  -24.5687  -47.8394 O.2       12 UNK        -0.5000 
     74 N          -3.2942  -24.0572  -45.9328 N.am      13 UNK        -0.5000 
     75 CA         -3.4737  -25.3383  -45.2494 C.3       13 UNK         0.1400 
     76 CB         -3.0233  -25.2188  -43.7860 C.3       13 UNK        -0.1800 
     77 C          -2.7440  -26.4935  -45.9573 C.2       13 UNK         0.5000 
     78 O          -3.3379  -27.5558  -46.1427 O.2       13 UNK        -0.5000 
     79 N          -1.4958  -26.2564  -46.3873 N.am      14 UNK        -0.5000 
     80 CA         -0.6899  -27.1994  -47.1694 C.3       14 UNK         0.1400 
     81 CB          0.7398  -26.6571  -47.3159 C.3       14 UNK        -0.1800 
     82 C          -1.3007  -27.5106  -48.5499 C.2       14 UNK         0.5000 
     83 O          -1.2288  -28.6523  -49.0054 O.2       14 UNK        -0.5000 
     84 N          -1.9311  -26.5021  -49.1651 N.am      15 UNK        -0.5000 
     85 CA         -2.6976  -26.6128  -50.4063 C.3       15 UNK         0.1400 
     86 CB         -2.7723  -25.2248  -51.0621 C.3       15 UNK        -0.1800 
     87 C          -4.1153  -27.1925  -50.2108 C.2       15 UNK         0.5000 
     88 O          -4.8446  -27.3148  -51.1947 O.2       15 UNK        -0.5000 
     89 N          -4.5079  -27.5020  -48.9645 N.am      16 UNK        -0.5000 
     90 CA         -5.8203  -28.0125  -48.5466 C.3       16 UNK         0.1400 
     91 CB         -6.0198  -29.4576  -49.0481 C.3       16 UNK        -0.1800 
     92 C          -6.9871  -27.0754  -48.9316 C.2       16 UNK         0.5000 
     93 O          -8.0758  -27.5448  -49.2666 O.2       16 UNK        -0.5000 
     94 N          -6.7160  -25.7623  -48.9022 N.am      17 UNK        -0.5000 
     95 CA         -7.5798  -24.6438  -49.2902 C.3       17 UNK         0.1400 
     96 CB         -8.8260  -24.5686  -48.3843 C.3       17 UNK        -0.1800 
     97 C          -7.9386  -24.5940  -50.7927 C.2       17 UNK         0.5000 
     98 O          -8.7961  -23.7960  -51.1748 O.2       17 UNK        -0.5000 
     99 N          -7.2745  -25.4040  -51.6326 N.am      18 UNK        -0.5000 
    100 CA        -7.4699  -25.4170  -53.0863 C.3       18 UNK         0.1400 
    101 CB        -6.9608  -26.7489  -53.6577 C.3       18 UNK        -0.1800 
    102 C         -6.7820  -24.2312  -53.7907 C.2       18 UNK         0.5000 
    103 O         -7.1639  -23.8870  -54.9098 O.2       18 UNK        -0.5000 
    104 N         -5.7901  -23.6299  -53.1254 N.am      19 UNK        -0.5000 
    105 CA        -5.0594  -22.4457  -53.5532 C.3       19 UNK         0.1400 
    106 CB        -3.7184  -22.8879  -54.1650 C.3       19 UNK        -0.1800 
    107 C         -4.8477  -21.5778  -52.2968 C.2       19 UNK         0.5000 
    108 O         -4.4772  -22.1434  -51.2683 O.2       19 UNK        -0.5000 
    109 N         -5.0544  -20.2505  -52.3034 N.am      20 UNK        -0.5000 
    110 CA        -5.5716  -19.3545  -53.3480 C.3       20 UNK         0.1400 
    111 CB        -7.0756  -19.5955  -53.6033 C.3       20 UNK        -0.1800 
    112 C         -4.7109  -19.3079  -54.6261 C.2       20 UNK         0.5000 
    113 O         -5.2453  -19.2572  -55.7340 O.2       20 UNK        -0.5000 
    114 N         -3.3844  -19.3528  -54.4413 N.am      21 UNK        -0.5000 
    115 CA        -2.3963  -19.3076  -55.5237 C.3       21 UNK         0.1400 
    116 CB        -1.0392  -19.7892  -54.9843 C.3       21 UNK        -0.1800 
    117 C         -2.2536  -17.9057  -56.1471 C.2       21 UNK         0.5000 
    118 O         -1.9156  -17.7941  -57.3262 O.2       21 UNK        -0.5000 
    119 N         -2.4979  -16.8699  -55.3377 N.am      22 UNK        -0.5000 
    120 CA        -2.4132  -15.4558  -55.7215 C.3       22 UNK         0.1400 
    121 C         -3.7042  -14.9862  -56.4423 C.2       22 UNK         0.5000 
    122 N         -3.5819  -14.2074  -57.5084 N.am      22 UNK        -0.7600 
    123 O         -4.8176  -15.2871  -56.0174 O.2       22 UNK        -0.5000 
    124 C124       -2.1090  -14.5557  -54.4971 C.3       23 UNK        -0.0398 
    125 S125       -0.5449  -15.0248  -53.6785 S.3       23 UNK        -0.2404 
    126 C126       -1.1534  -15.7726  -52.1329 C.3       23 UNK        -0.0205 
    127 H127        6.9243  -12.0953  -46.9274 H         1 UNK         0.0600 
    128 H128        6.1828  -10.8218  -47.9019 H         1 UNK         0.0600 
    129 H129        6.2925  -12.4679  -48.5342 H         1 UNK         0.0600 
    130 H130        4.3552  -13.5426  -48.4420 H         1 UNK         0.3000 
    131 H131        2.8715  -14.0231  -46.1520 H         1 UNK         0.0600 
    132 H132        1.1887  -15.0721  -47.7184 H         1 UNK         0.0800 
    133 H133        2.0065  -14.3218  -49.0578 H         1 UNK         0.0800 
    134 H134        4.1523  -17.1845  -50.1117 H         1 UNK         0.0800 
    135 H135        3.6143  -15.5596  -50.4376 H         1 UNK         0.0800 
    136 H136        1.2574  -15.1260  -51.0624 H         1 UNK         0.1150 
    137 H137       -1.2690  -18.4846  -51.8666 H         1 UNK         0.1150 
    138 H138        2.5558  -19.0579  -50.0011 H         1 UNK         0.1150 
    139 H139       -0.7158  -20.6246  -50.5737 H         1 UNK         0.0800 
    140 H140        0.3081  -20.7909  -51.9784 H         1 UNK         0.0800 
    141 H141        0.2917  -20.2403  -48.2678 H         1 UNK         0.0800 
    142 H142        1.9152  -20.6760  -47.8233 H         1 UNK         0.0800 
    143 H143        1.1741  -23.0990  -47.6189 H         1 UNK         0.0600 
    144 H144        0.6937  -21.0259  -45.7553 H         1 UNK         0.3000 
    145 H145       -0.2670  -23.1389  -43.0142 H         1 UNK         0.0600 
    146 H146        1.6172  -21.8995  -42.0019 H         1 UNK         0.0600 
    147 H147        2.2294  -23.1022  -43.1264 H         1 UNK         0.0600 
    148 H148        2.1924  -21.4066  -43.5936 H         1 UNK         0.0600 
    149 H149       -0.0275  -20.3241  -43.1544 H         1 UNK         0.3000 
    150 H150       -3.4048  -19.6446  -44.2344 H         1 UNK         0.0600 
    151 H151       -3.4068  -19.9912  -41.7594 H         1 UNK         0.0600 
    152 H152       -3.2784  -18.2871  -42.1690 H         1 UNK         0.0600 
    153 H153       -1.8535  -19.1744  -41.6336 H         1 UNK         0.0600 
    154 H154       -1.3081  -17.8443  -43.6846 H         1 UNK         0.3000 
    155 H155        0.0797  -17.6390  -46.9974 H         1 UNK         0.0600 
    156 H156       -1.6539  -15.9009  -45.1611 H         1 UNK         0.0600 
    157 H157       -1.7100  -16.0249  -46.9100 H         1 UNK         0.0600 
    158 H158       -0.3522  -15.2329  -46.1221 H         1 UNK         0.0600 
    159 H159        0.9455  -16.4788  -44.5608 H         1 UNK         0.3000 
    160 H160        3.0974  -19.0951  -43.4413 H         1 UNK         0.0600 
    161 H161        3.6848  -16.3627  -44.6989 H         1 UNK         0.0600 
    162 H162        4.4762  -17.8828  -45.0663 H         1 UNK         0.0600 
    163 H163        4.6879  -17.1531  -43.4818 H         1 UNK         0.0600 
    164 H164        2.3116  -16.4406  -42.5470 H         1 UNK         0.3000 
    165 H165       -0.2770  -17.5885  -40.3674 H         1 UNK         0.0600 
    166 H166        1.1285  -16.5189  -38.6273 H         1 UNK         0.0600 
    167 H167        1.7981  -18.0820  -39.0663 H         1 UNK         0.0600 
    168 H168        2.5458  -16.6095  -39.6738 H         1 UNK         0.0600 
    169 H169        0.9627  -15.0348  -40.7407 H         1 UNK         0.3000 
    170 H170       -0.8244  -13.9858  -43.5918 H         1 UNK         0.0600 
    171 H171       -2.5594  -13.6346  -41.8223 H         1 UNK         0.0600 
    172 H172       -1.3144  -13.1113  -40.6934 H         1 UNK         0.0600 
    173 H173       -1.6583  -12.1603  -42.1389 H         1 UNK         0.0600 
    174 H174        0.8108  -12.4563  -41.9119 H         1 UNK         0.3000 
    175 H175        3.2186  -12.7081  -41.7331 H         1 UNK         0.0600 
    176 H176        4.4483  -13.8478  -44.2986 H         1 UNK         0.0600 
    177 H177        5.3232  -13.0396  -43.0021 H         1 UNK         0.0600 
    178 H178        4.5322  -14.5789  -42.7014 H         1 UNK         0.0600 
    179 H179        3.5860  -11.5717  -44.3956 H         1 UNK         0.3000 
    180 H180        1.7084   -8.5933  -43.6666 H         1 UNK         0.0600 
    181 H181        4.6470   -9.2477  -44.2516 H         1 UNK         0.0600 
    182 H182        4.0545   -8.3046  -42.8885 H         1 UNK         0.0600 
    183 H183        3.8569   -7.6967  -44.5253 H         1 UNK         0.0600 
    184 H184        2.9584  -10.2233  -45.8443 H         1 UNK         0.3000 
    185 H185       -0.0890  -10.4555  -47.6007 H         1 UNK         0.0600 
    186 H186        0.6988   -8.2351  -48.4359 H         1 UNK         0.0600 
    187 H187        2.3630   -8.8063  -48.4255 H         1 UNK         0.0600 
    188 H188        1.1833   -9.5280  -49.5213 H         1 UNK         0.0600 
    189 H189        2.6031  -11.2497  -48.2065 H         1 UNK         0.3000 
    190 H190       -1.8194  -21.2058  -46.9426 H         1 UNK         0.3000 
    191 H191       -3.4725  -22.4904  -48.8457 H         1 UNK         0.0600 
    192 H192       -4.2149  -21.1670  -46.1847 H         1 UNK         0.0600 
    193 H193       -5.3397  -21.5549  -47.4821 H         1 UNK         0.0600 
    194 H194       -4.0790  -20.3591  -47.7451 H         1 UNK         0.0600 
    195 H195       -2.8090  -23.3295  -45.4140 H         1 UNK         0.3000 
    196 H196       -4.5410  -25.5692  -45.2551 H         1 UNK         0.0600 
    197 H197       -3.1657  -26.1608  -43.2550 H         1 UNK         0.0600 
    198 H198       -3.5988  -24.4580  -43.2584 H         1 UNK         0.0600 
    199 H199       -1.9690  -24.9535  -43.7080 H         1 UNK         0.0600 
    200 H200       -1.0571  -25.3689  -46.1556 H         1 UNK         0.3000 
    201 H201       -0.6418  -28.1367  -46.6114 H         1 UNK         0.0600 
    202 H202        1.2070  -26.5107  -46.3419 H         1 UNK         0.0600 
    203 H203        0.7566  -25.7020  -47.8412 H         1 UNK         0.0600 
    204 H204        1.3662  -27.3520  -47.8764 H         1 UNK         0.0600 
    205 H205       -1.8795  -25.5763  -48.7510 H         1 UNK         0.3000 
    206 H206       -2.1675  -27.2810  -51.0877 H         1 UNK         0.0600 
    207 H207       -1.7774  -24.8222  -51.2530 H         1 UNK         0.0600 
    208 H208       -3.2933  -25.2702  -52.0188 H         1 UNK         0.0600 
    209 H209       -3.3042  -24.5123  -50.4311 H         1 UNK         0.0600 
    210 H210       -3.8534  -27.3411  -48.2085 H         1 UNK         0.3000 
    211 H211       -5.8033  -28.0403  -47.4564 H         1 UNK         0.0600 
    212 H212       -6.1043  -29.5011  -50.1344 H         1 UNK         0.0600 
    213 H213       -6.9275  -29.8954  -48.6313 H         1 UNK         0.0600 
    214 H214       -5.1875  -30.0954  -48.7504 H         1 UNK         0.0600 
    215 H215       -5.7863  -25.4817  -48.5907 H         1 UNK         0.3000 
    216 H216       -6.9888  -23.7460  -49.1029 H         1 UNK         0.0600 
    217 H217       -9.3808  -23.6457  -48.5565 H         1 UNK         0.0600 
    218 H218       -8.5484  -24.5852  -47.3303 H         1 UNK         0.0600 
    219 H219       -9.5106  -25.3974  -48.5653 H         1 UNK         0.0600 
    220 H220       -6.5798  -26.0438  -51.2636 H         1 UNK         0.3000 
    221 H221       -8.5401  -25.3506  -53.2931 H         1 UNK         0.0600 
    222 H222       -5.8777  -26.8376  -53.5697 H         1 UNK         0.0600 
    223 H223       -7.4115  -27.5994  -53.1456 H         1 UNK         0.0600 
    224 H224       -7.2084  -26.8367  -54.7162 H         1 UNK         0.0600 
    225 H225       -5.5705  -23.9428  -52.1892 H         1 UNK         0.3000 
    226 H226       -5.6290  -21.9180  -54.3136 H         1 UNK         0.0600 
    227 H227       -3.1894  -22.0470  -54.6074 H         1 UNK         0.0600 
    228 H228       -3.0577  -23.3330  -53.4208 H         1 UNK         0.0600 
    229 H229       -3.8693  -23.6211  -54.9574 H         1 UNK         0.0600 
    230 H230       -4.8665  -19.7780  -51.4312 H         1 UNK         0.3000 
    231 H231       -5.4921  -18.3512  -52.9266 H         1 UNK         0.0600 
    232 H232       -7.6416  -19.5414  -52.6732 H         1 UNK         0.0600 
    233 H233       -7.2879  -20.5599  -54.0609 H         1 UNK         0.0600 
    234 H234       -7.4820  -18.8311  -54.2667 H         1 UNK         0.0600 
    235 H235       -3.0286  -19.4229  -53.4995 H         1 UNK         0.3000 
    236 H236       -2.7137  -19.9937  -56.3120 H         1 UNK         0.0600 
    237 H237       -0.2984  -19.8332  -55.7836 H         1 UNK         0.0600 
    238 H238       -0.6488  -19.1195  -54.2176 H         1 UNK         0.0600 
    239 H239       -1.1094  -20.7880  -54.5541 H         1 UNK         0.0600 
    240 H240       -2.8101  -17.0586  -54.3991 H         1 UNK         0.3000 
    241 H241       -1.5801  -15.3479  -56.4196 H         1 UNK         0.0600 
    242 H242       -4.4146  -13.8831  -57.9761 H         1 UNK         0.3800 
    243 H243       -2.6784  -13.9423  -57.8704 H         1 UNK         0.3800 
    244 H244       -2.0162  -13.5145  -54.8105 H         1 UNK         0.0800 
    245 H245       -2.9304  -14.5816  -53.7788 H         1 UNK         0.0800 
    246 H246       -2.0792  -16.3161  -52.3253 H         1 UNK         0.0800 
    247 H247       -1.4005  -14.9827  -51.4222 H         1 UNK         0.0800 
@<TRIPOS>BOND
     1    1    2 1    
     2    1  127 1    
     3    1  128 1    
     4    1  129 1    
     5    2    3 2    
     6    2    4 am   BACKBONE|DICT|INTERRES
     7    4    5 1    
     8    4  130 1    
     9    5    6 1    
    10    5   65 1    
    11    5  131 1    
    12    6    7 1    
    13    6  132 1    
    14    6  133 1    
    15    7    8 1    
    16    8    9 1    
    17    8  134 1    
    18    8  135 1    
    19    9   10 ar   
    20    9   14 ar   
    21   10   11 ar   
    22   10  136 1    
    23   11   12 ar   
    24   11  126 1    
    25   12   13 ar   
    26   12  137 1    
    27   13   14 ar   
    28   13   15 1    
    29   14  138 1    
    30   15   16 1    
    31   15  139 1    
    32   15  140 1    
    33   16   17 1    
    34   17   18 1    
    35   17  141 1    
    36   17  142 1    
    37   18   19 1    
    38   18   67 1    
    39   18  143 1    
    40   19   20 am   BACKBONE|DICT|INTERRES
    41   19  144 1    
    42   20   21 2    
    43   20   22 1    
    44   22   23 1    
    45   22   24 1    
    46   22  145 1    
    47   23  146 1    
    48   23  147 1    
    49   23  148 1    
    50   24   25 am   BACKBONE|DICT|INTERRES
    51   24  149 1    
    52   25   26 2    
    53   25   27 1    
    54   27   28 1    
    55   27   29 1    
    56   27  150 1    
    57   28  151 1    
    58   28  152 1    
    59   28  153 1    
    60   29   30 am   BACKBONE|DICT|INTERRES
    61   29  154 1    
    62   30   31 2    
    63   30   32 1    
    64   32   33 1    
    65   32   34 1    
    66   32  155 1    
    67   33  156 1    
    68   33  157 1    
    69   33  158 1    
    70   34   35 am   BACKBONE|DICT|INTERRES
    71   34  159 1    
    72   35   36 2    
    73   35   37 1    
    74   37   38 1    
    75   37   39 1    
    76   37  160 1    
    77   38  161 1    
    78   38  162 1    
    79   38  163 1    
    80   39   40 am   BACKBONE|DICT|INTERRES
    81   39  164 1    
    82   40   41 2    
    83   40   42 1    
    84   42   43 1    
    85   42   44 1    
    86   42  165 1    
    87   43  166 1    
    88   43  167 1    
    89   43  168 1    
    90   44   45 am   BACKBONE|DICT|INTERRES
    91   44  169 1    
    92   45   46 2    
    93   45   47 1    
    94   47   48 1    
    95   47   49 1    
    96   47  170 1    
    97   48  171 1    
    98   48  172 1    
    99   48  173 1    
   100   49   50 am   BACKBONE|DICT|INTERRES
   101   49  174 1    
   102   50   51 2    
   103   50   52 1    
   104   52   53 1    
   105   52   54 1    
   106   52  175 1    
   107   53  176 1    
   108   53  177 1    
   109   53  178 1    
   110   54   55 am   BACKBONE|DICT|INTERRES
   111   54  179 1    
   112   55   56 2    
   113   55   57 1    
   114   57   58 1    
   115   57   59 1    
   116   57  180 1    
   117   58  181 1    
   118   58  182 1    
   119   58  183 1    
   120   59   60 am   BACKBONE|DICT|INTERRES
   121   59  184 1    
   122   60   61 2    
   123   60   62 1    
   124   62   63 1    
   125   62   64 1    
   126   62  185 1    
   127   63  186 1    
   128   63  187 1    
   129   63  188 1    
   130   64   65 am   BACKBONE|DICT|INTERRES
   131   64  189 1    
   132   65   66 2    
   133   67   68 2    
   134   67   69 am   BACKBONE|DICT|INTERRES
   135   69   70 1    
   136   69  190 1    
   137   70   71 1    
   138   70   72 1    
   139   70  191 1    
   140   71  192 1    
   141   71  193 1    
   142   71  194 1    
   143   72   73 2    
   144   72   74 am   BACKBONE|DICT|INTERRES
   145   74   75 1    
   146   74  195 1    
   147   75   76 1    
   148   75   77 1    
   149   75  196 1    
   150   76  197 1    
   151   76  198 1    
   152   76  199 1    
   153   77   78 2    
   154   77   79 am   BACKBONE|DICT|INTERRES
   155   79   80 1    
   156   79  200 1    
   157   80   81 1    
   158   80   82 1    
   159   80  201 1    
   160   81  202 1    
   161   81  203 1    
   162   81  204 1    
   163   82   83 2    
   164   82   84 am   BACKBONE|DICT|INTERRES
   165   84   85 1    
   166   84  205 1    
   167   85   86 1    
   168   85   87 1    
   169   85  206 1    
   170   86  207 1    
   171   86  208 1    
   172   86  209 1    
   173   87   88 2    
   174   87   89 am   BACKBONE|DICT|INTERRES
   175   89   90 1    
   176   89  210 1    
   177   90   91 1    
   178   90   92 1    
   179   90  211 1    
   180   91  212 1    
   181   91  213 1    
   182   91  214 1    
   183   92   93 2    
   184   92   94 am   BACKBONE|DICT|INTERRES
   185   94   95 1    
   186   94  215 1    
   187   95   96 1    
   188   95   97 1    
   189   95  216 1    
   190   96  217 1    
   191   96  218 1    
   192   96  219 1    
   193   97   98 2    
   194   97   99 am   BACKBONE|DICT|INTERRES
   195   99  100 1    
   196   99  220 1    
   197  100  101 1    
   198  100  102 1    
   199  100  221 1    
   200  101  222 1    
   201  101  223 1    
   202  101  224 1    
   203  102  103 2    
   204  102  104 am   BACKBONE|DICT|INTERRES
   205  104  105 1    
   206  104  225 1    
   207  105  106 1    
   208  105  107 1    
   209  105  226 1    
   210  106  227 1    
   211  106  228 1    
   212  106  229 1    
   213  107  108 2    
   214  107  109 am   BACKBONE|DICT|INTERRES
   215  109  110 1    
   216  109  230 1    
   217  110  111 1    
   218  110  112 1    
   219  110  231 1    
   220  111  232 1    
   221  111  233 1    
   222  111  234 1    
   223  112  113 2    
   224  112  114 am   BACKBONE|DICT|INTERRES
   225  114  115 1    
   226  114  235 1    
   227  115  116 1    
   228  115  117 1    
   229  115  236 1    
   230  116  237 1    
   231  116  238 1    
   232  116  239 1    
   233  117  118 2    
   234  117  119 am   BACKBONE|DICT|INTERRES
   235  119  120 1    
   236  119  240 1    
   237  120  121 1    
   238  120  124 1    
   239  120  241 1    
   240  121  122 am   BACKBONE|DICT|INTERRES
   241  121  123 2    
   242  122  242 1    
   243  122  243 1    
   244  124  125 1    
   245  124  244 1    
   246  124  245 1    
   247  125  126 1    
   248  126  246 1    
   249  126  247 1    
@<TRIPOS>SUBSTRUCTURE
     1 UNK         1 GROUP             0       ****    0 ROOT    
