@<TRIPOS>MOLECULE
3R540
247   249    1
SMALL
USER_CHARGES


@<TRIPOS>ATOM
      1 CA         -6.9199  -20.5569  -42.8892 C.3       0 UNK        -0.1800 
      2 C          -5.6390  -20.3389  -43.6814 C.2       0 UNK         0.5000 
      3 O          -4.5604  -20.6914  -43.2084 O.2       0 UNK        -0.5000 
      4 N          -5.7577  -19.7369  -44.8724 N.am      1 UNK        -0.5000 
      5 CA         -4.6873  -19.4494  -45.8437 C.3       1 UNK         0.1400 
      6 C6         -3.9290  -20.7111  -46.3392 C.3       23 UNK        -0.0398 
      7 S7         -5.0145  -21.8847  -47.2283 S.3       23 UNK        -0.2404 
      8 C8         -5.3627  -20.9933  -48.7842 C.3       23 UNK        -0.0205 
      9 C9         -4.1022  -20.4696  -49.4542 C.ar      23 UNK        -0.0193 
     10 C10        -3.8940  -19.0962  -49.6045 C.ar      23 UNK        -0.1150 
     11 C11        -2.7139  -18.6170  -50.1805 C.ar      23 UNK        -0.0193 
     12 C12        -1.7360  -19.5207  -50.6058 C.ar      23 UNK        -0.1150 
     13 C13        -1.9330  -20.8961  -50.4508 C.ar      23 UNK        -0.0193 
     14 C14        -3.1232  -21.3623  -49.8896 C.ar      23 UNK        -0.1150 
     15 C15        -0.8549  -21.8867  -50.8587 C.3       23 UNK        -0.0205 
     16 S16         0.6240  -21.7601  -49.8036 S.3       23 UNK        -0.2404 
     17 C17        -0.1039  -21.9200  -48.1344 C.3       23 UNK        -0.0398 
     18 CA          0.9032  -22.4253  -47.0725 C.3       11 UNK         0.1400 
     19 N           2.0319  -21.5109  -46.9188 N.am      11 UNK        -0.5000 
     20 C           3.2867  -21.7840  -47.2926 C.2       10 UNK         0.5000 
     21 O           3.6693  -22.8973  -47.6568 O.2       10 UNK        -0.5000 
     22 CA          4.2838  -20.6133  -47.3004 C.3       10 UNK         0.1400 
     23 CB          4.0804  -19.7515  -48.5572 C.3       10 UNK        -0.1800 
     24 N           4.2077  -19.7673  -46.1111 N.am      10 UNK        -0.5000 
     25 C           4.6304  -20.1326  -44.8933 C.2       9 UNK         0.5000 
     26 O           5.0946  -21.2434  -44.6332 O.2       9 UNK        -0.5000 
     27 CA          4.5356  -19.0736  -43.7801 C.3       9 UNK         0.1400 
     28 CB          5.6930  -18.0681  -43.8822 C.3       9 UNK        -0.1800 
     29 N           3.2639  -18.3559  -43.8073 N.am      9 UNK        -0.5000 
     30 C           2.0938  -18.8819  -43.4197 C.2       8 UNK         0.5000 
     31 O           1.9810  -19.9986  -42.9134 O.2       8 UNK        -0.5000 
     32 CA          0.8402  -18.0115  -43.6309 C.3       8 UNK         0.1400 
     33 CB          0.6511  -17.0612  -42.4374 C.3       8 UNK        -0.1800 
     34 N           0.8867  -17.2274  -44.8662 N.am      8 UNK        -0.5000 
     35 C           0.9466  -17.7428  -46.1029 C.2       7 UNK         0.5000 
     36 O           0.9560  -18.9457  -46.3517 O.2       7 UNK        -0.5000 
     37 CA          1.0907  -16.7419  -47.2591 C.3       7 UNK         0.1400 
     38 CB         -0.2662  -16.1288  -47.6316 C.3       7 UNK        -0.1800 
     39 N           2.0527  -15.6823  -46.9558 N.am      7 UNK        -0.5000 
     40 C           3.3711  -15.8799  -46.8110 C.2       6 UNK         0.5000 
     41 O           3.9164  -16.9752  -46.9324 O.2       6 UNK        -0.5000 
     42 CA          4.2151  -14.6536  -46.4233 C.3       6 UNK         0.1400 
     43 CB          4.5039  -13.7847  -47.6569 C.3       6 UNK        -0.1800 
     44 N           3.5711  -13.8393  -45.3929 N.am      6 UNK        -0.5000 
     45 C           3.3419  -14.2454  -44.1354 C.2       5 UNK         0.5000 
     46 O           3.6984  -15.3366  -43.6916 O.2       5 UNK        -0.5000 
     47 CA          2.5238  -13.2892  -43.2453 C.3       5 UNK         0.1400 
     48 CB          3.4412  -12.2606  -42.5678 C.3       5 UNK        -0.1800 
     49 N           1.4620  -12.5901  -43.9790 N.am      5 UNK        -0.5000 
     50 C           0.4453  -13.2082  -44.5923 C.2       4 UNK         0.5000 
     51 O           0.2914  -14.4345  -44.5859 O.2       4 UNK        -0.5000 
     52 CA         -0.5340  -12.3280  -45.3819 C.3       4 UNK         0.1400 
     53 CB          0.1125  -11.8005  -46.6760 C.3       4 UNK        -0.1800 
     54 N          -1.6749  -13.1672  -45.7076 N.am      4 UNK        -0.5000 
     55 C          -2.9092  -12.7927  -46.0489 C.2       3 UNK         0.5000 
     56 O          -3.2605  -11.6216  -46.1945 O.2       3 UNK        -0.5000 
     57 CA         -3.9236  -13.9368  -46.2555 C.3       3 UNK         0.1400 
     58 CB         -4.0449  -14.2724  -47.7496 C.3       3 UNK        -0.1800 
     59 N          -3.5628  -15.1606  -45.5305 N.am      3 UNK        -0.5000 
     60 C          -3.5837  -15.3095  -44.1995 C.2       2 UNK         0.5000 
     61 O          -3.9754  -14.4349  -43.4253 O.2       2 UNK        -0.5000 
     62 CA         -3.0922  -16.6695  -43.6603 C.3       2 UNK         0.1400 
     63 CB         -3.1233  -16.7521  -42.1238 C.3       2 UNK        -0.1800 
     64 N          -3.8692  -17.7819  -44.2039 N.am      2 UNK        -0.5000 
     65 C          -3.7157  -18.3243  -45.4182 C.2       1 UNK         0.5000 
     66 O          -2.8824  -17.9117  -46.2256 O.2       1 UNK        -0.5000 
     67 C           0.1973  -22.5933  -45.7185 C.2       11 UNK         0.5000 
     68 O          -0.1751  -21.6032  -45.0866 O.2       11 UNK        -0.5000 
     69 N          -0.0235  -23.8516  -45.3224 N.am      12 UNK        -0.5000 
     70 CA         -0.9210  -24.2200  -44.2290 C.3       12 UNK         0.1400 
     71 CB         -0.5522  -25.6332  -43.7491 C.3       12 UNK        -0.1800 
     72 C          -2.3847  -24.1833  -44.7055 C.2       12 UNK         0.5000 
     73 O          -2.6382  -24.2419  -45.9105 O.2       12 UNK        -0.5000 
     74 N          -3.3274  -24.1617  -43.7539 N.am      13 UNK        -0.5000 
     75 CA         -4.7770  -24.1564  -43.9977 C.3       13 UNK         0.1400 
     76 CB         -5.5057  -24.1063  -42.6460 C.3       13 UNK        -0.1800 
     77 C          -5.2902  -25.3513  -44.8296 C.2       13 UNK         0.5000 
     78 O          -6.3042  -25.2297  -45.5170 O.2       13 UNK        -0.5000 
     79 N          -4.5663  -26.4762  -44.7631 N.am      14 UNK        -0.5000 
     80 CA         -4.8244  -27.7000  -45.5178 C.3       14 UNK         0.1400 
     81 CB         -4.0312  -28.8456  -44.8687 C.3       14 UNK        -0.1800 
     82 C          -4.4909  -27.5995  -47.0215 C.2       14 UNK         0.5000 
     83 O          -4.9115  -28.4794  -47.7740 O.2       14 UNK        -0.5000 
     84 N          -3.7390  -26.5681  -47.4431 N.am      15 UNK        -0.5000 
     85 CA         -3.3448  -26.3586  -48.8400 C.3       15 UNK         0.1400 
     86 CB         -2.2854  -25.2501  -48.9230 C.3       15 UNK        -0.1800 
     87 C          -4.5403  -26.0371  -49.7553 C.2       15 UNK         0.5000 
     88 O          -4.6062  -26.5639  -50.8667 O.2       15 UNK        -0.5000 
     89 N          -5.4662  -25.2072  -49.2503 N.am      16 UNK        -0.5000 
     90 CA         -6.7603  -24.7961  -49.8137 C.3       16 UNK         0.1400 
     91 CB         -7.7080  -26.0029  -49.9438 C.3       16 UNK        -0.1800 
     92 C          -6.7005  -23.9965  -51.1332 C.2       16 UNK         0.5000 
     93 O          -7.3697  -22.9684  -51.2419 O.2       16 UNK        -0.5000 
     94 N          -5.9209  -24.4683  -52.1103 N.am      17 UNK        -0.5000 
     95 CA         -5.6626  -23.7969  -53.3802 C.3       17 UNK         0.1400 
     96 CB         -5.1829  -24.8335  -54.4077 C.3       17 UNK        -0.1800 
     97 C          -4.6131  -22.6903  -53.1888 C.2       17 UNK         0.5000 
     98 O          -3.5684  -22.9482  -52.5883 O.2       17 UNK        -0.5000 
     99 N          -4.9109  -21.4934  -53.7088 N.am      18 UNK        -0.5000 
    100 CA        -4.0572  -20.3059  -53.6427 C.3       18 UNK         0.1400 
    101 CB        -4.8712  -19.0936  -54.1239 C.3       18 UNK        -0.1800 
    102 C         -2.7553  -20.4412  -54.4588 C.2       18 UNK         0.5000 
    103 O         -2.6635  -21.2825  -55.3571 O.2       18 UNK        -0.5000 
    104 N         -1.7892  -19.5706  -54.1538 N.am      19 UNK        -0.5000 
    105 CA        -0.5008  -19.4538  -54.8309 C.3       19 UNK         0.1400 
    106 CB         0.5533  -20.2803  -54.0720 C.3       19 UNK        -0.1800 
    107 C         -0.1093  -17.9708  -54.9242 C.2       19 UNK         0.5000 
    108 O         -0.8621  -17.1028  -54.4730 O.2       19 UNK        -0.5000 
    109 N          1.0758  -17.6996  -55.4878 N.am      20 UNK        -0.5000 
    110 CA         1.6366  -16.3662  -55.7507 C.3       20 UNK         0.1400 
    111 CB         2.9898  -16.5361  -56.4592 C.3       20 UNK        -0.1800 
    112 C          1.7864  -15.4427  -54.5210 C.2       20 UNK         0.5000 
    113 O          1.9415  -14.2333  -54.6936 O.2       20 UNK        -0.5000 
    114 N          1.7124  -16.0116  -53.3097 N.am      21 UNK        -0.5000 
    115 CA         1.6518  -15.2860  -52.0400 C.3       21 UNK         0.1400 
    116 CB         1.8697  -16.2788  -50.8883 C.3       21 UNK        -0.1800 
    117 C          0.3400  -14.4941  -51.8366 C.2       21 UNK         0.5000 
    118 O          0.3166  -13.5930  -50.9975 O.2       21 UNK        -0.5000 
    119 N         -0.7147  -14.8243  -52.5944 N.am      22 UNK        -0.5000 
    120 CA        -2.0028  -14.1124  -52.5950 C.3       22 UNK         0.1400 
    121 C         -2.6707  -13.9861  -53.9934 C.2       22 UNK         0.5000 
    122 N         -2.3288  -14.8009  -54.9833 N.am      22 UNK        -0.7600 
    123 O         -3.5034  -13.1058  -54.1937 O.2       22 UNK        -0.5000 
    124 C124       -2.9828  -14.6531  -51.5234 C.3       23 UNK        -0.0398 
    125 S125       -3.3883  -16.4257  -51.7181 S.3       23 UNK        -0.2404 
    126 C126       -2.4879  -17.1219  -50.3054 C.3       23 UNK        -0.0205 
    127 H127       -6.7935  -20.2071  -41.8646 H         1 UNK         0.0600 
    128 H128       -7.7630  -20.0223  -43.3275 H         1 UNK         0.0600 
    129 H129       -7.1683  -21.6172  -42.8604 H         1 UNK         0.0600 
    130 H130       -6.6814  -19.4636  -45.1782 H         1 UNK         0.3000 
    131 H131       -5.2038  -19.0250  -46.7045 H         1 UNK         0.0600 
    132 H132       -3.0988  -20.4433  -46.9942 H         1 UNK         0.0800 
    133 H133       -3.4659  -21.2386  -45.5048 H         1 UNK         0.0800 
    134 H134       -5.8706  -21.6689  -49.4701 H         1 UNK         0.0800 
    135 H135       -6.0644  -20.1824  -48.5861 H         1 UNK         0.0800 
    136 H136       -4.6423  -18.3950  -49.2631 H         1 UNK         0.1150 
    137 H137       -0.8125  -19.1581  -51.0346 H         1 UNK         0.1150 
    138 H138       -3.2848  -22.4236  -49.7723 H         1 UNK         0.1150 
    139 H139       -1.2340  -22.9086  -50.8190 H         1 UNK         0.0800 
    140 H140       -0.5794  -21.7101  -51.8964 H         1 UNK         0.0800 
    141 H141       -0.9560  -22.5991  -48.1920 H         1 UNK         0.0800 
    142 H142       -0.5079  -20.9464  -47.8479 H         1 UNK         0.0800 
    143 H143        1.2541  -23.4089  -47.3920 H         1 UNK         0.0600 
    144 H144        1.7834  -20.5737  -46.6050 H         1 UNK         0.3000 
    145 H145        5.2894  -21.0367  -47.3474 H         1 UNK         0.0600 
    146 H146        4.8484  -18.9822  -48.6371 H         1 UNK         0.0600 
    147 H147        4.1326  -20.3587  -49.4618 H         1 UNK         0.0600 
    148 H148        3.1086  -19.2560  -48.5514 H         1 UNK         0.0600 
    149 H149        3.8818  -18.8163  -46.2556 H         1 UNK         0.3000 
    150 H150        4.6218  -19.5875  -42.8203 H         1 UNK         0.0600 
    151 H151        6.6570  -18.5774  -43.8549 H         1 UNK         0.0600 
    152 H152        5.6741  -17.3617  -43.0520 H         1 UNK         0.0600 
    153 H153        5.6498  -17.4941  -44.8084 H         1 UNK         0.0600 
    154 H154        3.2828  -17.4021  -44.1487 H         1 UNK         0.3000 
    155 H155       -0.0260  -18.6742  -43.6922 H         1 UNK         0.0600 
    156 H156       -0.2130  -16.4126  -42.5702 H         1 UNK         0.0600 
    157 H157        1.5214  -16.4202  -42.2940 H         1 UNK         0.0600 
    158 H158        0.5008  -17.6217  -41.5141 H         1 UNK         0.0600 
    159 H159        0.8588  -16.2165  -44.7630 H         1 UNK         0.3000 
    160 H160        1.4591  -17.2961  -48.1246 H         1 UNK         0.0600 
    161 H161       -0.6984  -15.5675  -46.8055 H         1 UNK         0.0600 
    162 H162       -0.9744  -16.9152  -47.8906 H         1 UNK         0.0600 
    163 H163       -0.1847  -15.4614  -48.4897 H         1 UNK         0.0600 
    164 H164        1.6786  -14.7620  -46.7851 H         1 UNK         0.3000 
    165 H165        5.1666  -15.0143  -46.0267 H         1 UNK         0.0600 
    166 H166        3.5897  -13.3704  -48.0843 H         1 UNK         0.0600 
    167 H167        5.1646  -12.9542  -47.4079 H         1 UNK         0.0600 
    168 H168        4.9957  -14.3673  -48.4371 H         1 UNK         0.0600 
    169 H169        3.2461  -12.9249  -45.6689 H         1 UNK         0.3000 
    170 H170        2.0508  -13.8901  -42.4657 H         1 UNK         0.0600 
    171 H171        4.2301  -12.7561  -42.0001 H         1 UNK         0.0600 
    172 H172        3.9221  -11.6065  -43.2961 H         1 UNK         0.0600 
    173 H173        2.8846  -11.6351  -41.8697 H         1 UNK         0.0600 
    174 H174        1.5291  -11.5833  -44.0237 H         1 UNK         0.3000 
    175 H175       -0.8567  -11.4986  -44.7497 H         1 UNK         0.0600 
    176 H176       -0.5870  -11.1883  -47.2454 H         1 UNK         0.0600 
    177 H177        0.9810  -11.1778  -46.4598 H         1 UNK         0.0600 
    178 H178        0.4417  -12.6150  -47.3228 H         1 UNK         0.0600 
    179 H179       -1.4944  -14.1502  -45.5487 H         1 UNK         0.3000 
    180 H180       -4.8952  -13.5948  -45.8935 H         1 UNK         0.0600 
    181 H181       -3.0891  -14.5996  -48.1590 H         1 UNK         0.0600 
    182 H182       -4.3661  -13.4014  -48.3222 H         1 UNK         0.0600 
    183 H183       -4.7749  -15.0635  -47.9228 H         1 UNK         0.0600 
    184 H184       -3.2554  -15.9547  -46.0836 H         1 UNK         0.3000 
    185 H185       -2.0545  -16.7807  -43.9801 H         1 UNK         0.0600 
    186 H186       -2.7054  -17.6961  -41.7731 H         1 UNK         0.0600 
    187 H187       -2.5338  -15.9515  -41.6751 H         1 UNK         0.0600 
    188 H188       -4.1394  -16.6701  -41.7359 H         1 UNK         0.0600 
    189 H189       -4.5903  -18.1615  -43.6085 H         1 UNK         0.3000 
    190 H190        0.2813  -24.6101  -45.9144 H         1 UNK         0.3000 
    191 H191       -0.7986  -23.5180  -43.4013 H         1 UNK         0.0600 
    192 H192        0.4872  -25.6792  -43.4234 H         1 UNK         0.0600 
    193 H193       -1.1684  -25.9355  -42.9015 H         1 UNK         0.0600 
    194 H194       -0.6897  -26.3760  -44.5363 H         1 UNK         0.0600 
    195 H195       -3.0415  -24.1232  -42.7863 H         1 UNK         0.3000 
    196 H196       -5.0150  -23.2476  -44.5520 H         1 UNK         0.0600 
    197 H197       -6.5870  -24.0717  -42.7855 H         1 UNK         0.0600 
    198 H198       -5.2236  -23.2206  -42.0766 H         1 UNK         0.0600 
    199 H199       -5.2820  -24.9825  -42.0362 H         1 UNK         0.0600 
    200 H200       -3.7495  -26.4770  -44.1709 H         1 UNK         0.3000 
    201 H201       -5.8884  -27.9323  -45.4371 H         1 UNK         0.0600 
    202 H202       -4.3111  -28.9773  -43.8233 H         1 UNK         0.0600 
    203 H203       -2.9565  -28.6636  -44.9094 H         1 UNK         0.0600 
    204 H204       -4.2231  -29.7924  -45.3753 H         1 UNK         0.0600 
    205 H205       -3.4325  -25.8658  -46.7769 H         1 UNK         0.3000 
    206 H206       -2.8907  -27.2837  -49.2013 H         1 UNK         0.0600 
    207 H207       -2.6768  -24.2984  -48.5647 H         1 UNK         0.0600 
    208 H208       -1.4065  -25.4956  -48.3269 H         1 UNK         0.0600 
    209 H209       -1.9534  -25.1042  -49.9514 H         1 UNK         0.0600 
    210 H210       -5.2774  -24.8341  -48.3297 H         1 UNK         0.3000 
    211 H211       -7.1933  -24.1257  -49.0693 H         1 UNK         0.0600 
    212 H212       -7.3418  -26.7327  -50.6665 H         1 UNK         0.0600 
    213 H213       -8.6987  -25.6868  -50.2729 H         1 UNK         0.0600 
    214 H214       -7.8297  -26.5115  -48.9872 H         1 UNK         0.0600 
    215 H215       -5.3658  -25.2957  -51.9039 H         1 UNK         0.3000 
    216 H216       -6.5934  -23.3575  -53.7455 H         1 UNK         0.0600 
    217 H217       -5.9356  -25.6050  -54.5705 H         1 UNK         0.0600 
    218 H218       -4.2640  -25.3245  -54.0841 H         1 UNK         0.0600 
    219 H219       -4.9827  -24.3633  -55.3713 H         1 UNK         0.0600 
    220 H220       -5.7794  -21.3853  -54.2110 H         1 UNK         0.3000 
    221 H221       -3.7876  -20.1471  -52.5977 H         1 UNK         0.0600 
    222 H222       -5.2089  -19.2190  -55.1533 H         1 UNK         0.0600 
    223 H223       -5.7488  -18.9346  -53.4969 H         1 UNK         0.0600 
    224 H224       -4.2797  -18.1780  -54.0846 H         1 UNK         0.0600 
    225 H225       -1.9765  -18.8371  -53.4822 H         1 UNK         0.3000 
    226 H226       -0.5829  -19.8265  -55.8539 H         1 UNK         0.0600 
    227 H227        0.2703  -21.3323  -54.0383 H         1 UNK         0.0600 
    228 H228        1.5286  -20.2348  -54.5570 H         1 UNK         0.0600 
    229 H229        0.6784  -19.9301  -53.0467 H         1 UNK         0.0600 
    230 H230        1.6341  -18.4745  -55.8156 H         1 UNK         0.3000 
    231 H231        0.9545  -15.8617  -56.4378 H         1 UNK         0.0600 
    232 H232        3.4276  -15.5686  -56.7089 H         1 UNK         0.0600 
    233 H233        2.8815  -17.0898  -57.3920 H         1 UNK         0.0600 
    234 H234        3.7062  -17.0684  -55.8322 H         1 UNK         0.0600 
    235 H235        1.5892  -17.0118  -53.2657 H         1 UNK         0.3000 
    236 H236        2.4716  -14.5649  -52.0257 H         1 UNK         0.0600 
    237 H237        1.9116  -15.7523  -49.9349 H         1 UNK         0.0600 
    238 H238        1.0665  -17.0142  -50.8285 H         1 UNK         0.0600 
    239 H239        2.8116  -16.8164  -50.9989 H         1 UNK         0.0600 
    240 H240       -0.6350  -15.5955  -53.2477 H         1 UNK         0.3000 
    241 H241       -1.7929  -13.0755  -52.3242 H         1 UNK         0.0600 
    242 H242       -1.7342  -15.6105  -54.8227 H         1 UNK         0.3800 
    243 H243       -2.7696  -14.6849  -55.8813 H         1 UNK         0.3800 
    244 H244       -2.5570  -14.4829  -50.5344 H         1 UNK         0.0800 
    245 H245       -3.9147  -14.0854  -51.5363 H         1 UNK         0.0800 
    246 H246       -1.4252  -16.9006  -50.4105 H         1 UNK         0.0800 
    247 H247       -2.8227  -16.6351  -49.3893 H         1 UNK         0.0800 
@<TRIPOS>BOND
     1    1    2 1    
     2    1  127 1    
     3    1  128 1    
     4    1  129 1    
     5    2    3 2    
     6    2    4 am   BACKBONE|DICT|INTERRES
     7    4    5 1    
     8    4  130 1    
     9    5    6 1    
    10    5   65 1    
    11    5  131 1    
    12    6    7 1    
    13    6  132 1    
    14    6  133 1    
    15    7    8 1    
    16    8    9 1    
    17    8  134 1    
    18    8  135 1    
    19    9   10 ar   
    20    9   14 ar   
    21   10   11 ar   
    22   10  136 1    
    23   11   12 ar   
    24   11  126 1    
    25   12   13 ar   
    26   12  137 1    
    27   13   14 ar   
    28   13   15 1    
    29   14  138 1    
    30   15   16 1    
    31   15  139 1    
    32   15  140 1    
    33   16   17 1    
    34   17   18 1    
    35   17  141 1    
    36   17  142 1    
    37   18   19 1    
    38   18   67 1    
    39   18  143 1    
    40   19   20 am   BACKBONE|DICT|INTERRES
    41   19  144 1    
    42   20   21 2    
    43   20   22 1    
    44   22   23 1    
    45   22   24 1    
    46   22  145 1    
    47   23  146 1    
    48   23  147 1    
    49   23  148 1    
    50   24   25 am   BACKBONE|DICT|INTERRES
    51   24  149 1    
    52   25   26 2    
    53   25   27 1    
    54   27   28 1    
    55   27   29 1    
    56   27  150 1    
    57   28  151 1    
    58   28  152 1    
    59   28  153 1    
    60   29   30 am   BACKBONE|DICT|INTERRES
    61   29  154 1    
    62   30   31 2    
    63   30   32 1    
    64   32   33 1    
    65   32   34 1    
    66   32  155 1    
    67   33  156 1    
    68   33  157 1    
    69   33  158 1    
    70   34   35 am   BACKBONE|DICT|INTERRES
    71   34  159 1    
    72   35   36 2    
    73   35   37 1    
    74   37   38 1    
    75   37   39 1    
    76   37  160 1    
    77   38  161 1    
    78   38  162 1    
    79   38  163 1    
    80   39   40 am   BACKBONE|DICT|INTERRES
    81   39  164 1    
    82   40   41 2    
    83   40   42 1    
    84   42   43 1    
    85   42   44 1    
    86   42  165 1    
    87   43  166 1    
    88   43  167 1    
    89   43  168 1    
    90   44   45 am   BACKBONE|DICT|INTERRES
    91   44  169 1    
    92   45   46 2    
    93   45   47 1    
    94   47   48 1    
    95   47   49 1    
    96   47  170 1    
    97   48  171 1    
    98   48  172 1    
    99   48  173 1    
   100   49   50 am   BACKBONE|DICT|INTERRES
   101   49  174 1    
   102   50   51 2    
   103   50   52 1    
   104   52   53 1    
   105   52   54 1    
   106   52  175 1    
   107   53  176 1    
   108   53  177 1    
   109   53  178 1    
   110   54   55 am   BACKBONE|DICT|INTERRES
   111   54  179 1    
   112   55   56 2    
   113   55   57 1    
   114   57   58 1    
   115   57   59 1    
   116   57  180 1    
   117   58  181 1    
   118   58  182 1    
   119   58  183 1    
   120   59   60 am   BACKBONE|DICT|INTERRES
   121   59  184 1    
   122   60   61 2    
   123   60   62 1    
   124   62   63 1    
   125   62   64 1    
   126   62  185 1    
   127   63  186 1    
   128   63  187 1    
   129   63  188 1    
   130   64   65 am   BACKBONE|DICT|INTERRES
   131   64  189 1    
   132   65   66 2    
   133   67   68 2    
   134   67   69 am   BACKBONE|DICT|INTERRES
   135   69   70 1    
   136   69  190 1    
   137   70   71 1    
   138   70   72 1    
   139   70  191 1    
   140   71  192 1    
   141   71  193 1    
   142   71  194 1    
   143   72   73 2    
   144   72   74 am   BACKBONE|DICT|INTERRES
   145   74   75 1    
   146   74  195 1    
   147   75   76 1    
   148   75   77 1    
   149   75  196 1    
   150   76  197 1    
   151   76  198 1    
   152   76  199 1    
   153   77   78 2    
   154   77   79 am   BACKBONE|DICT|INTERRES
   155   79   80 1    
   156   79  200 1    
   157   80   81 1    
   158   80   82 1    
   159   80  201 1    
   160   81  202 1    
   161   81  203 1    
   162   81  204 1    
   163   82   83 2    
   164   82   84 am   BACKBONE|DICT|INTERRES
   165   84   85 1    
   166   84  205 1    
   167   85   86 1    
   168   85   87 1    
   169   85  206 1    
   170   86  207 1    
   171   86  208 1    
   172   86  209 1    
   173   87   88 2    
   174   87   89 am   BACKBONE|DICT|INTERRES
   175   89   90 1    
   176   89  210 1    
   177   90   91 1    
   178   90   92 1    
   179   90  211 1    
   180   91  212 1    
   181   91  213 1    
   182   91  214 1    
   183   92   93 2    
   184   92   94 am   BACKBONE|DICT|INTERRES
   185   94   95 1    
   186   94  215 1    
   187   95   96 1    
   188   95   97 1    
   189   95  216 1    
   190   96  217 1    
   191   96  218 1    
   192   96  219 1    
   193   97   98 2    
   194   97   99 am   BACKBONE|DICT|INTERRES
   195   99  100 1    
   196   99  220 1    
   197  100  101 1    
   198  100  102 1    
   199  100  221 1    
   200  101  222 1    
   201  101  223 1    
   202  101  224 1    
   203  102  103 2    
   204  102  104 am   BACKBONE|DICT|INTERRES
   205  104  105 1    
   206  104  225 1    
   207  105  106 1    
   208  105  107 1    
   209  105  226 1    
   210  106  227 1    
   211  106  228 1    
   212  106  229 1    
   213  107  108 2    
   214  107  109 am   BACKBONE|DICT|INTERRES
   215  109  110 1    
   216  109  230 1    
   217  110  111 1    
   218  110  112 1    
   219  110  231 1    
   220  111  232 1    
   221  111  233 1    
   222  111  234 1    
   223  112  113 2    
   224  112  114 am   BACKBONE|DICT|INTERRES
   225  114  115 1    
   226  114  235 1    
   227  115  116 1    
   228  115  117 1    
   229  115  236 1    
   230  116  237 1    
   231  116  238 1    
   232  116  239 1    
   233  117  118 2    
   234  117  119 am   BACKBONE|DICT|INTERRES
   235  119  120 1    
   236  119  240 1    
   237  120  121 1    
   238  120  124 1    
   239  120  241 1    
   240  121  122 am   BACKBONE|DICT|INTERRES
   241  121  123 2    
   242  122  242 1    
   243  122  243 1    
   244  124  125 1    
   245  124  244 1    
   246  124  245 1    
   247  125  126 1    
   248  126  246 1    
   249  126  247 1    
@<TRIPOS>SUBSTRUCTURE
     1 UNK         1 GROUP             0       ****    0 ROOT    
