@<TRIPOS>MOLECULE
3R540
247   249    1
SMALL
USER_CHARGES


@<TRIPOS>ATOM
      1 CA          5.3562  -12.7664  -49.3580 C.3       0 UNK        -0.1800 
      2 C           4.5202  -13.4073  -48.2602 C.2       0 UNK         0.5000 
      3 O           4.9814  -13.5164  -47.1248 O.2       0 UNK        -0.5000 
      4 N           3.2865  -13.8153  -48.5891 N.am      1 UNK        -0.5000 
      5 CA          2.3309  -14.5031  -47.7041 C.3       1 UNK         0.1400 
      6 C6          1.0286  -14.8906  -48.4516 C.3       23 UNK        -0.0398 
      7 S7          1.3451  -15.8367  -49.9808 S.3       23 UNK        -0.2404 
      8 C8          0.4477  -17.3921  -49.6814 C.3       23 UNK        -0.0205 
      9 C9         -1.0636  -17.2325  -49.7828 C.ar      23 UNK        -0.0193 
     10 C10        -1.6370  -16.8512  -50.9990 C.ar      23 UNK        -0.1150 
     11 C11        -3.0233  -16.7260  -51.1308 C.ar      23 UNK        -0.0193 
     12 C12        -3.8344  -16.9778  -50.0199 C.ar      23 UNK        -0.1150 
     13 C13        -3.2798  -17.3716  -48.7987 C.ar      23 UNK        -0.0193 
     14 C14        -1.8912  -17.4961  -48.6845 C.ar      23 UNK        -0.1150 
     15 C15        -4.1905  -17.6317  -47.6058 C.3       23 UNK        -0.0205 
     16 S16        -4.9497  -19.2852  -47.6681 S.3       23 UNK        -0.2404 
     17 C17        -4.3704  -20.1032  -46.1372 C.3       23 UNK        -0.0398 
     18 CA         -3.5409  -21.3659  -46.4680 C.3       11 UNK         0.1400 
     19 N          -2.2103  -21.0315  -46.9835 N.am      11 UNK        -0.5000 
     20 C          -1.3842  -21.9017  -47.5774 C.2       10 UNK         0.5000 
     21 O          -1.6789  -23.0777  -47.7985 O.2       10 UNK        -0.5000 
     22 CA          0.0258  -21.3970  -47.9385 C.3       10 UNK         0.1400 
     23 CB          0.0383  -20.9268  -49.3986 C.3       10 UNK        -0.1800 
     24 N           0.5552  -20.3299  -47.0743 N.am      10 UNK        -0.5000 
     25 C           0.6582  -20.3740  -45.7365 C.2       9 UNK         0.5000 
     26 O           0.2408  -21.3212  -45.0681 O.2       9 UNK        -0.5000 
     27 CA          1.3154  -19.1758  -45.0177 C.3       9 UNK         0.1400 
     28 CB          1.3968  -17.9013  -45.8829 C.3       9 UNK        -0.1800 
     29 N           0.5728  -18.8902  -43.7897 N.am      9 UNK        -0.5000 
     30 C           0.8223  -19.4475  -42.5942 C.2       8 UNK         0.5000 
     31 O           1.8143  -20.1412  -42.3647 O.2       8 UNK        -0.5000 
     32 CA         -0.2060  -19.2200  -41.4664 C.3       8 UNK         0.1400 
     33 CB          0.4574  -18.7675  -40.1538 C.3       8 UNK        -0.1800 
     34 N          -1.2429  -18.2565  -41.8417 N.am      8 UNK        -0.5000 
     35 C          -2.4899  -18.5904  -42.2039 C.2       7 UNK         0.5000 
     36 O          -2.9149  -19.7446  -42.2235 O.2       7 UNK        -0.5000 
     37 CA         -3.4257  -17.4513  -42.6474 C.3       7 UNK         0.1400 
     38 CB         -4.1606  -16.8582  -41.4362 C.3       7 UNK        -0.1800 
     39 N          -2.7634  -16.3699  -43.3752 N.am      7 UNK        -0.5000 
     40 C          -2.0402  -16.4876  -44.4935 C.2       6 UNK         0.5000 
     41 O          -1.7831  -17.5687  -45.0230 O.2       6 UNK        -0.5000 
     42 CA         -1.4815  -15.1921  -45.1131 C.3       6 UNK         0.1400 
     43 CB         -2.5376  -14.4550  -45.9551 C.3       6 UNK        -0.1800 
     44 N          -0.8353  -14.2986  -44.1468 N.am      6 UNK        -0.5000 
     45 C          -1.3676  -13.6413  -43.1060 C.2       5 UNK         0.5000 
     46 O          -2.5773  -13.6011  -42.8741 O.2       5 UNK        -0.5000 
     47 CA         -0.3801  -12.9539  -42.1373 C.3       5 UNK         0.1400 
     48 CB         -0.9245  -12.8994  -40.6951 C.3       5 UNK        -0.1800 
     49 N           0.9717  -13.5299  -42.1388 N.am      5 UNK        -0.5000 
     50 C           1.3294  -14.8023  -41.8908 C.2       4 UNK         0.5000 
     51 O           0.5208  -15.7074  -41.6764 O.2       4 UNK        -0.5000 
     52 CA          2.8423  -15.1051  -41.9124 C.3       4 UNK         0.1400 
     53 CB          3.1609  -16.5451  -42.3458 C.3       4 UNK        -0.1800 
     54 N           3.5337  -14.1779  -42.8076 N.am      4 UNK        -0.5000 
     55 C           4.5041  -13.3264  -42.4498 C.2       3 UNK         0.5000 
     56 O           5.0093  -13.2944  -41.3273 O.2       3 UNK        -0.5000 
     57 CA          4.9698  -12.3113  -43.5151 C.3       3 UNK         0.1400 
     58 CB          6.2698  -12.7895  -44.1780 C.3       3 UNK        -0.1800 
     59 N           3.9641  -12.0464  -44.5502 N.am      3 UNK        -0.5000 
     60 C           2.7744  -11.4658  -44.3241 C.2       2 UNK         0.5000 
     61 O           2.4240  -11.0525  -43.2186 O.2       2 UNK        -0.5000 
     62 CA          1.7767  -11.3801  -45.4966 C.3       2 UNK         0.1400 
     63 CB          1.7818   -9.9689  -46.1019 C.3       2 UNK        -0.1800 
     64 N           2.0097  -12.3538  -46.5638 N.am      2 UNK        -0.5000 
     65 C           1.9923  -13.6886  -46.4359 C.2       1 UNK         0.5000 
     66 O           1.7659  -14.2687  -45.3719 O.2       1 UNK        -0.5000 
     67 C          -3.5110  -22.3803  -45.2988 C.2       11 UNK         0.5000 
     68 O          -4.5200  -23.0486  -45.0716 O.2       11 UNK        -0.5000 
     69 N          -2.3622  -22.5254  -44.6240 N.am      12 UNK        -0.5000 
     70 CA         -2.0953  -23.5815  -43.6505 C.3       12 UNK         0.1400 
     71 CB         -1.5932  -22.9585  -42.3383 C.3       12 UNK        -0.1800 
     72 C          -1.0602  -24.5718  -44.2071 C.2       12 UNK         0.5000 
     73 O          -1.3222  -25.7740  -44.2367 O.2       12 UNK        -0.5000 
     74 N           0.0937  -24.0506  -44.6467 N.am      13 UNK        -0.5000 
     75 CA          1.2917  -24.8108  -45.0125 C.3       13 UNK         0.1400 
     76 CB          2.4578  -23.8320  -45.2196 C.3       13 UNK        -0.1800 
     77 C           1.1285  -25.7150  -46.2464 C.2       13 UNK         0.5000 
     78 O           1.7753  -26.7608  -46.3139 O.2       13 UNK        -0.5000 
     79 N           0.2673  -25.3072  -47.1853 N.am      14 UNK        -0.5000 
     80 CA         -0.0889  -26.0674  -48.3837 C.3       14 UNK         0.1400 
     81 CB          0.2545  -25.2282  -49.6284 C.3       14 UNK        -0.1800 
     82 C          -1.5770  -26.4620  -48.3611 C.2       14 UNK         0.5000 
     83 O          -2.1168  -26.8274  -49.4050 O.2       14 UNK        -0.5000 
     84 N          -2.2326  -26.3396  -47.1940 N.am      15 UNK        -0.5000 
     85 CA         -3.6553  -26.6043  -46.9394 C.3       15 UNK         0.1400 
     86 CB         -3.9203  -28.1235  -46.9609 C.3       15 UNK        -0.1800 
     87 C          -4.6124  -25.8225  -47.8692 C.2       15 UNK         0.5000 
     88 O          -5.7016  -26.3075  -48.1787 O.2       15 UNK        -0.5000 
     89 N          -4.1661  -24.6403  -48.3202 N.am      16 UNK        -0.5000 
     90 CA         -4.8069  -23.7503  -49.2908 C.3       16 UNK         0.1400 
     91 CB         -6.1868  -23.2684  -48.7942 C.3       16 UNK        -0.1800 
     92 C          -4.8589  -24.2975  -50.7338 C.2       16 UNK         0.5000 
     93 O          -5.5211  -23.6887  -51.5747 O.2       16 UNK        -0.5000 
     94 N          -4.1315  -25.3850  -51.0356 N.am      17 UNK        -0.5000 
     95 CA         -4.0392  -25.9484  -52.3863 C.3       17 UNK         0.1400 
     96 CB         -3.4159  -27.3508  -52.3306 C.3       17 UNK        -0.1800 
     97 C          -3.2456  -25.0350  -53.3371 C.2       17 UNK         0.5000 
     98 O          -3.6447  -24.8564  -54.4872 O.2       17 UNK        -0.5000 
     99 N          -2.1615  -24.4362  -52.8241 N.am      18 UNK        -0.5000 
    100 CA        -1.3656  -23.4353  -53.5373 C.3       18 UNK         0.1400 
    101 CB         0.0305  -23.3475  -52.9046 C.3       18 UNK        -0.1800 
    102 C         -2.0510  -22.0555  -53.5633 C.2       18 UNK         0.5000 
    103 O         -1.8796  -21.3127  -54.5282 O.2       18 UNK        -0.5000 
    104 N         -2.8506  -21.7495  -52.5305 N.am      19 UNK        -0.5000 
    105 CA        -3.6349  -20.5145  -52.4224 C.3       19 UNK         0.1400 
    106 CB        -4.1922  -20.3865  -51.0000 C.3       19 UNK        -0.1800 
    107 C         -4.7745  -20.4234  -53.4575 C.2       19 UNK         0.5000 
    108 O         -5.1992  -19.3222  -53.8032 O.2       19 UNK        -0.5000 
    109 N         -5.2294  -21.5741  -53.9713 N.am      20 UNK        -0.5000 
    110 CA        -6.2055  -21.6683  -55.0576 C.3       20 UNK         0.1400 
    111 CB        -6.6940  -23.1206  -55.1644 C.3       20 UNK        -0.1800 
    112 C         -5.6625  -21.1742  -56.4163 C.2       20 UNK         0.5000 
    113 O         -6.4601  -20.8712  -57.3041 O.2       20 UNK        -0.5000 
    114 N         -4.3308  -21.0955  -56.5612 N.am      21 UNK        -0.5000 
    115 CA        -3.6510  -20.6174  -57.7659 C.3       21 UNK         0.1400 
    116 CB        -2.2908  -21.3243  -57.8862 C.3       21 UNK        -0.1800 
    117 C         -3.4769  -19.0845  -57.8029 C.2       21 UNK         0.5000 
    118 O         -3.0218  -18.5687  -58.8254 O.2       21 UNK        -0.5000 
    119 N         -3.8166  -18.3799  -56.7126 N.am      22 UNK        -0.5000 
    120 CA        -3.7797  -16.9102  -56.6191 C.3       22 UNK         0.1400 
    121 C         -4.7391  -16.2167  -57.6289 C.2       22 UNK         0.5000 
    122 N         -4.3242  -15.1092  -58.2290 N.am      22 UNK        -0.7600 
    123 O         -5.8715  -16.6469  -57.8374 O.2       22 UNK        -0.5000 
    124 C124       -4.0892  -16.4128  -55.1853 C.3       23 UNK        -0.0398 
    125 S125       -2.8781  -16.9679  -53.9408 S.3       23 UNK        -0.2404 
    126 C126       -3.6656  -16.2822  -52.4427 C.3       23 UNK        -0.0205 
    127 H127        4.8202  -12.7292  -50.3067 H         1 UNK         0.0600 
    128 H128        6.2748  -13.3336  -49.5080 H         1 UNK         0.0600 
    129 H129        5.6249  -11.7479  -49.0780 H         1 UNK         0.0600 
    130 H130        2.9772  -13.7098  -49.5453 H         1 UNK         0.3000 
    131 H131        2.8148  -15.4225  -47.3684 H         1 UNK         0.0600 
    132 H132        0.3774  -15.4763  -47.8036 H         1 UNK         0.0800 
    133 H133        0.4606  -13.9996  -48.7256 H         1 UNK         0.0800 
    134 H134        0.7388  -17.7982  -48.7151 H         1 UNK         0.0800 
    135 H135        0.7691  -18.1196  -50.4278 H         1 UNK         0.0800 
    136 H136       -0.9948  -16.6472  -51.8440 H         1 UNK         0.1150 
    137 H137       -4.9071  -16.8743  -50.1044 H         1 UNK         0.1150 
    138 H138       -1.4606  -17.7977  -47.7412 H         1 UNK         0.1150 
    139 H139       -3.6478  -17.4957  -46.6762 H         1 UNK         0.0800 
    140 H140       -4.9867  -16.8862  -47.5909 H         1 UNK         0.0800 
    141 H141       -5.2639  -20.3646  -45.5671 H         1 UNK         0.0800 
    142 H142       -3.8016  -19.4189  -45.5067 H         1 UNK         0.0800 
    143 H143       -4.0606  -21.8871  -47.2698 H         1 UNK         0.0600 
    144 H144       -1.8901  -20.0879  -46.8248 H         1 UNK         0.3000 
    145 H145        0.7031  -22.2484  -47.8500 H         1 UNK         0.0600 
    146 H146        1.0397  -20.6403  -49.7197 H         1 UNK         0.0600 
    147 H147       -0.3009  -21.7209  -50.0621 H         1 UNK         0.0600 
    148 H148       -0.6288  -20.0794  -49.5530 H         1 UNK         0.0600 
    149 H149        0.9348  -19.5260  -47.5487 H         1 UNK         0.3000 
    150 H150        2.3361  -19.4705  -44.7666 H         1 UNK         0.0600 
    151 H151        2.1162  -18.0227  -46.6931 H         1 UNK         0.0600 
    152 H152        1.7238  -17.0425  -45.2999 H         1 UNK         0.0600 
    153 H153        0.4362  -17.6418  -46.3229 H         1 UNK         0.0600 
    154 H154       -0.3021  -18.3941  -43.9151 H         1 UNK         0.3000 
    155 H155       -0.6560  -20.1946  -41.2706 H         1 UNK         0.0600 
    156 H156        0.9505  -17.8027  -40.2533 H         1 UNK         0.0600 
    157 H157        1.2083  -19.4862  -39.8235 H         1 UNK         0.0600 
    158 H158       -0.2787  -18.6818  -39.3546 H         1 UNK         0.0600 
    159 H159       -0.9549  -17.2836  -41.8663 H         1 UNK         0.3000 
    160 H160       -4.1689  -17.8841  -43.3200 H         1 UNK         0.0600 
    161 H161       -3.4695  -16.3678  -40.7493 H         1 UNK         0.0600 
    162 H162       -4.6862  -17.6340  -40.8777 H         1 UNK         0.0600 
    163 H163       -4.9027  -16.1223  -41.7466 H         1 UNK         0.0600 
    164 H164       -2.8952  -15.4280  -43.0152 H         1 UNK         0.3000 
    165 H165       -0.6870  -15.5014  -45.7897 H         1 UNK         0.0600 
    166 H166       -3.4007  -14.1556  -45.3601 H         1 UNK         0.0600 
    167 H167       -2.1183  -13.5592  -46.4131 H         1 UNK         0.0600 
    168 H168       -2.9025  -15.0888  -46.7632 H         1 UNK         0.0600 
    169 H169        0.1754  -14.2673  -44.2412 H         1 UNK         0.3000 
    170 H170       -0.2754  -11.9279  -42.4921 H         1 UNK         0.0600 
    171 H171       -1.8638  -12.3473  -40.6481 H         1 UNK         0.0600 
    172 H172       -1.1106  -13.8977  -40.2971 H         1 UNK         0.0600 
    173 H173       -0.2235  -12.3979  -40.0280 H         1 UNK         0.0600 
    174 H174        1.7126  -12.8628  -42.3200 H         1 UNK         0.3000 
    175 H175        3.1915  -14.9784  -40.8860 H         1 UNK         0.0600 
    176 H176        2.7567  -16.7651  -43.3317 H         1 UNK         0.0600 
    177 H177        4.2367  -16.7166  -42.3805 H         1 UNK         0.0600 
    178 H178        2.7447  -17.2694  -41.6472 H         1 UNK         0.0600 
    179 H179        3.1673  -14.1287  -43.7522 H         1 UNK         0.3000 
    180 H180        5.1755  -11.3693  -43.0027 H         1 UNK         0.0600 
    181 H181        6.1353  -13.7492  -44.6784 H         1 UNK         0.0600 
    182 H182        7.0618  -12.9146  -43.4386 H         1 UNK         0.0600 
    183 H183        6.6253  -12.0718  -44.9176 H         1 UNK         0.0600 
    184 H184        4.1751  -12.3948  -45.4790 H         1 UNK         0.3000 
    185 H185        0.7826  -11.5741  -45.0887 H         1 UNK         0.0600 
    186 H186        2.7449   -9.7296  -46.5548 H         1 UNK         0.0600 
    187 H187        1.0139   -9.8650  -46.8688 H         1 UNK         0.0600 
    188 H188        1.5808   -9.2147  -45.3397 H         1 UNK         0.0600 
    189 H189        2.2341  -11.9738  -47.4720 H         1 UNK         0.3000 
    190 H190       -1.5677  -21.9470  -44.8793 H         1 UNK         0.3000 
    191 H191       -3.0030  -24.1457  -43.4267 H         1 UNK         0.0600 
    192 H192       -1.3271  -23.7294  -41.6141 H         1 UNK         0.0600 
    193 H193       -2.3642  -22.3391  -41.8814 H         1 UNK         0.0600 
    194 H194       -0.7123  -22.3353  -42.4958 H         1 UNK         0.0600 
    195 H195        0.2017  -23.0378  -44.6421 H         1 UNK         0.3000 
    196 H196        1.5380  -25.4568  -44.1673 H         1 UNK         0.0600 
    197 H197        2.2715  -23.1555  -46.0542 H         1 UNK         0.0600 
    198 H198        2.6277  -23.2256  -44.3295 H         1 UNK         0.0600 
    199 H199        3.3849  -24.3664  -45.4310 H         1 UNK         0.0600 
    200 H200       -0.2463  -24.4453  -47.0464 H         1 UNK         0.3000 
    201 H201        0.4782  -26.9985  -48.4369 H         1 UNK         0.0600 
    202 H202       -0.3549  -24.3274  -49.6903 H         1 UNK         0.0600 
    203 H203        0.0910  -25.7982  -50.5438 H         1 UNK         0.0600 
    204 H204        1.3012  -24.9238  -49.6219 H         1 UNK         0.0600 
    205 H205       -1.6986  -26.0544  -46.3823 H         1 UNK         0.3000 
    206 H206       -3.8563  -26.2446  -45.9292 H         1 UNK         0.0600 
    207 H207       -3.2468  -28.6499  -46.2846 H         1 UNK         0.0600 
    208 H208       -4.9384  -28.3504  -46.6427 H         1 UNK         0.0600 
    209 H209       -3.7874  -28.5413  -47.9595 H         1 UNK         0.0600 
    210 H210       -3.2436  -24.3412  -48.0186 H         1 UNK         0.3000 
    211 H211       -4.1546  -22.8793  -49.3419 H         1 UNK         0.0600 
    212 H212       -6.5544  -22.4410  -49.4019 H         1 UNK         0.0600 
    213 H213       -6.1423  -22.9164  -47.7638 H         1 UNK         0.0600 
    214 H214       -6.9340  -24.0606  -48.8435 H         1 UNK         0.0600 
    215 H215       -3.5876  -25.8464  -50.3123 H         1 UNK         0.3000 
    216 H216       -5.0522  -26.0464  -52.7828 H         1 UNK         0.0600 
    217 H217       -2.3763  -27.3201  -52.0029 H         1 UNK         0.0600 
    218 H218       -3.4334  -27.8221  -53.3139 H         1 UNK         0.0600 
    219 H219       -3.9637  -28.0002  -51.6475 H         1 UNK         0.0600 
    220 H220       -1.8904  -24.6570  -51.8775 H         1 UNK         0.3000 
    221 H221       -1.2421  -23.7585  -54.5734 H         1 UNK         0.0600 
    222 H222        0.5545  -24.3008  -52.9760 H         1 UNK         0.0600 
    223 H223       -0.0184  -23.0731  -51.8528 H         1 UNK         0.0600 
    224 H224        0.6437  -22.6013  -53.4116 H         1 UNK         0.0600 
    225 H225       -2.9615  -22.4253  -51.7923 H         1 UNK         0.3000 
    226 H226       -2.9611  -19.6736  -52.5974 H         1 UNK         0.0600 
    227 H227       -4.9045  -21.1771  -50.7732 H         1 UNK         0.0600 
    228 H228       -3.3983  -20.4085  -50.2528 H         1 UNK         0.0600 
    229 H229       -4.7248  -19.4435  -50.8812 H         1 UNK         0.0600 
    230 H230       -4.8717  -22.4453  -53.6038 H         1 UNK         0.3000 
    231 H231       -7.0602  -21.0403  -54.7979 H         1 UNK         0.0600 
    232 H232       -5.8911  -23.7933  -55.4661 H         1 UNK         0.0600 
    233 H233       -7.4906  -23.2105  -55.9040 H         1 UNK         0.0600 
    234 H234       -7.0910  -23.4763  -54.2132 H         1 UNK         0.0600 
    235 H235       -3.7348  -21.3377  -55.7793 H         1 UNK         0.3000 
    236 H236       -4.2439  -20.8947  -58.6400 H         1 UNK         0.0600 
    237 H237       -2.3985  -22.4075  -57.8265 H         1 UNK         0.0600 
    238 H238       -1.8185  -21.0979  -58.8428 H         1 UNK         0.0600 
    239 H239       -1.6011  -21.0097  -57.1032 H         1 UNK         0.0600 
    240 H240       -4.1922  -18.8663  -55.9099 H         1 UNK         0.3000 
    241 H241       -2.7609  -16.6050  -56.8660 H         1 UNK         0.0600 
    242 H242       -4.9419  -14.6409  -58.8741 H         1 UNK         0.3800 
    243 H243       -3.4019  -14.7333  -58.0691 H         1 UNK         0.3800 
    244 H244       -5.0839  -16.7436  -54.8805 H         1 UNK         0.0800 
    245 H245       -4.1071  -15.3215  -55.1568 H         1 UNK         0.0800 
    246 H246       -4.7178  -16.5720  -52.4495 H         1 UNK         0.0800 
    247 H247       -3.6399  -15.1931  -52.4927 H         1 UNK         0.0800 
@<TRIPOS>BOND
     1    1    2 1    
     2    1  127 1    
     3    1  128 1    
     4    1  129 1    
     5    2    3 2    
     6    2    4 am   BACKBONE|DICT|INTERRES
     7    4    5 1    
     8    4  130 1    
     9    5    6 1    
    10    5   65 1    
    11    5  131 1    
    12    6    7 1    
    13    6  132 1    
    14    6  133 1    
    15    7    8 1    
    16    8    9 1    
    17    8  134 1    
    18    8  135 1    
    19    9   10 ar   
    20    9   14 ar   
    21   10   11 ar   
    22   10  136 1    
    23   11   12 ar   
    24   11  126 1    
    25   12   13 ar   
    26   12  137 1    
    27   13   14 ar   
    28   13   15 1    
    29   14  138 1    
    30   15   16 1    
    31   15  139 1    
    32   15  140 1    
    33   16   17 1    
    34   17   18 1    
    35   17  141 1    
    36   17  142 1    
    37   18   19 1    
    38   18   67 1    
    39   18  143 1    
    40   19   20 am   BACKBONE|DICT|INTERRES
    41   19  144 1    
    42   20   21 2    
    43   20   22 1    
    44   22   23 1    
    45   22   24 1    
    46   22  145 1    
    47   23  146 1    
    48   23  147 1    
    49   23  148 1    
    50   24   25 am   BACKBONE|DICT|INTERRES
    51   24  149 1    
    52   25   26 2    
    53   25   27 1    
    54   27   28 1    
    55   27   29 1    
    56   27  150 1    
    57   28  151 1    
    58   28  152 1    
    59   28  153 1    
    60   29   30 am   BACKBONE|DICT|INTERRES
    61   29  154 1    
    62   30   31 2    
    63   30   32 1    
    64   32   33 1    
    65   32   34 1    
    66   32  155 1    
    67   33  156 1    
    68   33  157 1    
    69   33  158 1    
    70   34   35 am   BACKBONE|DICT|INTERRES
    71   34  159 1    
    72   35   36 2    
    73   35   37 1    
    74   37   38 1    
    75   37   39 1    
    76   37  160 1    
    77   38  161 1    
    78   38  162 1    
    79   38  163 1    
    80   39   40 am   BACKBONE|DICT|INTERRES
    81   39  164 1    
    82   40   41 2    
    83   40   42 1    
    84   42   43 1    
    85   42   44 1    
    86   42  165 1    
    87   43  166 1    
    88   43  167 1    
    89   43  168 1    
    90   44   45 am   BACKBONE|DICT|INTERRES
    91   44  169 1    
    92   45   46 2    
    93   45   47 1    
    94   47   48 1    
    95   47   49 1    
    96   47  170 1    
    97   48  171 1    
    98   48  172 1    
    99   48  173 1    
   100   49   50 am   BACKBONE|DICT|INTERRES
   101   49  174 1    
   102   50   51 2    
   103   50   52 1    
   104   52   53 1    
   105   52   54 1    
   106   52  175 1    
   107   53  176 1    
   108   53  177 1    
   109   53  178 1    
   110   54   55 am   BACKBONE|DICT|INTERRES
   111   54  179 1    
   112   55   56 2    
   113   55   57 1    
   114   57   58 1    
   115   57   59 1    
   116   57  180 1    
   117   58  181 1    
   118   58  182 1    
   119   58  183 1    
   120   59   60 am   BACKBONE|DICT|INTERRES
   121   59  184 1    
   122   60   61 2    
   123   60   62 1    
   124   62   63 1    
   125   62   64 1    
   126   62  185 1    
   127   63  186 1    
   128   63  187 1    
   129   63  188 1    
   130   64   65 am   BACKBONE|DICT|INTERRES
   131   64  189 1    
   132   65   66 2    
   133   67   68 2    
   134   67   69 am   BACKBONE|DICT|INTERRES
   135   69   70 1    
   136   69  190 1    
   137   70   71 1    
   138   70   72 1    
   139   70  191 1    
   140   71  192 1    
   141   71  193 1    
   142   71  194 1    
   143   72   73 2    
   144   72   74 am   BACKBONE|DICT|INTERRES
   145   74   75 1    
   146   74  195 1    
   147   75   76 1    
   148   75   77 1    
   149   75  196 1    
   150   76  197 1    
   151   76  198 1    
   152   76  199 1    
   153   77   78 2    
   154   77   79 am   BACKBONE|DICT|INTERRES
   155   79   80 1    
   156   79  200 1    
   157   80   81 1    
   158   80   82 1    
   159   80  201 1    
   160   81  202 1    
   161   81  203 1    
   162   81  204 1    
   163   82   83 2    
   164   82   84 am   BACKBONE|DICT|INTERRES
   165   84   85 1    
   166   84  205 1    
   167   85   86 1    
   168   85   87 1    
   169   85  206 1    
   170   86  207 1    
   171   86  208 1    
   172   86  209 1    
   173   87   88 2    
   174   87   89 am   BACKBONE|DICT|INTERRES
   175   89   90 1    
   176   89  210 1    
   177   90   91 1    
   178   90   92 1    
   179   90  211 1    
   180   91  212 1    
   181   91  213 1    
   182   91  214 1    
   183   92   93 2    
   184   92   94 am   BACKBONE|DICT|INTERRES
   185   94   95 1    
   186   94  215 1    
   187   95   96 1    
   188   95   97 1    
   189   95  216 1    
   190   96  217 1    
   191   96  218 1    
   192   96  219 1    
   193   97   98 2    
   194   97   99 am   BACKBONE|DICT|INTERRES
   195   99  100 1    
   196   99  220 1    
   197  100  101 1    
   198  100  102 1    
   199  100  221 1    
   200  101  222 1    
   201  101  223 1    
   202  101  224 1    
   203  102  103 2    
   204  102  104 am   BACKBONE|DICT|INTERRES
   205  104  105 1    
   206  104  225 1    
   207  105  106 1    
   208  105  107 1    
   209  105  226 1    
   210  106  227 1    
   211  106  228 1    
   212  106  229 1    
   213  107  108 2    
   214  107  109 am   BACKBONE|DICT|INTERRES
   215  109  110 1    
   216  109  230 1    
   217  110  111 1    
   218  110  112 1    
   219  110  231 1    
   220  111  232 1    
   221  111  233 1    
   222  111  234 1    
   223  112  113 2    
   224  112  114 am   BACKBONE|DICT|INTERRES
   225  114  115 1    
   226  114  235 1    
   227  115  116 1    
   228  115  117 1    
   229  115  236 1    
   230  116  237 1    
   231  116  238 1    
   232  116  239 1    
   233  117  118 2    
   234  117  119 am   BACKBONE|DICT|INTERRES
   235  119  120 1    
   236  119  240 1    
   237  120  121 1    
   238  120  124 1    
   239  120  241 1    
   240  121  122 am   BACKBONE|DICT|INTERRES
   241  121  123 2    
   242  122  242 1    
   243  122  243 1    
   244  124  125 1    
   245  124  244 1    
   246  124  245 1    
   247  125  126 1    
   248  126  246 1    
   249  126  247 1    
@<TRIPOS>SUBSTRUCTURE
     1 UNK         1 GROUP             0       ****    0 ROOT    
