@<TRIPOS>MOLECULE
3R540
247   249    1
SMALL
USER_CHARGES


@<TRIPOS>ATOM
      1 CA         -4.9830  -15.1566  -48.8126 C.3       0 UNK        -0.1800 
      2 C          -4.2256  -14.0207  -48.1375 C.2       0 UNK         0.5000 
      3 O          -4.8455  -13.0900  -47.6222 O.2       0 UNK        -0.5000 
      4 N          -2.8904  -14.0867  -48.1526 N.am      1 UNK        -0.5000 
      5 CA         -1.9869  -13.1282  -47.5115 C.3       1 UNK         0.1400 
      6 C6         -0.5481  -13.2116  -48.0887 C.3       23 UNK        -0.0398 
      7 S7          0.1147  -14.9147  -48.1905 S.3       23 UNK        -0.2404 
      8 C8          0.1381  -15.1879  -49.9890 C.3       23 UNK        -0.0205 
      9 C9         -0.1683  -16.6353  -50.3352 C.ar      23 UNK        -0.0193 
     10 C10        -1.4697  -17.0094  -50.6772 C.ar      23 UNK        -0.1150 
     11 C11        -1.7597  -18.3281  -51.0331 C.ar      23 UNK        -0.0193 
     12 C12        -0.7348  -19.2796  -51.0433 C.ar      23 UNK        -0.1150 
     13 C13         0.5745  -18.9179  -50.7052 C.ar      23 UNK        -0.0193 
     14 C14         0.8481  -17.5939  -50.3459 C.ar      23 UNK        -0.1150 
     15 C15         1.7113  -19.9320  -50.7766 C.3       23 UNK        -0.0205 
     16 S16         1.4026  -21.4580  -49.8306 S.3       23 UNK        -0.2404 
     17 C17         1.3448  -20.8304  -48.1206 C.3       23 UNK        -0.0398 
     18 CA          0.1839  -21.4506  -47.3086 C.3       11 UNK         0.1400 
     19 N           0.3799  -21.2766  -45.8663 N.am      11 UNK        -0.5000 
     20 C          -0.3533  -21.8714  -44.9151 C.2       10 UNK         0.5000 
     21 O          -1.2633  -22.6634  -45.1531 O.2       10 UNK        -0.5000 
     22 CA         -0.0552  -21.4701  -43.4610 C.3       10 UNK         0.1400 
     23 CB          1.1592  -22.2446  -42.9286 C.3       10 UNK        -0.1800 
     24 N           0.1756  -20.0299  -43.3418 N.am      10 UNK        -0.5000 
     25 C          -0.7921  -19.1065  -43.4676 C.2       9 UNK         0.5000 
     26 O          -1.9851  -19.3851  -43.5805 O.2       9 UNK        -0.5000 
     27 CA         -0.3617  -17.6266  -43.5191 C.3       9 UNK         0.1400 
     28 CB         -0.4657  -16.9850  -42.1304 C.3       9 UNK        -0.1800 
     29 N           0.9915  -17.4440  -44.0459 N.am      9 UNK        -0.5000 
     30 C           1.3541  -17.7397  -45.3024 C.2       8 UNK         0.5000 
     31 O           0.5634  -18.1439  -46.1538 O.2       8 UNK        -0.5000 
     32 CA          2.8491  -17.6380  -45.6650 C.3       8 UNK         0.1400 
     33 CB          3.1148  -16.3979  -46.5292 C.3       8 UNK        -0.1800 
     34 N           3.7745  -17.6331  -44.5271 N.am      8 UNK        -0.5000 
     35 C           3.9142  -18.6097  -43.6193 C.2       7 UNK         0.5000 
     36 O           3.1809  -19.6004  -43.5776 O.2       7 UNK        -0.5000 
     37 CA          5.0681  -18.4598  -42.6075 C.3       7 UNK         0.1400 
     38 CB          5.5367  -17.0019  -42.4176 C.3       7 UNK        -0.1800 
     39 N           4.6714  -18.9935  -41.3078 N.am      7 UNK        -0.5000 
     40 C           5.0776  -20.1583  -40.7854 C.2       6 UNK         0.5000 
     41 O           5.8395  -20.9346  -41.3645 O.2       6 UNK        -0.5000 
     42 CA          4.5907  -20.5144  -39.3643 C.3       6 UNK         0.1400 
     43 CB          5.7704  -20.5166  -38.3779 C.3       6 UNK        -0.1800 
     44 N           3.5724  -19.5926  -38.8585 N.am      6 UNK        -0.5000 
     45 C           2.2547  -19.7244  -39.0539 C.2       5 UNK         0.5000 
     46 O           1.7402  -20.6836  -39.6269 O.2       5 UNK        -0.5000 
     47 CA          1.3559  -18.5856  -38.5308 C.3       5 UNK         0.1400 
     48 CB          0.7820  -18.9476  -37.1525 C.3       5 UNK        -0.1800 
     49 N           2.0132  -17.2752  -38.4440 N.am      5 UNK        -0.5000 
     50 C           2.5321  -16.6040  -39.4800 C.2       4 UNK         0.5000 
     51 O           2.6078  -17.0619  -40.6229 O.2       4 UNK        -0.5000 
     52 CA          3.1002  -15.2032  -39.1824 C.3       4 UNK         0.1400 
     53 CB          4.5853  -15.3025  -38.8016 C.3       4 UNK        -0.1800 
     54 N           2.9635  -14.3209  -40.3422 N.am      4 UNK        -0.5000 
     55 C           1.7892  -13.9099  -40.8364 C.2       3 UNK         0.5000 
     56 O           0.7089  -14.0874  -40.2635 O.2       3 UNK        -0.5000 
     57 CA          1.8215  -13.2105  -42.2062 C.3       3 UNK         0.1400 
     58 CB          2.5543  -14.0680  -43.2627 C.3       3 UNK        -0.1800 
     59 N           0.4402  -12.9652  -42.6109 N.am      3 UNK        -0.5000 
     60 C           0.0273  -12.2201  -43.6374 C.2       2 UNK         0.5000 
     61 O           0.7841  -11.6037  -44.3923 O.2       2 UNK        -0.5000 
     62 CA         -1.4934  -12.1288  -43.8450 C.3       2 UNK         0.1400 
     63 CB         -2.0451  -10.8228  -43.2524 C.3       2 UNK        -0.1800 
     64 N          -1.7814  -12.1650  -45.2758 N.am      2 UNK        -0.5000 
     65 C          -1.9825  -13.2872  -45.9761 C.2       1 UNK         0.5000 
     66 O          -2.1198  -14.4011  -45.4635 O.2       1 UNK        -0.5000 
     67 C          -1.1955  -20.9238  -47.7565 C.2       11 UNK         0.5000 
     68 O          -1.9058  -21.6191  -48.4806 O.2       11 UNK        -0.5000 
     69 N          -1.5761  -19.7470  -47.2425 N.am      12 UNK        -0.5000 
     70 CA         -2.8778  -19.1119  -47.4496 C.3       12 UNK         0.1400 
     71 CB         -2.7957  -17.6620  -46.9501 C.3       12 UNK        -0.1800 
     72 C          -4.0661  -19.8507  -46.7951 C.2       12 UNK         0.5000 
     73 O          -5.2126  -19.5178  -47.0992 O.2       12 UNK        -0.5000 
     74 N          -3.7900  -20.8163  -45.9082 N.am      13 UNK        -0.5000 
     75 CA         -4.7822  -21.7171  -45.3265 C.3       13 UNK         0.1400 
     76 CB         -4.4612  -21.9424  -43.8404 C.3       13 UNK        -0.1800 
     77 C          -4.8243  -23.0537  -46.0880 C.2       13 UNK         0.5000 
     78 O          -5.9137  -23.5641  -46.3520 O.2       13 UNK        -0.5000 
     79 N          -3.6459  -23.6034  -46.4168 N.am      14 UNK        -0.5000 
     80 CA         -3.4762  -24.8799  -47.1133 C.3       14 UNK         0.1400 
     81 CB         -1.9994  -25.2988  -47.0431 C.3       14 UNK        -0.1800 
     82 C          -3.9560  -24.8537  -48.5759 C.2       14 UNK         0.5000 
     83 O          -4.5362  -25.8366  -49.0397 O.2       14 UNK        -0.5000 
     84 N          -3.7084  -23.7379  -49.2671 N.am      15 UNK        -0.5000 
     85 CA         -4.1434  -23.4632  -50.6315 C.3       15 UNK         0.1400 
     86 CB         -2.8968  -23.3489  -51.5226 C.3       15 UNK        -0.1800 
     87 C          -4.9592  -22.1609  -50.6389 C.2       15 UNK         0.5000 
     88 O          -4.8697  -21.3729  -49.6962 O.2       15 UNK        -0.5000 
     89 N          -5.7412  -21.9444  -51.7003 N.am      16 UNK        -0.5000 
     90 CA         -6.6244  -20.7922  -51.8666 C.3       16 UNK         0.1400 
     91 CB         -7.8427  -20.9179  -50.9272 C.3       16 UNK        -0.1800 
     92 C          -7.0751  -20.7025  -53.3312 C.2       16 UNK         0.5000 
     93 O          -6.8052  -21.6172  -54.1134 O.2       16 UNK        -0.5000 
     94 N          -7.7663  -19.6031  -53.6682 N.am      17 UNK        -0.5000 
     95 CA         -8.4691  -19.3484  -54.9360 C.3       17 UNK         0.1400 
     96 CB         -9.6954  -20.2782  -55.0516 C.3       17 UNK        -0.1800 
     97 C          -7.5713  -19.4050  -56.1917 C.2       17 UNK         0.5000 
     98 O          -8.0530  -19.7319  -57.2777 O.2       17 UNK        -0.5000 
     99 N          -6.2778  -19.1010  -56.0099 N.am      18 UNK        -0.5000 
    100 CA        -5.1970  -19.1857  -56.9987 C.3       18 UNK         0.1400 
    101 CB        -5.4149  -18.1768  -58.1459 C.3       18 UNK        -0.1800 
    102 C         -4.9183  -20.6201  -57.5102 C.2       18 UNK         0.5000 
    103 O         -4.3007  -20.7768  -58.5650 O.2       18 UNK        -0.5000 
    104 N         -5.3607  -21.6395  -56.7613 N.am      19 UNK        -0.5000 
    105 CA        -5.1250  -23.0525  -57.0424 C.3       19 UNK         0.1400 
    106 CB        -6.4164  -23.8335  -56.7531 C.3       19 UNK        -0.1800 
    107 C         -3.9761  -23.5787  -56.1689 C.2       19 UNK         0.5000 
    108 O         -3.7128  -23.0297  -55.0954 O.2       19 UNK        -0.5000 
    109 N         -3.3292  -24.6557  -56.6361 N.am      20 UNK        -0.5000 
    110 CA        -2.2032  -25.3442  -55.9955 C.3       20 UNK         0.1400 
    111 CB        -2.6894  -26.1104  -54.7431 C.3       20 UNK        -0.1800 
    112 C         -1.0250  -24.3799  -55.7335 C.2       20 UNK         0.5000 
    113 O         -0.6216  -23.6612  -56.6511 O.2       20 UNK        -0.5000 
    114 N         -0.5188  -24.3436  -54.4931 N.am      21 UNK        -0.5000 
    115 CA         0.5569  -23.4543  -54.0438 C.3       21 UNK         0.1400 
    116 CB         0.9627  -23.8473  -52.6158 C.3       21 UNK        -0.1800 
    117 C          0.2046  -21.9531  -54.1142 C.2       21 UNK         0.5000 
    118 O          1.1136  -21.1255  -54.1742 O.2       21 UNK        -0.5000 
    119 N         -1.0957  -21.6323  -54.1357 N.am      22 UNK        -0.5000 
    120 CA        -1.6253  -20.2821  -54.3685 C.3       22 UNK         0.1400 
    121 C         -1.5216  -19.8120  -55.8515 C.2       22 UNK         0.5000 
    122 N         -1.2253  -20.6799  -56.8134 N.am      22 UNK        -0.7600 
    123 O         -1.6997  -18.6324  -56.1380 O.2       22 UNK        -0.5000 
    124 C124       -3.0722  -20.1702  -53.8159 C.3       23 UNK        -0.0398 
    125 S125       -3.5146  -18.5214  -53.1771 S.3       23 UNK        -0.2404 
    126 C126       -3.1850  -18.7126  -51.3947 C.3       23 UNK        -0.0205 
    127 H127       -5.6228  -15.6632  -48.0901 H         1 UNK         0.0600 
    128 H128       -4.3078  -15.8951  -49.2452 H         1 UNK         0.0600 
    129 H129       -5.6128  -14.7652  -49.6113 H         1 UNK         0.0600 
    130 H130       -2.4316  -14.8996  -48.5370 H         1 UNK         0.3000 
    131 H131       -2.3659  -12.1276  -47.7321 H         1 UNK         0.0600 
    132 H132       -0.5341  -12.7565  -49.0793 H         1 UNK         0.0800 
    133 H133        0.1447  -12.6102  -47.4967 H         1 UNK         0.0800 
    134 H134        1.1160  -14.9054  -50.3816 H         1 UNK         0.0800 
    135 H135       -0.5872  -14.5404  -50.4835 H         1 UNK         0.0800 
    136 H136       -2.2581  -16.2704  -50.6790 H         1 UNK         0.1150 
    137 H137       -0.9526  -20.3009  -51.3222 H         1 UNK         0.1150 
    138 H138        1.8564  -17.3006  -50.0895 H         1 UNK         0.1150 
    139 H139        1.8731  -20.1965  -51.8211 H         1 UNK         0.0800 
    140 H140        2.6467  -19.4917  -50.4278 H         1 UNK         0.0800 
    141 H141        1.2879  -19.7412  -48.1172 H         1 UNK         0.0800 
    142 H142        2.2996  -21.0825  -47.6574 H         1 UNK         0.0800 
    143 H143        0.1901  -22.5279  -47.4897 H         1 UNK         0.0600 
    144 H144        1.0758  -20.6037  -45.5815 H         1 UNK         0.3000 
    145 H145       -0.9217  -21.7345  -42.8511 H         1 UNK         0.0600 
    146 H146        1.3670  -21.9880  -41.8908 H         1 UNK         0.0600 
    147 H147        0.9814  -23.3199  -42.9674 H         1 UNK         0.0600 
    148 H148        2.0591  -22.0409  -43.5096 H         1 UNK         0.0600 
    149 H149        1.1424  -19.7303  -43.2668 H         1 UNK         0.3000 
    150 H150       -1.0487  -17.0997  -44.1839 H         1 UNK         0.0600 
    151 H151       -1.4889  -17.0315  -41.7558 H         1 UNK         0.0600 
    152 H152       -0.1774  -15.9351  -42.1582 H         1 UNK         0.0600 
    153 H153        0.1694  -17.4940  -41.4073 H         1 UNK         0.0600 
    154 H154        1.7047  -17.1672  -43.3869 H         1 UNK         0.3000 
    155 H155        3.0870  -18.5194  -46.2638 H         1 UNK         0.0600 
    156 H156        4.1633  -16.3311  -46.8198 H         1 UNK         0.0600 
    157 H157        2.8478  -15.4775  -46.0088 H         1 UNK         0.0600 
    158 H158        2.5310  -16.4381  -47.4492 H         1 UNK         0.0600 
    159 H159        4.4094  -16.8499  -44.4794 H         1 UNK         0.3000 
    160 H160        5.9097  -19.0279  -43.0078 H         1 UNK         0.0600 
    161 H161        6.3022  -16.9375  -41.6441 H         1 UNK         0.0600 
    162 H162        4.7167  -16.3459  -42.1249 H         1 UNK         0.0600 
    163 H163        5.9790  -16.6007  -43.3300 H         1 UNK         0.0600 
    164 H164        3.9658  -18.4528  -40.8187 H         1 UNK         0.3000 
    165 H165        4.1803  -21.5257  -39.4039 H         1 UNK         0.0600 
    166 H166        5.4482  -20.8099  -37.3786 H         1 UNK         0.0600 
    167 H167        6.5410  -21.2234  -38.6886 H         1 UNK         0.0600 
    168 H168        6.2367  -19.5331  -38.3060 H         1 UNK         0.0600 
    169 H169        3.9043  -18.7738  -38.3705 H         1 UNK         0.3000 
    170 H170        0.5223  -18.4893  -39.2288 H         1 UNK         0.0600 
    171 H171        0.2604  -19.9052  -37.1848 H         1 UNK         0.0600 
    172 H172        1.5663  -19.0265  -36.3986 H         1 UNK         0.0600 
    173 H173        0.0636  -18.2005  -36.8146 H         1 UNK         0.0600 
    174 H174        2.0085  -16.8368  -37.5341 H         1 UNK         0.3000 
    175 H175        2.5485  -14.7657  -38.3477 H         1 UNK         0.0600 
    176 H176        5.1804  -15.7388  -39.6047 H         1 UNK         0.0600 
    177 H177        5.0002  -14.3207  -38.5724 H         1 UNK         0.0600 
    178 H178        4.7226  -15.9255  -37.9169 H         1 UNK         0.0600 
    179 H179        3.8037  -14.1500  -40.8737 H         1 UNK         0.3000 
    180 H180        2.3310  -12.2524  -42.0887 H         1 UNK         0.0600 
    181 H181        2.0968  -15.0510  -43.3601 H         1 UNK         0.0600 
    182 H182        3.6019  -14.2166  -43.0012 H         1 UNK         0.0600 
    183 H183        2.5434  -13.5985  -44.2458 H         1 UNK         0.0600 
    184 H184       -0.2341  -13.3946  -41.9878 H         1 UNK         0.3000 
    185 H185       -1.9802  -12.9683  -43.3432 H         1 UNK         0.0600 
    186 H186       -1.8572  -10.7723  -42.1791 H         1 UNK         0.0600 
    187 H187       -1.5847   -9.9451  -43.7081 H         1 UNK         0.0600 
    188 H188       -3.1231  -10.7494  -43.3974 H         1 UNK         0.0600 
    189 H189       -1.6327  -11.2975  -45.7712 H         1 UNK         0.3000 
    190 H190       -0.9003  -19.2184  -46.6963 H         1 UNK         0.3000 
    191 H191       -3.0711  -19.0940  -48.5227 H         1 UNK         0.0600 
    192 H192       -2.5852  -17.6201  -45.8820 H         1 UNK         0.0600 
    193 H193       -3.7348  -17.1350  -47.1148 H         1 UNK         0.0600 
    194 H194       -2.0124  -17.1082  -47.4680 H         1 UNK         0.0600 
    195 H195       -2.8218  -21.0073  -45.6920 H         1 UNK         0.3000 
    196 H196       -5.7762  -21.2688  -45.3842 H         1 UNK         0.0600 
    197 H197       -5.2043  -22.5915  -43.3759 H         1 UNK         0.0600 
    198 H198       -4.4630  -21.0001  -43.2921 H         1 UNK         0.0600 
    199 H199       -3.4856  -22.4069  -43.6979 H         1 UNK         0.0600 
    200 H200       -2.7905  -23.1494  -46.1085 H         1 UNK         0.3000 
    201 H201       -4.0672  -25.6303  -46.5842 H         1 UNK         0.0600 
    202 H202       -1.6679  -25.4044  -46.0099 H         1 UNK         0.0600 
    203 H203       -1.3524  -24.5672  -47.5288 H         1 UNK         0.0600 
    204 H204       -1.8401  -26.2586  -47.5360 H         1 UNK         0.0600 
    205 H205       -3.2489  -22.9551  -48.8054 H         1 UNK         0.3000 
    206 H206       -4.7800  -24.2672  -51.0063 H         1 UNK         0.0600 
    207 H207       -3.1775  -23.2116  -52.5649 H         1 UNK         0.0600 
    208 H208       -2.2663  -22.5079  -51.2299 H         1 UNK         0.0600 
    209 H209       -2.2924  -24.2542  -51.4691 H         1 UNK         0.0600 
    210 H210       -5.7464  -22.5844  -52.4860 H         1 UNK         0.3000 
    211 H211       -6.0695  -19.8824  -51.6293 H         1 UNK         0.0600 
    212 H212       -8.4104  -21.8267  -51.1305 H         1 UNK         0.0600 
    213 H213       -8.5236  -20.0738  -51.0394 H         1 UNK         0.0600 
    214 H214       -7.5416  -20.9411  -49.8798 H         1 UNK         0.0600 
    215 H215       -7.9030  -18.8956  -52.9595 H         1 UNK         0.3000 
    216 H216       -8.8380  -18.3233  -54.8799 H         1 UNK         0.0600 
    217 H217      -10.3148  -20.0103  -55.9084 H         1 UNK         0.0600 
    218 H218      -10.3266  -20.2109  -54.1655 H         1 UNK         0.0600 
    219 H219       -9.3996  -21.3208  -55.1741 H         1 UNK         0.0600 
    220 H220       -5.9920  -18.8449  -55.0753 H         1 UNK         0.3000 
    221 H221       -4.2975  -18.8758  -56.4696 H         1 UNK         0.0600 
    222 H222       -6.2519  -18.4606  -58.7841 H         1 UNK         0.0600 
    223 H223       -5.6093  -17.1762  -57.7600 H         1 UNK         0.0600 
    224 H224       -4.5302  -18.1107  -58.7801 H         1 UNK         0.0600 
    225 H225       -5.8278  -21.4476  -55.8808 H         1 UNK         0.3000 
    226 H226       -4.8632  -23.1927  -58.0931 H         1 UNK         0.0600 
    227 H227       -6.3025  -24.8876  -57.0086 H         1 UNK         0.0600 
    228 H228       -6.6934  -23.7809  -55.6996 H         1 UNK         0.0600 
    229 H229       -7.2509  -23.4451  -57.3373 H         1 UNK         0.0600 
    230 H230       -3.5998  -25.0218  -57.5379 H         1 UNK         0.3000 
    231 H231       -1.8383  -26.0797  -56.7136 H         1 UNK         0.0600 
    232 H232       -3.5042  -26.7885  -54.9974 H         1 UNK         0.0600 
    233 H233       -3.0547  -25.4402  -53.9642 H         1 UNK         0.0600 
    234 H234       -1.8928  -26.7207  -54.3161 H         1 UNK         0.0600 
    235 H235       -0.9146  -24.9570  -53.7962 H         1 UNK         0.3000 
    236 H236        1.4150  -23.6169  -54.6991 H         1 UNK         0.0600 
    237 H237        1.2533  -24.8964  -52.5590 H         1 UNK         0.0600 
    238 H238        1.8170  -23.2579  -52.2808 H         1 UNK         0.0600 
    239 H239        0.1522  -23.6817  -51.9053 H         1 UNK         0.0600 
    240 H240       -1.7787  -22.3790  -54.1578 H         1 UNK         0.3000 
    241 H241       -0.9944  -19.5968  -53.8006 H         1 UNK         0.0600 
    242 H242       -1.0518  -21.6577  -56.6109 H         1 UNK         0.3800 
    243 H243       -1.1638  -20.3546  -57.7648 H         1 UNK         0.3800 
    244 H244       -3.2249  -20.8839  -53.0085 H         1 UNK         0.0800 
    245 H245       -3.8029  -20.4538  -54.5727 H         1 UNK         0.0800 
    246 H246       -3.8861  -18.0849  -50.8427 H         1 UNK         0.0800 
    247 H247       -3.3839  -19.7323  -51.0705 H         1 UNK         0.0800 
@<TRIPOS>BOND
     1    1    2 1    
     2    1  127 1    
     3    1  128 1    
     4    1  129 1    
     5    2    3 2    
     6    2    4 am   BACKBONE|DICT|INTERRES
     7    4    5 1    
     8    4  130 1    
     9    5    6 1    
    10    5   65 1    
    11    5  131 1    
    12    6    7 1    
    13    6  132 1    
    14    6  133 1    
    15    7    8 1    
    16    8    9 1    
    17    8  134 1    
    18    8  135 1    
    19    9   10 ar   
    20    9   14 ar   
    21   10   11 ar   
    22   10  136 1    
    23   11   12 ar   
    24   11  126 1    
    25   12   13 ar   
    26   12  137 1    
    27   13   14 ar   
    28   13   15 1    
    29   14  138 1    
    30   15   16 1    
    31   15  139 1    
    32   15  140 1    
    33   16   17 1    
    34   17   18 1    
    35   17  141 1    
    36   17  142 1    
    37   18   19 1    
    38   18   67 1    
    39   18  143 1    
    40   19   20 am   BACKBONE|DICT|INTERRES
    41   19  144 1    
    42   20   21 2    
    43   20   22 1    
    44   22   23 1    
    45   22   24 1    
    46   22  145 1    
    47   23  146 1    
    48   23  147 1    
    49   23  148 1    
    50   24   25 am   BACKBONE|DICT|INTERRES
    51   24  149 1    
    52   25   26 2    
    53   25   27 1    
    54   27   28 1    
    55   27   29 1    
    56   27  150 1    
    57   28  151 1    
    58   28  152 1    
    59   28  153 1    
    60   29   30 am   BACKBONE|DICT|INTERRES
    61   29  154 1    
    62   30   31 2    
    63   30   32 1    
    64   32   33 1    
    65   32   34 1    
    66   32  155 1    
    67   33  156 1    
    68   33  157 1    
    69   33  158 1    
    70   34   35 am   BACKBONE|DICT|INTERRES
    71   34  159 1    
    72   35   36 2    
    73   35   37 1    
    74   37   38 1    
    75   37   39 1    
    76   37  160 1    
    77   38  161 1    
    78   38  162 1    
    79   38  163 1    
    80   39   40 am   BACKBONE|DICT|INTERRES
    81   39  164 1    
    82   40   41 2    
    83   40   42 1    
    84   42   43 1    
    85   42   44 1    
    86   42  165 1    
    87   43  166 1    
    88   43  167 1    
    89   43  168 1    
    90   44   45 am   BACKBONE|DICT|INTERRES
    91   44  169 1    
    92   45   46 2    
    93   45   47 1    
    94   47   48 1    
    95   47   49 1    
    96   47  170 1    
    97   48  171 1    
    98   48  172 1    
    99   48  173 1    
   100   49   50 am   BACKBONE|DICT|INTERRES
   101   49  174 1    
   102   50   51 2    
   103   50   52 1    
   104   52   53 1    
   105   52   54 1    
   106   52  175 1    
   107   53  176 1    
   108   53  177 1    
   109   53  178 1    
   110   54   55 am   BACKBONE|DICT|INTERRES
   111   54  179 1    
   112   55   56 2    
   113   55   57 1    
   114   57   58 1    
   115   57   59 1    
   116   57  180 1    
   117   58  181 1    
   118   58  182 1    
   119   58  183 1    
   120   59   60 am   BACKBONE|DICT|INTERRES
   121   59  184 1    
   122   60   61 2    
   123   60   62 1    
   124   62   63 1    
   125   62   64 1    
   126   62  185 1    
   127   63  186 1    
   128   63  187 1    
   129   63  188 1    
   130   64   65 am   BACKBONE|DICT|INTERRES
   131   64  189 1    
   132   65   66 2    
   133   67   68 2    
   134   67   69 am   BACKBONE|DICT|INTERRES
   135   69   70 1    
   136   69  190 1    
   137   70   71 1    
   138   70   72 1    
   139   70  191 1    
   140   71  192 1    
   141   71  193 1    
   142   71  194 1    
   143   72   73 2    
   144   72   74 am   BACKBONE|DICT|INTERRES
   145   74   75 1    
   146   74  195 1    
   147   75   76 1    
   148   75   77 1    
   149   75  196 1    
   150   76  197 1    
   151   76  198 1    
   152   76  199 1    
   153   77   78 2    
   154   77   79 am   BACKBONE|DICT|INTERRES
   155   79   80 1    
   156   79  200 1    
   157   80   81 1    
   158   80   82 1    
   159   80  201 1    
   160   81  202 1    
   161   81  203 1    
   162   81  204 1    
   163   82   83 2    
   164   82   84 am   BACKBONE|DICT|INTERRES
   165   84   85 1    
   166   84  205 1    
   167   85   86 1    
   168   85   87 1    
   169   85  206 1    
   170   86  207 1    
   171   86  208 1    
   172   86  209 1    
   173   87   88 2    
   174   87   89 am   BACKBONE|DICT|INTERRES
   175   89   90 1    
   176   89  210 1    
   177   90   91 1    
   178   90   92 1    
   179   90  211 1    
   180   91  212 1    
   181   91  213 1    
   182   91  214 1    
   183   92   93 2    
   184   92   94 am   BACKBONE|DICT|INTERRES
   185   94   95 1    
   186   94  215 1    
   187   95   96 1    
   188   95   97 1    
   189   95  216 1    
   190   96  217 1    
   191   96  218 1    
   192   96  219 1    
   193   97   98 2    
   194   97   99 am   BACKBONE|DICT|INTERRES
   195   99  100 1    
   196   99  220 1    
   197  100  101 1    
   198  100  102 1    
   199  100  221 1    
   200  101  222 1    
   201  101  223 1    
   202  101  224 1    
   203  102  103 2    
   204  102  104 am   BACKBONE|DICT|INTERRES
   205  104  105 1    
   206  104  225 1    
   207  105  106 1    
   208  105  107 1    
   209  105  226 1    
   210  106  227 1    
   211  106  228 1    
   212  106  229 1    
   213  107  108 2    
   214  107  109 am   BACKBONE|DICT|INTERRES
   215  109  110 1    
   216  109  230 1    
   217  110  111 1    
   218  110  112 1    
   219  110  231 1    
   220  111  232 1    
   221  111  233 1    
   222  111  234 1    
   223  112  113 2    
   224  112  114 am   BACKBONE|DICT|INTERRES
   225  114  115 1    
   226  114  235 1    
   227  115  116 1    
   228  115  117 1    
   229  115  236 1    
   230  116  237 1    
   231  116  238 1    
   232  116  239 1    
   233  117  118 2    
   234  117  119 am   BACKBONE|DICT|INTERRES
   235  119  120 1    
   236  119  240 1    
   237  120  121 1    
   238  120  124 1    
   239  120  241 1    
   240  121  122 am   BACKBONE|DICT|INTERRES
   241  121  123 2    
   242  122  242 1    
   243  122  243 1    
   244  124  125 1    
   245  124  244 1    
   246  124  245 1    
   247  125  126 1    
   248  126  246 1    
   249  126  247 1    
@<TRIPOS>SUBSTRUCTURE
     1 UNK         1 GROUP             0       ****    0 ROOT    
