@<TRIPOS>MOLECULE
3R540
247   249    1
SMALL
USER_CHARGES


@<TRIPOS>ATOM
      1 CA          0.4663  -11.7226  -46.2805 C.3       0 UNK        -0.1800 
      2 C          -0.5978  -12.7956  -46.4523 C.2       0 UNK         0.5000 
      3 O          -1.4384  -12.9693  -45.5688 O.2       0 UNK        -0.5000 
      4 N          -0.5803  -13.5013  -47.5927 N.am      1 UNK        -0.5000 
      5 CA         -1.5040  -14.5860  -47.9592 C.3       1 UNK         0.1400 
      6 C6         -1.1994  -15.1467  -49.3696 C.3       23 UNK        -0.0398 
      7 S7          0.4009  -16.0192  -49.4712 S.3       23 UNK        -0.2404 
      8 C8          0.0572  -17.0945  -50.9005 C.3       23 UNK        -0.0205 
      9 C9          1.1447  -18.1280  -51.1518 C.ar      23 UNK        -0.0193 
     10 C10         1.8298  -18.1533  -52.3695 C.ar      23 UNK        -0.1150 
     11 C11         2.7236  -19.1895  -52.6577 C.ar      23 UNK        -0.0193 
     12 C12         2.9476  -20.1909  -51.7079 C.ar      23 UNK        -0.1150 
     13 C13         2.2891  -20.1638  -50.4758 C.ar      23 UNK        -0.0193 
     14 C14         1.3958  -19.1243  -50.2052 C.ar      23 UNK        -0.1150 
     15 C15         2.5539  -21.2506  -49.4421 C.3       23 UNK        -0.0205 
     16 S16         1.1251  -22.3588  -49.1954 S.3       23 UNK        -0.2404 
     17 C17         0.1921  -21.4736  -47.9014 C.3       23 UNK        -0.0398 
     18 CA         -0.6338  -22.4130  -46.9927 C.3       11 UNK         0.1400 
     19 N           0.1722  -23.4206  -46.3035 N.am      11 UNK        -0.5000 
     20 C          -0.3358  -24.5158  -45.7204 C.2       10 UNK         0.5000 
     21 O          -1.5280  -24.8201  -45.7541 O.2       10 UNK        -0.5000 
     22 CA          0.6505  -25.3916  -44.9277 C.3       10 UNK         0.1400 
     23 CB          1.3965  -26.3509  -45.8671 C.3       10 UNK        -0.1800 
     24 N           1.6214  -24.5977  -44.1722 N.am      10 UNK        -0.5000 
     25 C           1.3081  -23.7776  -43.1586 C.2       9 UNK         0.5000 
     26 O           0.1668  -23.6323  -42.7224 O.2       9 UNK        -0.5000 
     27 CA          2.4569  -22.9425  -42.5647 C.3       9 UNK         0.1400 
     28 CB          3.1627  -23.7196  -41.4439 C.3       9 UNK        -0.1800 
     29 N           3.4461  -22.5173  -43.5589 N.am      9 UNK        -0.5000 
     30 C           3.1898  -21.7280  -44.6098 C.2       8 UNK         0.5000 
     31 O           2.0681  -21.2985  -44.8980 O.2       8 UNK        -0.5000 
     32 CA          4.3803  -21.4065  -45.5178 C.3       8 UNK         0.1400 
     33 CB          4.5670  -22.5057  -46.5777 C.3       8 UNK        -0.1800 
     34 N           4.1348  -20.1237  -46.1649 N.am      8 UNK        -0.5000 
     35 C           5.0775  -19.2454  -46.5239 C.2       7 UNK         0.5000 
     36 O           6.2844  -19.4641  -46.4089 O.2       7 UNK        -0.5000 
     37 CA          4.6170  -17.8944  -47.1138 C.3       7 UNK         0.1400 
     38 CB          4.9193  -17.8379  -48.6202 C.3       7 UNK        -0.1800 
     39 N           3.2005  -17.5719  -46.9161 N.am      7 UNK        -0.5000 
     40 C           2.6054  -17.3298  -45.7406 C.2       6 UNK         0.5000 
     41 O           3.1701  -17.4252  -44.6488 O.2       6 UNK        -0.5000 
     42 CA          1.1159  -16.9496  -45.8304 C.3       6 UNK         0.1400 
     43 CB          0.2672  -18.1515  -46.2627 C.3       6 UNK        -0.1800 
     44 N           0.5560  -16.4428  -44.5849 N.am      6 UNK        -0.5000 
     45 C           0.8139  -15.2512  -44.0378 C.2       5 UNK         0.5000 
     46 O           1.6719  -14.4718  -44.4555 O.2       5 UNK        -0.5000 
     47 CA         -0.1318  -14.8465  -42.8905 C.3       5 UNK         0.1400 
     48 CB          0.1376  -13.4265  -42.3613 C.3       5 UNK        -0.1800 
     49 N          -1.5133  -14.9147  -43.3699 N.am      5 UNK        -0.5000 
     50 C          -2.3081  -15.9926  -43.3216 C.2       4 UNK         0.5000 
     51 O          -1.9650  -17.0491  -42.7920 O.2       4 UNK        -0.5000 
     52 CA         -3.6687  -15.9140  -44.0492 C.3       4 UNK         0.1400 
     53 CB         -4.7924  -16.6523  -43.2932 C.3       4 UNK        -0.1800 
     54 N          -4.0690  -14.5519  -44.4213 N.am      4 UNK        -0.5000 
     55 C          -4.3826  -13.5297  -43.6080 C.2       3 UNK         0.5000 
     56 O          -4.4655  -13.6326  -42.3838 O.2       3 UNK        -0.5000 
     57 CA         -4.6029  -12.1492  -44.2622 C.3       3 UNK         0.1400 
     58 CB         -3.7196  -11.0804  -43.5946 C.3       3 UNK        -0.1800 
     59 N          -4.2927  -12.1689  -45.6927 N.am      3 UNK        -0.5000 
     60 C          -5.1926  -12.2164  -46.6835 C.2       2 UNK         0.5000 
     61 O          -6.4102  -12.1865  -46.5030 O.2       2 UNK        -0.5000 
     62 CA         -4.6458  -12.3342  -48.1225 C.3       2 UNK         0.1400 
     63 CB         -4.6256  -10.9560  -48.8012 C.3       2 UNK        -0.1800 
     64 N          -3.3051  -12.9225  -48.2074 N.am      2 UNK        -0.5000 
     65 C          -2.9921  -14.1810  -47.8661 C.2       1 UNK         0.5000 
     66 O          -3.8121  -14.9930  -47.4390 O.2       1 UNK        -0.5000 
     67 C          -1.4599  -21.5979  -45.9825 C.2       11 UNK         0.5000 
     68 O          -2.6368  -21.3521  -46.2356 O.2       11 UNK        -0.5000 
     69 N          -0.8481  -21.2155  -44.8521 N.am      12 UNK        -0.5000 
     70 CA         -1.4846  -20.4437  -43.7819 C.3       12 UNK         0.1400 
     71 CB         -0.4380  -20.0662  -42.7229 C.3       12 UNK        -0.1800 
     72 C          -2.6734  -21.1848  -43.1457 C.2       12 UNK         0.5000 
     73 O          -3.7475  -20.6008  -43.0024 O.2       12 UNK        -0.5000 
     74 N          -2.4811  -22.4772  -42.8447 N.am      13 UNK        -0.5000 
     75 CA         -3.5095  -23.3803  -42.3210 C.3       13 UNK         0.1400 
     76 CB         -2.8586  -24.7216  -41.9515 C.3       13 UNK        -0.1800 
     77 C          -4.6834  -23.6043  -43.2946 C.2       13 UNK         0.5000 
     78 O          -5.8152  -23.7960  -42.8491 O.2       13 UNK        -0.5000 
     79 N          -4.3966  -23.5520  -44.6012 N.am      14 UNK        -0.5000 
     80 CA         -5.3752  -23.6582  -45.6824 C.3       14 UNK         0.1400 
     81 CB         -4.6726  -24.2532  -46.9133 C.3       14 UNK        -0.1800 
     82 C          -6.0360  -22.3115  -46.0411 C.2       14 UNK         0.5000 
     83 O          -6.8872  -22.2912  -46.9291 O.2       14 UNK        -0.5000 
     84 N          -5.6162  -21.2092  -45.3990 N.am      15 UNK        -0.5000 
     85 CA         -6.0037  -19.8222  -45.6873 C.3       15 UNK         0.1400 
     86 CB         -7.4740  -19.5685  -45.2973 C.3       15 UNK        -0.1800 
     87 C          -5.6754  -19.4150  -47.1414 C.2       15 UNK         0.5000 
     88 O          -6.5000  -18.8084  -47.8258 O.2       15 UNK        -0.5000 
     89 N          -4.4715  -19.8072  -47.5802 N.am      16 UNK        -0.5000 
     90 CA         -3.8548  -19.6362  -48.8976 C.3       16 UNK         0.1400 
     91 CB         -3.8174  -18.1570  -49.3269 C.3       16 UNK        -0.1800 
     92 C          -4.4154  -20.5508  -50.0040 C.2       16 UNK         0.5000 
     93 O          -3.8575  -20.5506  -51.0994 O.2       16 UNK        -0.5000 
     94 N          -5.4502  -21.3576  -49.7233 N.am      17 UNK        -0.5000 
     95 CA         -6.1052  -22.2272  -50.7102 C.3       17 UNK         0.1400 
     96 CB         -7.3887  -22.8134  -50.1049 C.3       17 UNK        -0.1800 
     97 C          -5.2100  -23.3559  -51.2627 C.2       17 UNK         0.5000 
     98 O          -5.4674  -23.8451  -52.3623 O.2       17 UNK        -0.5000 
     99 N          -4.1729  -23.7397  -50.5065 N.am      18 UNK        -0.5000 
    100 CA        -3.1865  -24.7480  -50.9002 C.3       18 UNK         0.1400 
    101 CB        -2.5744  -25.3674  -49.6334 C.3       18 UNK        -0.1800 
    102 C         -2.0774  -24.1986  -51.8214 C.2       18 UNK         0.5000 
    103 O         -1.3453  -24.9978  -52.4060 O.2       18 UNK        -0.5000 
    104 N         -1.9489  -22.8669  -51.9225 N.am      19 UNK        -0.5000 
    105 CA        -0.9257  -22.1868  -52.7173 C.3       19 UNK         0.1400 
    106 CB        -0.8756  -20.6955  -52.3649 C.3       19 UNK        -0.1800 
    107 C         -1.0063  -22.4261  -54.2441 C.2       19 UNK         0.5000 
    108 O          0.0126  -22.7992  -54.8215 O.2       19 UNK        -0.5000 
    109 N         -2.1466  -22.2629  -54.9379 N.am      20 UNK        -0.5000 
    110 CA        -3.4503  -21.7331  -54.5188 C.3       20 UNK         0.1400 
    111 CB        -4.5381  -22.4517  -55.3327 C.3       20 UNK        -0.1800 
    112 C         -3.5736  -20.2061  -54.6941 C.2       20 UNK         0.5000 
    113 O         -4.5942  -19.6408  -54.3007 O.2       20 UNK        -0.5000 
    114 N         -2.5467  -19.5631  -55.2663 N.am      21 UNK        -0.5000 
    115 CA        -2.4528  -18.1112  -55.4201 C.3       21 UNK         0.1400 
    116 CB        -3.4286  -17.5999  -56.4991 C.3       21 UNK        -0.1800 
    117 C         -1.0172  -17.6843  -55.7530 C.2       21 UNK         0.5000 
    118 O         -0.5338  -16.7052  -55.1851 O.2       21 UNK        -0.5000 
    119 N         -0.3759  -18.4174  -56.6761 N.am      22 UNK        -0.5000 
    120 CA         0.9553  -18.1241  -57.2475 C.3       22 UNK         0.1400 
    121 C          0.9990  -16.8637  -58.1697 C.2       22 UNK         0.5000 
    122 N         -0.1293  -16.3408  -58.6348 N.am      22 UNK        -0.7600 
    123 O          2.0718  -16.3661  -58.5017 O.2       22 UNK        -0.5000 
    124 C124        2.1051  -18.1258  -56.1996 C.3       23 UNK        -0.0398 
    125 S125        2.2910  -19.7221  -55.3384 S.3       23 UNK        -0.2404 
    126 C126        3.4324  -19.2449  -54.0014 C.3       23 UNK        -0.0205 
    127 H127       -0.0030  -10.7450  -46.1719 H         1 UNK         0.0600 
    128 H128        1.1450  -11.6843  -47.1327 H         1 UNK         0.0600 
    129 H129        1.0556  -11.9196  -45.3853 H         1 UNK         0.0600 
    130 H130        0.1451  -13.3116  -48.2697 H         1 UNK         0.3000 
    131 H131       -1.3566  -15.3873  -47.2320 H         1 UNK         0.0600 
    132 H132       -1.2073  -14.3472  -50.1126 H         1 UNK         0.0800 
    133 H133       -1.9815  -15.8441  -49.6728 H         1 UNK         0.0800 
    134 H134       -0.0941  -16.4714  -51.7837 H         1 UNK         0.0800 
    135 H135       -0.8790  -17.6294  -50.7382 H         1 UNK         0.0800 
    136 H136        1.6321  -17.3945  -53.1132 H         1 UNK         0.1150 
    137 H137        3.6337  -20.9959  -51.9306 H         1 UNK         0.1150 
    138 H138        0.8587  -19.1093  -49.2740 H         1 UNK         0.1150 
    139 H139        3.4050  -21.8602  -49.7491 H         1 UNK         0.0800 
    140 H140        2.8461  -20.7877  -48.5012 H         1 UNK         0.0800 
    141 H141       -0.4679  -20.7624  -48.3999 H         1 UNK         0.0800 
    142 H142        0.8874  -20.8888  -47.2991 H         1 UNK         0.0800 
    143 H143       -1.3461  -22.9369  -47.6317 H         1 UNK         0.0600 
    144 H144        1.1556  -23.2206  -46.2002 H         1 UNK         0.3000 
    145 H145        0.0717  -25.9856  -44.2171 H         1 UNK         0.0600 
    146 H146        2.0427  -27.0275  -45.3077 H         1 UNK         0.0600 
    147 H147        0.6953  -26.9661  -46.4327 H         1 UNK         0.0600 
    148 H148        2.0151  -25.8127  -46.5866 H         1 UNK         0.0600 
    149 H149        2.5860  -24.6565  -44.4623 H         1 UNK         0.3000 
    150 H150        2.0213  -22.0423  -42.1286 H         1 UNK         0.0600 
    151 H151        2.4517  -24.0304  -40.6770 H         1 UNK         0.0600 
    152 H152        3.9187  -23.1059  -40.9536 H         1 UNK         0.0600 
    153 H153        3.6519  -24.6183  -41.8217 H         1 UNK         0.0600 
    154 H154        4.3928  -22.8350  -43.4077 H         1 UNK         0.3000 
    155 H155        5.2778  -21.3376  -44.8992 H         1 UNK         0.0600 
    156 H156        3.6558  -22.6736  -47.1518 H         1 UNK         0.0600 
    157 H157        4.8368  -23.4541  -46.1119 H         1 UNK         0.0600 
    158 H158        5.3629  -22.2515  -47.2779 H         1 UNK         0.0600 
    159 H159        3.1621  -19.8520  -46.2042 H         1 UNK         0.3000 
    160 H160        5.2028  -17.1163  -46.6202 H         1 UNK         0.0600 
    161 H161        4.3548  -18.5894  -49.1723 H         1 UNK         0.0600 
    162 H162        5.9776  -18.0158  -48.8157 H         1 UNK         0.0600 
    163 H163        4.6742  -16.8612  -49.0379 H         1 UNK         0.0600 
    164 H164        2.6572  -17.4689  -47.7613 H         1 UNK         0.3000 
    165 H165        1.0169  -16.1598  -46.5770 H         1 UNK         0.0600 
    166 H166       -0.7977  -17.9170  -46.2664 H         1 UNK         0.0600 
    167 H167        0.5270  -18.4670  -47.2682 H         1 UNK         0.0600 
    168 H168        0.4288  -18.9990  -45.5993 H         1 UNK         0.0600 
    169 H169       -0.1475  -17.0157  -44.1386 H         1 UNK         0.3000 
    170 H170        0.0178  -15.5493  -42.0684 H         1 UNK         0.0600 
    171 H171        1.1569  -13.3360  -41.9842 H         1 UNK         0.0600 
    172 H172        0.0043  -12.6734  -43.1387 H         1 UNK         0.0600 
    173 H173       -0.5363  -13.1799  -41.5407 H         1 UNK         0.0600 
    174 H174       -1.8138  -14.1250  -43.9314 H         1 UNK         0.3000 
    175 H175       -3.5205  -16.4404  -44.9932 H         1 UNK         0.0600 
    176 H176       -4.9647  -16.2287  -42.3038 H         1 UNK         0.0600 
    177 H177       -5.7313  -16.6129  -43.8455 H         1 UNK         0.0600 
    178 H178       -4.5437  -17.7052  -43.1538 H         1 UNK         0.0600 
    179 H179       -4.0435  -14.3651  -45.4169 H         1 UNK         0.3000 
    180 H180       -5.6478  -11.8770  -44.1014 H         1 UNK         0.0600 
    181 H181       -3.8716  -10.1026  -44.0518 H         1 UNK         0.0600 
    182 H182       -2.6599  -11.3265  -43.6744 H         1 UNK         0.0600 
    183 H183       -3.9545  -10.9806  -42.5343 H         1 UNK         0.0600 
    184 H184       -3.3065  -12.2404  -45.9209 H         1 UNK         0.3000 
    185 H185       -5.3294  -12.9796  -48.6780 H         1 UNK         0.0600 
    186 H186       -4.3229  -11.0342  -49.8455 H         1 UNK         0.0600 
    187 H187       -5.6152  -10.4973  -48.7850 H         1 UNK         0.0600 
    188 H188       -3.9387  -10.2720  -48.3013 H         1 UNK         0.0600 
    189 H189       -2.5644  -12.3126  -48.5222 H         1 UNK         0.3000 
    190 H190        0.1378  -21.4298  -44.7342 H         1 UNK         0.3000 
    191 H191       -1.8673  -19.5211  -44.2235 H         1 UNK         0.0600 
    192 H192       -0.8760  -19.4260  -41.9565 H         1 UNK         0.0600 
    193 H193        0.3976  -19.5218  -43.1631 H         1 UNK         0.0600 
    194 H194       -0.0394  -20.9455  -42.2195 H         1 UNK         0.0600 
    195 H195       -1.5521  -22.8743  -42.9657 H         1 UNK         0.3000 
    196 H196       -3.9154  -22.9326  -41.4117 H         1 UNK         0.0600 
    197 H197       -2.3990  -25.1960  -42.8198 H         1 UNK         0.0600 
    198 H198       -2.0849  -24.5888  -41.1951 H         1 UNK         0.0600 
    199 H199       -3.5944  -25.4170  -41.5457 H         1 UNK         0.0600 
    200 H200       -3.4358  -23.4022  -44.8797 H         1 UNK         0.3000 
    201 H201       -6.1715  -24.3425  -45.3828 H         1 UNK         0.0600 
    202 H202       -3.8809  -23.5991  -47.2787 H         1 UNK         0.0600 
    203 H203       -5.3753  -24.4132  -47.7317 H         1 UNK         0.0600 
    204 H204       -4.2249  -25.2195  -46.6801 H         1 UNK         0.0600 
    205 H205       -4.9002  -21.3174  -44.6904 H         1 UNK         0.3000 
    206 H206       -5.3811  -19.1941  -45.0490 H         1 UNK         0.0600 
    207 H207       -7.6589  -19.8482  -44.2602 H         1 UNK         0.0600 
    208 H208       -7.7267  -18.5124  -45.3981 H         1 UNK         0.0600 
    209 H209       -8.1648  -20.1315  -45.9255 H         1 UNK         0.0600 
    210 H210       -3.8993  -20.3512  -46.9338 H         1 UNK         0.3000 
    211 H211       -2.8190  -19.9511  -48.7664 H         1 UNK         0.0600 
    212 H212       -3.2324  -18.0303  -50.2380 H         1 UNK         0.0600 
    213 H213       -3.3606  -17.5385  -48.5547 H         1 UNK         0.0600 
    214 H214       -4.8133  -17.7629  -49.5289 H         1 UNK         0.0600 
    215 H215       -5.8649  -21.3239  -48.8006 H         1 UNK         0.3000 
    216 H216       -6.3897  -21.6000  -51.5579 H         1 UNK         0.0600 
    217 H217       -7.1700  -23.5007  -49.2874 H         1 UNK         0.0600 
    218 H218       -7.9540  -23.3689  -50.8542 H         1 UNK         0.0600 
    219 H219       -8.0412  -22.0293  -49.7204 H         1 UNK         0.0600 
    220 H220       -4.0369  -23.2863  -49.6163 H         1 UNK         0.3000 
    221 H221       -3.6951  -25.5442  -51.4479 H         1 UNK         0.0600 
    222 H222       -3.3390  -25.8362  -49.0144 H         1 UNK         0.0600 
    223 H223       -2.0575  -24.6239  -49.0281 H         1 UNK         0.0600 
    224 H224       -1.8490  -26.1416  -49.8865 H         1 UNK         0.0600 
    225 H225       -2.6164  -22.2706  -51.4495 H         1 UNK         0.3000 
    226 H226        0.0317  -22.6030  -52.3948 H         1 UNK         0.0600 
    227 H227       -1.8065  -20.1778  -52.5761 H         1 UNK         0.0600 
    228 H228       -0.6654  -20.5601  -51.3053 H         1 UNK         0.0600 
    229 H229       -0.0889  -20.1929  -52.9272 H         1 UNK         0.0600 
    230 H230       -2.1035  -22.4931  -55.9196 H         1 UNK         0.3000 
    231 H231       -3.6442  -21.9419  -53.4712 H         1 UNK         0.0600 
    232 H232       -4.4391  -22.2585  -56.4015 H         1 UNK         0.0600 
    233 H233       -5.5343  -22.1265  -55.0295 H         1 UNK         0.0600 
    234 H234       -4.4945  -23.5302  -55.1787 H         1 UNK         0.0600 
    235 H235       -1.7243  -20.0950  -55.5133 H         1 UNK         0.3000 
    236 H236       -2.7136  -17.6487  -54.4655 H         1 UNK         0.0600 
    237 H237       -4.4669  -17.7582  -56.2088 H         1 UNK         0.0600 
    238 H238       -3.3045  -16.5286  -56.6628 H         1 UNK         0.0600 
    239 H239       -3.2706  -18.1005  -57.4548 H         1 UNK         0.0600 
    240 H240       -0.8718  -19.1743  -57.1227 H         1 UNK         0.3000 
    241 H241        1.1560  -18.9503  -57.9304 H         1 UNK         0.0600 
    242 H242       -0.0877  -15.5348  -59.2390 H         1 UNK         0.3800 
    243 H243       -1.0214  -16.7407  -58.3951 H         1 UNK         0.3800 
    244 H244        1.9630  -17.3291  -55.4699 H         1 UNK         0.0800 
    245 H245        3.0617  -17.9209  -56.6830 H         1 UNK         0.0800 
    246 H246        4.2487  -19.9680  -53.9708 H         1 UNK         0.0800 
    247 H247        3.8953  -18.2798  -54.2118 H         1 UNK         0.0800 
@<TRIPOS>BOND
     1    1    2 1    
     2    1  127 1    
     3    1  128 1    
     4    1  129 1    
     5    2    3 2    
     6    2    4 am   BACKBONE|DICT|INTERRES
     7    4    5 1    
     8    4  130 1    
     9    5    6 1    
    10    5   65 1    
    11    5  131 1    
    12    6    7 1    
    13    6  132 1    
    14    6  133 1    
    15    7    8 1    
    16    8    9 1    
    17    8  134 1    
    18    8  135 1    
    19    9   10 ar   
    20    9   14 ar   
    21   10   11 ar   
    22   10  136 1    
    23   11   12 ar   
    24   11  126 1    
    25   12   13 ar   
    26   12  137 1    
    27   13   14 ar   
    28   13   15 1    
    29   14  138 1    
    30   15   16 1    
    31   15  139 1    
    32   15  140 1    
    33   16   17 1    
    34   17   18 1    
    35   17  141 1    
    36   17  142 1    
    37   18   19 1    
    38   18   67 1    
    39   18  143 1    
    40   19   20 am   BACKBONE|DICT|INTERRES
    41   19  144 1    
    42   20   21 2    
    43   20   22 1    
    44   22   23 1    
    45   22   24 1    
    46   22  145 1    
    47   23  146 1    
    48   23  147 1    
    49   23  148 1    
    50   24   25 am   BACKBONE|DICT|INTERRES
    51   24  149 1    
    52   25   26 2    
    53   25   27 1    
    54   27   28 1    
    55   27   29 1    
    56   27  150 1    
    57   28  151 1    
    58   28  152 1    
    59   28  153 1    
    60   29   30 am   BACKBONE|DICT|INTERRES
    61   29  154 1    
    62   30   31 2    
    63   30   32 1    
    64   32   33 1    
    65   32   34 1    
    66   32  155 1    
    67   33  156 1    
    68   33  157 1    
    69   33  158 1    
    70   34   35 am   BACKBONE|DICT|INTERRES
    71   34  159 1    
    72   35   36 2    
    73   35   37 1    
    74   37   38 1    
    75   37   39 1    
    76   37  160 1    
    77   38  161 1    
    78   38  162 1    
    79   38  163 1    
    80   39   40 am   BACKBONE|DICT|INTERRES
    81   39  164 1    
    82   40   41 2    
    83   40   42 1    
    84   42   43 1    
    85   42   44 1    
    86   42  165 1    
    87   43  166 1    
    88   43  167 1    
    89   43  168 1    
    90   44   45 am   BACKBONE|DICT|INTERRES
    91   44  169 1    
    92   45   46 2    
    93   45   47 1    
    94   47   48 1    
    95   47   49 1    
    96   47  170 1    
    97   48  171 1    
    98   48  172 1    
    99   48  173 1    
   100   49   50 am   BACKBONE|DICT|INTERRES
   101   49  174 1    
   102   50   51 2    
   103   50   52 1    
   104   52   53 1    
   105   52   54 1    
   106   52  175 1    
   107   53  176 1    
   108   53  177 1    
   109   53  178 1    
   110   54   55 am   BACKBONE|DICT|INTERRES
   111   54  179 1    
   112   55   56 2    
   113   55   57 1    
   114   57   58 1    
   115   57   59 1    
   116   57  180 1    
   117   58  181 1    
   118   58  182 1    
   119   58  183 1    
   120   59   60 am   BACKBONE|DICT|INTERRES
   121   59  184 1    
   122   60   61 2    
   123   60   62 1    
   124   62   63 1    
   125   62   64 1    
   126   62  185 1    
   127   63  186 1    
   128   63  187 1    
   129   63  188 1    
   130   64   65 am   BACKBONE|DICT|INTERRES
   131   64  189 1    
   132   65   66 2    
   133   67   68 2    
   134   67   69 am   BACKBONE|DICT|INTERRES
   135   69   70 1    
   136   69  190 1    
   137   70   71 1    
   138   70   72 1    
   139   70  191 1    
   140   71  192 1    
   141   71  193 1    
   142   71  194 1    
   143   72   73 2    
   144   72   74 am   BACKBONE|DICT|INTERRES
   145   74   75 1    
   146   74  195 1    
   147   75   76 1    
   148   75   77 1    
   149   75  196 1    
   150   76  197 1    
   151   76  198 1    
   152   76  199 1    
   153   77   78 2    
   154   77   79 am   BACKBONE|DICT|INTERRES
   155   79   80 1    
   156   79  200 1    
   157   80   81 1    
   158   80   82 1    
   159   80  201 1    
   160   81  202 1    
   161   81  203 1    
   162   81  204 1    
   163   82   83 2    
   164   82   84 am   BACKBONE|DICT|INTERRES
   165   84   85 1    
   166   84  205 1    
   167   85   86 1    
   168   85   87 1    
   169   85  206 1    
   170   86  207 1    
   171   86  208 1    
   172   86  209 1    
   173   87   88 2    
   174   87   89 am   BACKBONE|DICT|INTERRES
   175   89   90 1    
   176   89  210 1    
   177   90   91 1    
   178   90   92 1    
   179   90  211 1    
   180   91  212 1    
   181   91  213 1    
   182   91  214 1    
   183   92   93 2    
   184   92   94 am   BACKBONE|DICT|INTERRES
   185   94   95 1    
   186   94  215 1    
   187   95   96 1    
   188   95   97 1    
   189   95  216 1    
   190   96  217 1    
   191   96  218 1    
   192   96  219 1    
   193   97   98 2    
   194   97   99 am   BACKBONE|DICT|INTERRES
   195   99  100 1    
   196   99  220 1    
   197  100  101 1    
   198  100  102 1    
   199  100  221 1    
   200  101  222 1    
   201  101  223 1    
   202  101  224 1    
   203  102  103 2    
   204  102  104 am   BACKBONE|DICT|INTERRES
   205  104  105 1    
   206  104  225 1    
   207  105  106 1    
   208  105  107 1    
   209  105  226 1    
   210  106  227 1    
   211  106  228 1    
   212  106  229 1    
   213  107  108 2    
   214  107  109 am   BACKBONE|DICT|INTERRES
   215  109  110 1    
   216  109  230 1    
   217  110  111 1    
   218  110  112 1    
   219  110  231 1    
   220  111  232 1    
   221  111  233 1    
   222  111  234 1    
   223  112  113 2    
   224  112  114 am   BACKBONE|DICT|INTERRES
   225  114  115 1    
   226  114  235 1    
   227  115  116 1    
   228  115  117 1    
   229  115  236 1    
   230  116  237 1    
   231  116  238 1    
   232  116  239 1    
   233  117  118 2    
   234  117  119 am   BACKBONE|DICT|INTERRES
   235  119  120 1    
   236  119  240 1    
   237  120  121 1    
   238  120  124 1    
   239  120  241 1    
   240  121  122 am   BACKBONE|DICT|INTERRES
   241  121  123 2    
   242  122  242 1    
   243  122  243 1    
   244  124  125 1    
   245  124  244 1    
   246  124  245 1    
   247  125  126 1    
   248  126  246 1    
   249  126  247 1    
@<TRIPOS>SUBSTRUCTURE
     1 UNK         1 GROUP             0       ****    0 ROOT    
