@<TRIPOS>MOLECULE
3R540
247   249    1
SMALL
USER_CHARGES


@<TRIPOS>ATOM
      1 CA         -1.3192   -7.1117  -48.0366 C.3       0 UNK        -0.1800 
      2 C          -0.6672   -8.0963  -48.9977 C.2       0 UNK         0.5000 
      3 O           0.2439   -7.7179  -49.7349 O.2       0 UNK        -0.5000 
      4 N          -1.1389   -9.3484  -48.9954 N.am      1 UNK        -0.5000 
      5 CA         -0.6099  -10.4635  -49.7863 C.3       1 UNK         0.1400 
      6 C6         -1.7473  -11.3594  -50.3474 C.3       23 UNK        -0.0398 
      7 S7         -2.8546  -12.0619  -49.0748 S.3       23 UNK        -0.2404 
      8 C8         -3.6682  -13.3934  -50.0127 C.3       23 UNK        -0.0205 
      9 C9         -2.7613  -14.6029  -50.1787 C.ar      23 UNK        -0.0193 
     10 C10        -2.1359  -14.8669  -51.4012 C.ar      23 UNK        -0.1150 
     11 C11        -1.2942  -15.9751  -51.5467 C.ar      23 UNK        -0.0193 
     12 C12        -1.0926  -16.8276  -50.4550 C.ar      23 UNK        -0.1150 
     13 C13        -1.7169  -16.5751  -49.2299 C.ar      23 UNK        -0.0193 
     14 C14        -2.5475  -15.4608  -49.0983 C.ar      23 UNK        -0.1150 
     15 C15        -1.4560  -17.4681  -48.0300 C.3       23 UNK        -0.0205 
     16 S16        -2.9167  -18.4554  -47.5801 S.3       23 UNK        -0.2404 
     17 C17        -2.2924  -19.2557  -46.0705 C.3       23 UNK        -0.0398 
     18 CA         -1.8355  -20.7164  -46.3089 C.3       11 UNK         0.1400 
     19 N          -0.7216  -21.0750  -45.4283 N.am      11 UNK        -0.5000 
     20 C          -0.0440  -22.2302  -45.4475 C.2       10 UNK         0.5000 
     21 O          -0.2307  -23.1172  -46.2783 O.2       10 UNK        -0.5000 
     22 CA          0.9607  -22.4555  -44.2998 C.3       10 UNK         0.1400 
     23 CB          2.3608  -21.9519  -44.6788 C.3       10 UNK        -0.1800 
     24 N           0.5264  -21.8317  -43.0445 N.am      10 UNK        -0.5000 
     25 C          -0.5617  -22.2128  -42.3591 C.2       9 UNK         0.5000 
     26 O          -1.2813  -23.1478  -42.7173 O.2       9 UNK        -0.5000 
     27 CA         -0.9440  -21.3910  -41.1083 C.3       9 UNK         0.1400 
     28 CB         -1.7757  -22.2048  -40.0949 C.3       9 UNK        -0.1800 
     29 N           0.1820  -20.7365  -40.4343 N.am      9 UNK        -0.5000 
     30 C           1.2477  -21.3190  -39.8612 C.2       8 UNK         0.5000 
     31 O           1.4515  -22.5336  -39.8809 O.2       8 UNK        -0.5000 
     32 CA          2.2329  -20.4024  -39.0967 C.3       8 UNK         0.1400 
     33 CB          3.7067  -20.7727  -39.3677 C.3       8 UNK        -0.1800 
     34 N           1.9997  -18.9618  -39.2849 N.am      8 UNK        -0.5000 
     35 C           2.1450  -18.2615  -40.4176 C.2       7 UNK         0.5000 
     36 O           2.5564  -18.7414  -41.4749 O.2       7 UNK        -0.5000 
     37 CA          1.7246  -16.7795  -40.3601 C.3       7 UNK         0.1400 
     38 CB          2.9573  -15.8702  -40.2473 C.3       7 UNK        -0.1800 
     39 N           0.9599  -16.4027  -41.5469 N.am      7 UNK        -0.5000 
     40 C          -0.2126  -16.9411  -41.9120 C.2       6 UNK         0.5000 
     41 O          -0.8731  -17.6988  -41.1988 O.2       6 UNK        -0.5000 
     42 CA         -0.6793  -16.6406  -43.3497 C.3       6 UNK         0.1400 
     43 CB         -1.3476  -15.2620  -43.4489 C.3       6 UNK        -0.1800 
     44 N           0.4341  -16.7263  -44.2990 N.am      6 UNK        -0.5000 
     45 C           1.0918  -17.8633  -44.5713 C.2       5 UNK         0.5000 
     46 O           0.7130  -18.9660  -44.1761 O.2       5 UNK        -0.5000 
     47 CA          2.3749  -17.7648  -45.4135 C.3       5 UNK         0.1400 
     48 CB          2.0692  -18.0075  -46.8989 C.3       5 UNK        -0.1800 
     49 N           3.0265  -16.4641  -45.2534 N.am      5 UNK        -0.5000 
     50 C           4.0050  -16.2113  -44.3709 C.2       4 UNK         0.5000 
     51 O           4.5348  -17.0746  -43.6725 O.2       4 UNK        -0.5000 
     52 CA          4.4871  -14.7513  -44.2355 C.3       4 UNK         0.1400 
     53 CB          5.7776  -14.5364  -45.0410 C.3       4 UNK        -0.1800 
     54 N           3.4982  -13.7589  -44.6574 N.am      4 UNK        -0.5000 
     55 C           2.3335  -13.5173  -44.0402 C.2       3 UNK         0.5000 
     56 O           1.9827  -14.0789  -43.0032 O.2       3 UNK        -0.5000 
     57 CA          1.3724  -12.5345  -44.7407 C.3       3 UNK         0.1400 
     58 CB          1.5874  -11.1055  -44.2222 C.3       3 UNK        -0.1800 
     59 N           1.4930  -12.5400  -46.2025 N.am      3 UNK        -0.5000 
     60 C           1.3232  -13.6077  -46.9921 C.2       2 UNK         0.5000 
     61 O           1.0096  -14.7199  -46.5622 O.2       2 UNK        -0.5000 
     62 CA          1.5849  -13.3909  -48.4961 C.3       2 UNK         0.1400 
     63 CB          1.6756  -14.7152  -49.2709 C.3       2 UNK        -0.1800 
     64 N           0.5679  -12.5414  -49.1172 N.am      2 UNK        -0.5000 
     65 C           0.4985  -11.2078  -48.9994 C.2       1 UNK         0.5000 
     66 O           1.2962  -10.5629  -48.3122 O.2       1 UNK        -0.5000 
     67 C          -3.0209  -21.6934  -46.1667 C.2       11 UNK         0.5000 
     68 O          -3.5720  -22.1387  -47.1737 O.2       11 UNK        -0.5000 
     69 N          -3.3669  -22.0339  -44.9160 N.am      12 UNK        -0.5000 
     70 CA         -4.4310  -22.9788  -44.5760 C.3       12 UNK         0.1400 
     71 CB         -4.7758  -22.8625  -43.0847 C.3       12 UNK        -0.1800 
     72 C          -4.0598  -24.4243  -44.9446 C.2       12 UNK         0.5000 
     73 O          -4.9119  -25.1528  -45.4527 O.2       12 UNK        -0.5000 
     74 N          -2.7854  -24.7948  -44.7474 N.am      13 UNK        -0.5000 
     75 CA         -2.2146  -26.0721  -45.1887 C.3       13 UNK         0.1400 
     76 CB         -0.7907  -26.2205  -44.6330 C.3       13 UNK        -0.1800 
     77 C          -2.2294  -26.2338  -46.7236 C.2       13 UNK         0.5000 
     78 O          -2.4192  -27.3454  -47.2168 O.2       13 UNK        -0.5000 
     79 N          -2.0976  -25.1126  -47.4455 N.am      14 UNK        -0.5000 
     80 CA         -2.2637  -24.9964  -48.8950 C.3       14 UNK         0.1400 
     81 CB         -1.3928  -23.8354  -49.4069 C.3       14 UNK        -0.1800 
     82 C          -3.7380  -24.8320  -49.3313 C.2       14 UNK         0.5000 
     83 O          -3.9811  -24.4241  -50.4680 O.2       14 UNK        -0.5000 
     84 N          -4.6940  -25.1401  -48.4411 N.am      15 UNK        -0.5000 
     85 CA         -6.1459  -25.1219  -48.6469 C.3       15 UNK         0.1400 
     86 CB         -6.5596  -26.1792  -49.6930 C.3       15 UNK        -0.1800 
     87 C          -6.6855  -23.7120  -48.9573 C.2       15 UNK         0.5000 
     88 O          -7.4612  -23.5387  -49.8967 O.2       15 UNK        -0.5000 
     89 N          -6.2302  -22.7228  -48.1748 N.am      16 UNK        -0.5000 
     90 CA         -6.4698  -21.2831  -48.3424 C.3       16 UNK         0.1400 
     91 CB         -7.9621  -20.9328  -48.1648 C.3       16 UNK        -0.1800 
     92 C          -5.8653  -20.7691  -49.6648 C.2       16 UNK         0.5000 
     93 O          -6.5131  -20.0297  -50.4070 O.2       16 UNK        -0.5000 
     94 N          -4.6348  -21.2277  -49.9350 N.am      17 UNK        -0.5000 
     95 CA         -3.8203  -20.9991  -51.1319 C.3       17 UNK         0.1400 
     96 CB         -3.4955  -19.5036  -51.3076 C.3       17 UNK        -0.1800 
     97 C          -4.3712  -21.6227  -52.4328 C.2       17 UNK         0.5000 
     98 O          -3.8045  -21.3710  -53.4973 O.2       17 UNK        -0.5000 
     99 N          -5.4174  -22.4576  -52.3551 N.am      18 UNK        -0.5000 
    100 CA        -5.9994  -23.1501  -53.5079 C.3       18 UNK         0.1400 
    101 CB        -7.3372  -23.7894  -53.1124 C.3       18 UNK        -0.1800 
    102 C         -5.0569  -24.2033  -54.1198 C.2       18 UNK         0.5000 
    103 O         -5.0704  -24.3864  -55.3374 O.2       18 UNK        -0.5000 
    104 N         -4.2401  -24.8549  -53.2791 N.am      19 UNK        -0.5000 
    105 CA        -3.2107  -25.8019  -53.7112 C.3       19 UNK         0.1400 
    106 CB        -2.8516  -26.7356  -52.5457 C.3       19 UNK        -0.1800 
    107 C         -1.9511  -25.0880  -54.2362 C.2       19 UNK         0.5000 
    108 O         -1.2513  -25.6437  -55.0835 O.2       19 UNK        -0.5000 
    109 N         -1.6854  -23.8749  -53.7290 N.am      20 UNK        -0.5000 
    110 CA        -0.5885  -23.0144  -54.1744 C.3       20 UNK         0.1400 
    111 CB        -0.3080  -21.9401  -53.1103 C.3       20 UNK        -0.1800 
    112 C         -0.8859  -22.3682  -55.5394 C.2       20 UNK         0.5000 
    113 O          0.0145  -22.2759  -56.3743 O.2       20 UNK        -0.5000 
    114 N         -2.1456  -21.9457  -55.7324 N.am      21 UNK        -0.5000 
    115 CA        -2.7035  -21.3045  -56.9287 C.3       21 UNK         0.1400 
    116 CB        -2.7141  -22.2841  -58.1203 C.3       21 UNK        -0.1800 
    117 C         -2.0377  -19.9505  -57.2602 C.2       21 UNK         0.5000 
    118 O         -1.9469  -19.5707  -58.4291 O.2       21 UNK        -0.5000 
    119 N         -1.5813  -19.2482  -56.2167 N.am      22 UNK        -0.5000 
    120 CA        -0.8847  -17.9549  -56.2903 C.3       22 UNK         0.1400 
    121 C         -1.8091  -16.7147  -56.4761 C.2       22 UNK         0.5000 
    122 N         -3.1288  -16.8521  -56.4324 N.am      22 UNK        -0.7600 
    123 O         -1.3182  -15.6075  -56.6784 O.2       22 UNK        -0.5000 
    124 C124        0.0989  -17.7853  -55.1032 C.3       23 UNK        -0.0398 
    125 S125       -0.6985  -17.9232  -53.4647 S.3       23 UNK        -0.2404 
    126 C126       -0.5664  -16.2077  -52.8665 C.3       23 UNK        -0.0205 
    127 H127       -1.7438   -6.2732  -48.5885 H         1 UNK         0.0600 
    128 H128       -2.1178   -7.5773  -47.4584 H         1 UNK         0.0600 
    129 H129       -0.5777   -6.7221  -47.3391 H         1 UNK         0.0600 
    130 H130       -1.8786   -9.5972  -48.3537 H         1 UNK         0.3000 
    131 H131       -0.0992  -10.0534  -50.6600 H         1 UNK         0.0600 
    132 H132       -2.3659  -10.7628  -51.0195 H         1 UNK         0.0800 
    133 H133       -1.3389  -12.1538  -50.9724 H         1 UNK         0.0800 
    134 H134       -3.9973  -13.0148  -50.9817 H         1 UNK         0.0800 
    135 H135       -4.5722  -13.6951  -49.4816 H         1 UNK         0.0800 
    136 H136       -2.2946  -14.2000  -52.2370 H         1 UNK         0.1150 
    137 H137       -0.4326  -17.6776  -50.5554 H         1 UNK         0.1150 
    138 H138       -3.0217  -15.2564  -48.1484 H         1 UNK         0.1150 
    139 H139       -0.6246  -18.1445  -48.2313 H         1 UNK         0.0800 
    140 H140       -1.1558  -16.8426  -47.1871 H         1 UNK         0.0800 
    141 H141       -1.4616  -18.6569  -45.7036 H         1 UNK         0.0800 
    142 H142       -3.0536  -19.1846  -45.2911 H         1 UNK         0.0800 
    143 H143       -1.4559  -20.8072  -47.3291 H         1 UNK         0.0600 
    144 H144       -0.4194  -20.3731  -44.7576 H         1 UNK         0.3000 
    145 H145        1.0286  -23.5313  -44.1283 H         1 UNK         0.0600 
    146 H146        3.0795  -22.1494  -43.8833 H         1 UNK         0.0600 
    147 H147        2.7231  -22.4533  -45.5771 H         1 UNK         0.0600 
    148 H148        2.3680  -20.8816  -44.8781 H         1 UNK         0.0600 
    149 H149        1.0411  -21.0180  -42.7336 H         1 UNK         0.3000 
    150 H150       -1.5781  -20.5820  -41.4733 H         1 UNK         0.0600 
    151 H151       -2.7076  -22.5547  -40.5382 H         1 UNK         0.0600 
    152 H152       -2.0416  -21.6008  -39.2274 H         1 UNK         0.0600 
    153 H153       -1.2344  -23.0823  -39.7401 H         1 UNK         0.0600 
    154 H154        0.1202  -19.7276  -40.3880 H         1 UNK         0.3000 
    155 H155        2.0440  -20.5921  -38.0392 H         1 UNK         0.0600 
    156 H156        4.3856  -20.1189  -38.8203 H         1 UNK         0.0600 
    157 H157        3.9562  -20.7064  -40.4269 H         1 UNK         0.0600 
    158 H158        3.9172  -21.7946  -39.0502 H         1 UNK         0.0600 
    159 H159        1.6437  -18.4799  -38.4704 H         1 UNK         0.3000 
    160 H160        1.0895  -16.6180  -39.4868 H         1 UNK         0.0600 
    161 H161        3.6180  -15.9836  -41.1078 H         1 UNK         0.0600 
    162 H162        3.5367  -16.1052  -39.3538 H         1 UNK         0.0600 
    163 H163        2.6694  -14.8206  -40.1839 H         1 UNK         0.0600 
    164 H164        1.4166  -15.7624  -42.1890 H         1 UNK         0.3000 
    165 H165       -1.4198  -17.3938  -43.6250 H         1 UNK         0.0600 
    166 H166       -0.6894  -14.4666  -43.1014 H         1 UNK         0.0600 
    167 H167       -1.6392  -15.0358  -44.4750 H         1 UNK         0.0600 
    168 H168       -2.2497  -15.2263  -42.8372 H         1 UNK         0.0600 
    169 H169        0.7559  -15.8634  -44.7169 H         1 UNK         0.3000 
    170 H170        3.0451  -18.5587  -45.0783 H         1 UNK         0.0600 
    171 H171        1.5656  -18.9645  -47.0433 H         1 UNK         0.0600 
    172 H172        1.4275  -17.2301  -47.3119 H         1 UNK         0.0600 
    173 H173        2.9854  -18.0297  -47.4888 H         1 UNK         0.0600 
    174 H174        2.6213  -15.6976  -45.7774 H         1 UNK         0.3000 
    175 H175        4.7084  -14.5774  -43.1803 H         1 UNK         0.0600 
    176 H176        5.6130  -14.6782  -46.1099 H         1 UNK         0.0600 
    177 H177        6.1742  -13.5320  -44.8913 H         1 UNK         0.0600 
    178 H178        6.5528  -15.2391  -44.7323 H         1 UNK         0.0600 
    179 H179        3.7023  -13.2486  -45.5038 H         1 UNK         0.3000 
    180 H180        0.3532  -12.8371  -44.4960 H         1 UNK         0.0600 
    181 H181        1.4771  -11.0626  -43.1377 H         1 UNK         0.0600 
    182 H182        2.5834  -10.7343  -44.4669 H         1 UNK         0.0600 
    183 H183        0.8582  -10.4171  -44.6500 H         1 UNK         0.0600 
    184 H184        1.6905  -11.6524  -46.6538 H         1 UNK         0.3000 
    185 H185        2.5544  -12.8969  -48.5891 H         1 UNK         0.0600 
    186 H186        2.4815  -15.3400  -48.8841 H         1 UNK         0.0600 
    187 H187        0.7535  -15.2855  -49.1871 H         1 UNK         0.0600 
    188 H188        1.8728  -14.5466  -50.3297 H         1 UNK         0.0600 
    189 H189       -0.1509  -13.0245  -49.6363 H         1 UNK         0.3000 
    190 H190       -2.8240  -21.6727  -44.1462 H         1 UNK         0.3000 
    191 H191       -5.3203  -22.7052  -45.1478 H         1 UNK         0.0600 
    192 H192       -5.6259  -23.4978  -42.8334 H         1 UNK         0.0600 
    193 H193       -5.0436  -21.8402  -42.8173 H         1 UNK         0.0600 
    194 H194       -3.9435  -23.1701  -42.4529 H         1 UNK         0.0600 
    195 H195       -2.1608  -24.1525  -44.2707 H         1 UNK         0.3000 
    196 H196       -2.8279  -26.8706  -44.7660 H         1 UNK         0.0600 
    197 H197       -0.3851  -27.2060  -44.8646 H         1 UNK         0.0600 
    198 H198       -0.7744  -26.1073  -43.5487 H         1 UNK         0.0600 
    199 H199       -0.1122  -25.4819  -45.0579 H         1 UNK         0.0600 
    200 H200       -1.8774  -24.2533  -46.9547 H         1 UNK         0.3000 
    201 H201       -1.8988  -25.9137  -49.3601 H         1 UNK         0.0600 
    202 H202       -0.3507  -23.9681  -49.1160 H         1 UNK         0.0600 
    203 H203       -1.7276  -22.8758  -49.0131 H         1 UNK         0.0600 
    204 H204       -1.4171  -23.7730  -50.4953 H         1 UNK         0.0600 
    205 H205       -4.4036  -25.4120  -47.5100 H         1 UNK         0.3000 
    206 H206       -6.5944  -25.4125  -47.6960 H         1 UNK         0.0600 
    207 H207       -6.2080  -27.1707  -49.4081 H         1 UNK         0.0600 
    208 H208       -7.6448  -26.2349  -49.7856 H         1 UNK         0.0600 
    209 H209       -6.1584  -25.9556  -50.6814 H         1 UNK         0.0600 
    210 H210       -5.5111  -22.9546  -47.5005 H         1 UNK         0.3000 
    211 H211       -5.9224  -20.7825  -47.5425 H         1 UNK         0.0600 
    212 H212       -8.5767  -21.3357  -48.9700 H         1 UNK         0.0600 
    213 H213       -8.1074  -19.8521  -48.1561 H         1 UNK         0.0600 
    214 H214       -8.3477  -21.3198  -47.2217 H         1 UNK         0.0600 
    215 H215       -4.2122  -21.8243  -49.2331 H         1 UNK         0.3000 
    216 H216       -2.8774  -21.5133  -50.9429 H         1 UNK         0.0600 
    217 H217       -4.3851  -18.9098  -51.5163 H         1 UNK         0.0600 
    218 H218       -2.8057  -19.3496  -52.1354 H         1 UNK         0.0600 
    219 H219       -3.0196  -19.0964  -50.4181 H         1 UNK         0.0600 
    220 H220       -5.8201  -22.6569  -51.4490 H         1 UNK         0.3000 
    221 H221       -6.2003  -22.4014  -54.2771 H         1 UNK         0.0600 
    222 H222       -7.2025  -24.5780  -52.3723 H         1 UNK         0.0600 
    223 H223       -8.0216  -23.0502  -52.6956 H         1 UNK         0.0600 
    224 H224       -7.8269  -24.2354  -53.9789 H         1 UNK         0.0600 
    225 H225       -4.2816  -24.6475  -52.2827 H         1 UNK         0.3000 
    226 H226       -3.6140  -26.4140  -54.5209 H         1 UNK         0.0600 
    227 H227       -3.7401  -27.2055  -52.1234 H         1 UNK         0.0600 
    228 H228       -2.1867  -27.5331  -52.8792 H         1 UNK         0.0600 
    229 H229       -2.3401  -26.2005  -51.7464 H         1 UNK         0.0600 
    230 H230       -2.3313  -23.4875  -53.0585 H         1 UNK         0.3000 
    231 H231        0.3105  -23.6255  -54.2807 H         1 UNK         0.0600 
    232 H232       -1.1651  -21.2859  -52.9527 H         1 UNK         0.0600 
    233 H233       -0.0482  -22.3904  -52.1524 H         1 UNK         0.0600 
    234 H234        0.5294  -21.3081  -53.4087 H         1 UNK         0.0600 
    235 H235       -2.7841  -21.9942  -54.9419 H         1 UNK         0.3000 
    236 H236       -3.7420  -21.0752  -56.6859 H         1 UNK         0.0600 
    237 H237       -3.1996  -23.2226  -57.8519 H         1 UNK         0.0600 
    238 H238       -3.2620  -21.8668  -58.9658 H         1 UNK         0.0600 
    239 H239       -1.7058  -22.5141  -58.4656 H         1 UNK         0.0600 
    240 H240       -1.7142  -19.6210  -55.2875 H         1 UNK         0.3000 
    241 H241       -0.2701  -17.9767  -57.1924 H         1 UNK         0.0600 
    242 H242       -3.5434  -17.7540  -56.2632 H         1 UNK         0.3800 
    243 H243       -3.7172  -16.0441  -56.5606 H         1 UNK         0.3800 
    244 H244        0.6425  -16.8421  -55.1804 H         1 UNK         0.0800 
    245 H245        0.8626  -18.5621  -55.1592 H         1 UNK         0.0800 
    246 H246       -0.9560  -15.5397  -53.6364 H         1 UNK         0.0800 
    247 H247        0.4862  -15.9541  -52.7348 H         1 UNK         0.0800 
@<TRIPOS>BOND
     1    1    2 1    
     2    1  127 1    
     3    1  128 1    
     4    1  129 1    
     5    2    3 2    
     6    2    4 am   BACKBONE|DICT|INTERRES
     7    4    5 1    
     8    4  130 1    
     9    5    6 1    
    10    5   65 1    
    11    5  131 1    
    12    6    7 1    
    13    6  132 1    
    14    6  133 1    
    15    7    8 1    
    16    8    9 1    
    17    8  134 1    
    18    8  135 1    
    19    9   10 ar   
    20    9   14 ar   
    21   10   11 ar   
    22   10  136 1    
    23   11   12 ar   
    24   11  126 1    
    25   12   13 ar   
    26   12  137 1    
    27   13   14 ar   
    28   13   15 1    
    29   14  138 1    
    30   15   16 1    
    31   15  139 1    
    32   15  140 1    
    33   16   17 1    
    34   17   18 1    
    35   17  141 1    
    36   17  142 1    
    37   18   19 1    
    38   18   67 1    
    39   18  143 1    
    40   19   20 am   BACKBONE|DICT|INTERRES
    41   19  144 1    
    42   20   21 2    
    43   20   22 1    
    44   22   23 1    
    45   22   24 1    
    46   22  145 1    
    47   23  146 1    
    48   23  147 1    
    49   23  148 1    
    50   24   25 am   BACKBONE|DICT|INTERRES
    51   24  149 1    
    52   25   26 2    
    53   25   27 1    
    54   27   28 1    
    55   27   29 1    
    56   27  150 1    
    57   28  151 1    
    58   28  152 1    
    59   28  153 1    
    60   29   30 am   BACKBONE|DICT|INTERRES
    61   29  154 1    
    62   30   31 2    
    63   30   32 1    
    64   32   33 1    
    65   32   34 1    
    66   32  155 1    
    67   33  156 1    
    68   33  157 1    
    69   33  158 1    
    70   34   35 am   BACKBONE|DICT|INTERRES
    71   34  159 1    
    72   35   36 2    
    73   35   37 1    
    74   37   38 1    
    75   37   39 1    
    76   37  160 1    
    77   38  161 1    
    78   38  162 1    
    79   38  163 1    
    80   39   40 am   BACKBONE|DICT|INTERRES
    81   39  164 1    
    82   40   41 2    
    83   40   42 1    
    84   42   43 1    
    85   42   44 1    
    86   42  165 1    
    87   43  166 1    
    88   43  167 1    
    89   43  168 1    
    90   44   45 am   BACKBONE|DICT|INTERRES
    91   44  169 1    
    92   45   46 2    
    93   45   47 1    
    94   47   48 1    
    95   47   49 1    
    96   47  170 1    
    97   48  171 1    
    98   48  172 1    
    99   48  173 1    
   100   49   50 am   BACKBONE|DICT|INTERRES
   101   49  174 1    
   102   50   51 2    
   103   50   52 1    
   104   52   53 1    
   105   52   54 1    
   106   52  175 1    
   107   53  176 1    
   108   53  177 1    
   109   53  178 1    
   110   54   55 am   BACKBONE|DICT|INTERRES
   111   54  179 1    
   112   55   56 2    
   113   55   57 1    
   114   57   58 1    
   115   57   59 1    
   116   57  180 1    
   117   58  181 1    
   118   58  182 1    
   119   58  183 1    
   120   59   60 am   BACKBONE|DICT|INTERRES
   121   59  184 1    
   122   60   61 2    
   123   60   62 1    
   124   62   63 1    
   125   62   64 1    
   126   62  185 1    
   127   63  186 1    
   128   63  187 1    
   129   63  188 1    
   130   64   65 am   BACKBONE|DICT|INTERRES
   131   64  189 1    
   132   65   66 2    
   133   67   68 2    
   134   67   69 am   BACKBONE|DICT|INTERRES
   135   69   70 1    
   136   69  190 1    
   137   70   71 1    
   138   70   72 1    
   139   70  191 1    
   140   71  192 1    
   141   71  193 1    
   142   71  194 1    
   143   72   73 2    
   144   72   74 am   BACKBONE|DICT|INTERRES
   145   74   75 1    
   146   74  195 1    
   147   75   76 1    
   148   75   77 1    
   149   75  196 1    
   150   76  197 1    
   151   76  198 1    
   152   76  199 1    
   153   77   78 2    
   154   77   79 am   BACKBONE|DICT|INTERRES
   155   79   80 1    
   156   79  200 1    
   157   80   81 1    
   158   80   82 1    
   159   80  201 1    
   160   81  202 1    
   161   81  203 1    
   162   81  204 1    
   163   82   83 2    
   164   82   84 am   BACKBONE|DICT|INTERRES
   165   84   85 1    
   166   84  205 1    
   167   85   86 1    
   168   85   87 1    
   169   85  206 1    
   170   86  207 1    
   171   86  208 1    
   172   86  209 1    
   173   87   88 2    
   174   87   89 am   BACKBONE|DICT|INTERRES
   175   89   90 1    
   176   89  210 1    
   177   90   91 1    
   178   90   92 1    
   179   90  211 1    
   180   91  212 1    
   181   91  213 1    
   182   91  214 1    
   183   92   93 2    
   184   92   94 am   BACKBONE|DICT|INTERRES
   185   94   95 1    
   186   94  215 1    
   187   95   96 1    
   188   95   97 1    
   189   95  216 1    
   190   96  217 1    
   191   96  218 1    
   192   96  219 1    
   193   97   98 2    
   194   97   99 am   BACKBONE|DICT|INTERRES
   195   99  100 1    
   196   99  220 1    
   197  100  101 1    
   198  100  102 1    
   199  100  221 1    
   200  101  222 1    
   201  101  223 1    
   202  101  224 1    
   203  102  103 2    
   204  102  104 am   BACKBONE|DICT|INTERRES
   205  104  105 1    
   206  104  225 1    
   207  105  106 1    
   208  105  107 1    
   209  105  226 1    
   210  106  227 1    
   211  106  228 1    
   212  106  229 1    
   213  107  108 2    
   214  107  109 am   BACKBONE|DICT|INTERRES
   215  109  110 1    
   216  109  230 1    
   217  110  111 1    
   218  110  112 1    
   219  110  231 1    
   220  111  232 1    
   221  111  233 1    
   222  111  234 1    
   223  112  113 2    
   224  112  114 am   BACKBONE|DICT|INTERRES
   225  114  115 1    
   226  114  235 1    
   227  115  116 1    
   228  115  117 1    
   229  115  236 1    
   230  116  237 1    
   231  116  238 1    
   232  116  239 1    
   233  117  118 2    
   234  117  119 am   BACKBONE|DICT|INTERRES
   235  119  120 1    
   236  119  240 1    
   237  120  121 1    
   238  120  124 1    
   239  120  241 1    
   240  121  122 am   BACKBONE|DICT|INTERRES
   241  121  123 2    
   242  122  242 1    
   243  122  243 1    
   244  124  125 1    
   245  124  244 1    
   246  124  245 1    
   247  125  126 1    
   248  126  246 1    
   249  126  247 1    
@<TRIPOS>SUBSTRUCTURE
     1 UNK         1 GROUP             0       ****    0 ROOT    
