@<TRIPOS>MOLECULE
3R540
247   249    1
SMALL
USER_CHARGES


@<TRIPOS>ATOM
      1 CA          1.1946  -10.3837  -49.3277 C.3       0 UNK        -0.1800 
      2 C           0.6525  -11.7870  -49.1008 C.2       0 UNK         0.5000 
      3 O          -0.5595  -11.9924  -49.1748 O.2       0 UNK        -0.5000 
      4 N           1.5419  -12.7474  -48.8088 N.am      1 UNK        -0.5000 
      5 CA          1.2391  -14.1524  -48.5105 C.3       1 UNK         0.1400 
      6 C6          0.7780  -14.9379  -49.7691 C.3       23 UNK        -0.0398 
      7 S7          0.8484  -16.7502  -49.5511 S.3       23 UNK        -0.2404 
      8 C8          2.5762  -17.0805  -50.0121 C.3       23 UNK        -0.0205 
      9 C9          2.8449  -18.5687  -50.1703 C.ar      23 UNK        -0.0193 
     10 C10         2.5164  -19.2041  -51.3695 C.ar      23 UNK        -0.1150 
     11 C11         2.7971  -20.5588  -51.5607 C.ar      23 UNK        -0.0193 
     12 C12         3.4335  -21.2763  -50.5428 C.ar      23 UNK        -0.1150 
     13 C13         3.7891  -20.6484  -49.3437 C.ar      23 UNK        -0.0193 
     14 C14         3.4726  -19.2979  -49.1552 C.ar      23 UNK        -0.1150 
     15 C15         4.5975  -21.4022  -48.2934 C.3       23 UNK        -0.0205 
     16 S16         3.7095  -22.8152  -47.5674 S.3       23 UNK        -0.2404 
     17 C17         2.4952  -21.9623  -46.5101 C.3       23 UNK        -0.0398 
     18 CA          1.1691  -22.7442  -46.3664 C.3       11 UNK         0.1400 
     19 N           0.3458  -22.2234  -45.2730 N.am      11 UNK        -0.5000 
     20 C          -0.7922  -22.7787  -44.8325 C.2       10 UNK         0.5000 
     21 O          -1.2447  -23.8412  -45.2565 O.2       10 UNK        -0.5000 
     22 CA         -1.5830  -21.9938  -43.7705 C.3       10 UNK         0.1400 
     23 CB         -1.0272  -22.2604  -42.3639 C.3       10 UNK        -0.1800 
     24 N          -1.5982  -20.5539  -44.0270 N.am      10 UNK        -0.5000 
     25 C          -2.1441  -19.9738  -45.1057 C.2       9 UNK         0.5000 
     26 O          -2.7357  -20.5867  -45.9930 O.2       9 UNK        -0.5000 
     27 CA         -1.9477  -18.4540  -45.2373 C.3       9 UNK         0.1400 
     28 CB         -2.8909  -17.7113  -44.2727 C.3       9 UNK        -0.1800 
     29 N          -0.5533  -18.0582  -45.0106 N.am      9 UNK        -0.5000 
     30 C           0.4822  -18.4876  -45.7517 C.2       8 UNK         0.5000 
     31 O           0.3587  -19.1916  -46.7525 O.2       8 UNK        -0.5000 
     32 CA          1.8990  -18.1509  -45.2518 C.3       8 UNK         0.1400 
     33 CB          2.3856  -16.7963  -45.7761 C.3       8 UNK        -0.1800 
     34 N           1.9854  -18.1718  -43.7938 N.am      8 UNK        -0.5000 
     35 C           1.9534  -19.2902  -43.0567 C.2       7 UNK         0.5000 
     36 O           1.9021  -20.4219  -43.5365 O.2       7 UNK        -0.5000 
     37 CA          1.9200  -19.1048  -41.5288 C.3       7 UNK         0.1400 
     38 CB          3.3374  -18.8949  -40.9760 C.3       7 UNK        -0.1800 
     39 N           1.0700  -17.9817  -41.1292 N.am      7 UNK        -0.5000 
     40 C          -0.2586  -17.9407  -41.3065 C.2       6 UNK         0.5000 
     41 O          -0.9107  -18.8831  -41.7534 O.2       6 UNK        -0.5000 
     42 CA         -0.9687  -16.6140  -40.9752 C.3       6 UNK         0.1400 
     43 CB         -1.4980  -16.6326  -39.5339 C.3       6 UNK        -0.1800 
     44 N          -0.1049  -15.4446  -41.1601 N.am      6 UNK        -0.5000 
     45 C           0.3378  -15.0040  -42.3453 C.2       5 UNK         0.5000 
     46 O           0.0412  -15.5218  -43.4238 O.2       5 UNK        -0.5000 
     47 CA          1.3526  -13.8559  -42.2940 C.3       5 UNK         0.1400 
     48 CB          2.7873  -14.4152  -42.3007 C.3       5 UNK        -0.1800 
     49 N           1.1764  -12.9400  -43.4186 N.am      5 UNK        -0.5000 
     50 C           1.5300  -11.6469  -43.3865 C.2       4 UNK         0.5000 
     51 O           2.0018  -11.0963  -42.3902 O.2       4 UNK        -0.5000 
     52 CA          1.3318  -10.8160  -44.6644 C.3       4 UNK         0.1400 
     53 CB          2.5108  -11.0149  -45.6306 C.3       4 UNK        -0.1800 
     54 N           0.0807  -11.1465  -45.3422 N.am      4 UNK        -0.5000 
     55 C          -1.0783  -10.4984  -45.1573 C.2       3 UNK         0.5000 
     56 O          -1.2090   -9.5453  -44.3882 O.2       3 UNK        -0.5000 
     57 CA         -2.2994  -10.9700  -45.9726 C.3       3 UNK         0.1400 
     58 CB         -2.5725  -10.0067  -47.1382 C.3       3 UNK        -0.1800 
     59 N          -2.1390  -12.3246  -46.5005 N.am      3 UNK        -0.5000 
     60 C          -2.3325  -13.4375  -45.7783 C.2       2 UNK         0.5000 
     61 O          -2.7535  -13.4338  -44.6214 O.2       2 UNK        -0.5000 
     62 CA         -1.9775  -14.7802  -46.4472 C.3       2 UNK         0.1400 
     63 CB         -3.2347  -15.4260  -47.0466 C.3       2 UNK        -0.1800 
     64 N          -0.9504  -14.6895  -47.4844 N.am      2 UNK        -0.5000 
     65 C           0.2962  -14.2408  -47.2903 C.2       1 UNK         0.5000 
     66 O           0.7045  -13.8391  -46.2003 O.2       1 UNK        -0.5000 
     67 C           0.3821  -22.8010  -47.6912 C.2       11 UNK         0.5000 
     68 O           0.3103  -23.8664  -48.3029 O.2       11 UNK        -0.5000 
     69 N          -0.2414  -21.6789  -48.0760 N.am      12 UNK        -0.5000 
     70 CA         -1.0899  -21.5732  -49.2619 C.3       12 UNK         0.1400 
     71 CB         -1.4965  -20.1077  -49.4720 C.3       12 UNK        -0.1800 
     72 C          -2.3175  -22.5015  -49.2042 C.2       12 UNK         0.5000 
     73 O          -2.6153  -23.1714  -50.1929 O.2       12 UNK        -0.5000 
     74 N          -2.9672  -22.5786  -48.0336 N.am      13 UNK        -0.5000 
     75 CA         -4.0877  -23.4799  -47.7644 C.3       13 UNK         0.1400 
     76 CB         -4.6970  -23.1632  -46.3922 C.3       13 UNK        -0.1800 
     77 C          -3.7242  -24.9702  -47.8765 C.2       13 UNK         0.5000 
     78 O          -4.5438  -25.7506  -48.3576 O.2       13 UNK        -0.5000 
     79 N          -2.5092  -25.3421  -47.4575 N.am      14 UNK        -0.5000 
     80 CA         -1.9789  -26.6950  -47.6043 C.3       14 UNK         0.1400 
     81 CB         -0.7919  -26.8882  -46.6474 C.3       14 UNK        -0.1800 
     82 C          -1.5705  -27.0039  -49.0562 C.2       14 UNK         0.5000 
     83 O          -1.9136  -28.0688  -49.5708 O.2       14 UNK        -0.5000 
     84 N          -0.8324  -26.0783  -49.6815 N.am      15 UNK        -0.5000 
     85 CA         -0.2191  -26.2603  -50.9955 C.3       15 UNK         0.1400 
     86 CB          0.9267  -25.2506  -51.1570 C.3       15 UNK        -0.1800 
     87 C          -1.2040  -26.1502  -52.1723 C.2       15 UNK         0.5000 
     88 O          -1.0785  -26.9196  -53.1264 O.2       15 UNK        -0.5000 
     89 N          -2.1423  -25.1974  -52.1037 N.am      16 UNK        -0.5000 
     90 CA         -3.0376  -24.8323  -53.2058 C.3       16 UNK         0.1400 
     91 CB         -2.6791  -23.4159  -53.6800 C.3       16 UNK        -0.1800 
     92 C          -4.5269  -24.9478  -52.8341 C.2       16 UNK         0.5000 
     93 O          -5.3731  -24.4685  -53.5891 O.2       16 UNK        -0.5000 
     94 N          -4.8269  -25.5877  -51.6950 N.am      17 UNK        -0.5000 
     95 CA         -6.1605  -25.9196  -51.1712 C.3       17 UNK         0.1400 
     96 CB         -6.9514  -26.7895  -52.1714 C.3       17 UNK        -0.1800 
     97 C          -6.9971  -24.7203  -50.6710 C.2       17 UNK         0.5000 
     98 O          -8.1140  -24.9347  -50.1964 O.2       17 UNK        -0.5000 
     99 N          -6.4656  -23.4947  -50.7475 N.am      18 UNK        -0.5000 
    100 CA        -7.1030  -22.2716  -50.2723 C.3       18 UNK         0.1400 
    101 CB        -8.1159  -21.7591  -51.3116 C.3       18 UNK        -0.1800 
    102 C         -6.0194  -21.2217  -50.0144 C.2       18 UNK         0.5000 
    103 O         -5.0865  -21.1081  -50.8098 O.2       18 UNK        -0.5000 
    104 N         -6.1720  -20.4476  -48.9322 N.am      19 UNK        -0.5000 
    105 CA        -5.2387  -19.3842  -48.5417 C.3       19 UNK         0.1400 
    106 CB        -5.6028  -18.8786  -47.1380 C.3       19 UNK        -0.1800 
    107 C         -5.1870  -18.2117  -49.5429 C.2       19 UNK         0.5000 
    108 O         -4.1730  -17.5211  -49.6205 O.2       19 UNK        -0.5000 
    109 N         -6.2784  -18.0203  -50.2966 N.am      20 UNK        -0.5000 
    110 CA        -6.3936  -17.0385  -51.3750 C.3       20 UNK         0.1400 
    111 CB        -7.8853  -16.7666  -51.6281 C.3       20 UNK        -0.1800 
    112 C         -5.6965  -17.4771  -52.6805 C.2       20 UNK         0.5000 
    113 O         -5.5084  -16.6397  -53.5648 O.2       20 UNK        -0.5000 
    114 N         -5.3465  -18.7659  -52.7948 N.am      21 UNK        -0.5000 
    115 CA        -4.6114  -19.3394  -53.9200 C.3       21 UNK         0.1400 
    116 CB        -5.1578  -20.7536  -54.1946 C.3       21 UNK        -0.1800 
    117 C         -3.0919  -19.3181  -53.6447 C.2       21 UNK         0.5000 
    118 O         -2.6296  -18.5780  -52.7741 O.2       21 UNK        -0.5000 
    119 N         -2.3323  -20.1154  -54.4084 N.am      22 UNK        -0.5000 
    120 CA        -0.8597  -20.2102  -54.3534 C.3       22 UNK         0.1400 
    121 C         -0.1232  -18.9789  -54.9722 C.2       22 UNK         0.5000 
    122 N         -0.7840  -18.1462  -55.7682 N.am      22 UNK        -0.7600 
    123 O          1.0677  -18.7784  -54.7595 O.2       22 UNK        -0.5000 
    124 C124       -0.3288  -20.6129  -52.9397 C.3       23 UNK        -0.0398 
    125 S125        0.8485  -22.0104  -52.9554 S.3       23 UNK        -0.2404 
    126 C126        2.4890  -21.2208  -52.8967 C.3       23 UNK        -0.0205 
    127 H127        0.8973  -10.0213  -50.3117 H         1 UNK         0.0600 
    128 H128        2.2828  -10.3543  -49.2682 H         1 UNK         0.0600 
    129 H129        0.7940   -9.7028  -48.5766 H         1 UNK         0.0600 
    130 H130        2.5186  -12.4984  -48.7400 H         1 UNK         0.3000 
    131 H131        2.1862  -14.5833  -48.1832 H         1 UNK         0.0600 
    132 H132        1.4127  -14.6742  -50.6161 H         1 UNK         0.0800 
    133 H133       -0.2295  -14.6517  -50.0742 H         1 UNK         0.0800 
    134 H134        3.2410  -16.6519  -49.2610 H         1 UNK         0.0800 
    135 H135        2.8078  -16.5756  -50.9512 H         1 UNK         0.0800 
    136 H136        2.0573  -18.6334  -52.1647 H         1 UNK         0.1150 
    137 H137        3.6832  -22.3170  -50.6956 H         1 UNK         0.1150 
    138 H138        3.7509  -18.8019  -48.2361 H         1 UNK         0.1150 
    139 H139        5.5107  -21.7725  -48.7613 H         1 UNK         0.0800 
    140 H140        4.9191  -20.7337  -47.4932 H         1 UNK         0.0800 
    141 H141        2.3113  -20.9598  -46.8955 H         1 UNK         0.0800 
    142 H142        2.9596  -21.8326  -45.5321 H         1 UNK         0.0800 
    143 H143        1.4188  -23.7725  -46.0956 H         1 UNK         0.0600 
    144 H144        0.6774  -21.3791  -44.8193 H         1 UNK         0.3000 
    145 H145       -2.6161  -22.3450  -43.7979 H         1 UNK         0.0600 
    146 H146       -1.6276  -21.7618  -41.6026 H         1 UNK         0.0600 
    147 H147       -0.0006  -21.9085  -42.2616 H         1 UNK         0.0600 
    148 H148       -1.0336  -23.3273  -42.1375 H         1 UNK         0.0600 
    149 H149       -1.1758  -19.9614  -43.3173 H         1 UNK         0.3000 
    150 H150       -2.2020  -18.1722  -46.2599 H         1 UNK         0.0600 
    151 H151       -3.9260  -17.8084  -44.6003 H         1 UNK         0.0600 
    152 H152       -2.6703  -16.6481  -44.2067 H         1 UNK         0.0600 
    153 H153       -2.8440  -18.1131  -43.2618 H         1 UNK         0.0600 
    154 H154       -0.3681  -17.4348  -44.2338 H         1 UNK         0.3000 
    155 H155        2.5740  -18.9136  -45.6449 H         1 UNK         0.0600 
    156 H156        2.2811  -16.7366  -46.8588 H         1 UNK         0.0600 
    157 H157        3.4381  -16.6384  -45.5411 H         1 UNK         0.0600 
    158 H158        1.8215  -15.9757  -45.3379 H         1 UNK         0.0600 
    159 H159        1.9809  -17.2783  -43.3259 H         1 UNK         0.3000 
    160 H160        1.5108  -20.0172  -41.0896 H         1 UNK         0.0600 
    161 H161        3.7916  -17.9814  -41.3621 H         1 UNK         0.0600 
    162 H162        3.9888  -19.7263  -41.2486 H         1 UNK         0.0600 
    163 H163        3.3305  -18.8325  -39.8877 H         1 UNK         0.0600 
    164 H164        1.5301  -17.1746  -40.7365 H         1 UNK         0.3000 
    165 H165       -1.8210  -16.5156  -41.6502 H         1 UNK         0.0600 
    166 H166       -2.0653  -15.7289  -39.3105 H         1 UNK         0.0600 
    167 H167       -2.1651  -17.4810  -39.3746 H         1 UNK         0.0600 
    168 H168       -0.6884  -16.7105  -38.8071 H         1 UNK         0.0600 
    169 H169        0.1912  -14.9708  -40.3187 H         1 UNK         0.3000 
    170 H170        1.1895  -13.3111  -41.3614 H         1 UNK         0.0600 
    171 H171        3.0101  -14.9342  -43.2338 H         1 UNK         0.0600 
    172 H172        3.5225  -13.6194  -42.1799 H         1 UNK         0.0600 
    173 H173        2.9414  -15.1214  -41.4841 H         1 UNK         0.0600 
    174 H174        0.8076  -13.3502  -44.2733 H         1 UNK         0.3000 
    175 H175        1.3235   -9.7625  -44.3764 H         1 UNK         0.0600 
    176 H176        2.6080  -12.0520  -45.9510 H         1 UNK         0.0600 
    177 H177        2.3985  -10.3964  -46.5207 H         1 UNK         0.0600 
    178 H178        3.4516  -10.7321  -45.1568 H         1 UNK         0.0600 
    179 H179        0.0960  -11.9784  -45.9211 H         1 UNK         0.3000 
    180 H180       -3.1671  -10.9481  -45.3097 H         1 UNK         0.0600 
    181 H181       -3.4454  -10.3179  -47.7122 H         1 UNK         0.0600 
    182 H182       -1.7250   -9.9474  -47.8212 H         1 UNK         0.0600 
    183 H183       -2.7674   -8.9978  -46.7724 H         1 UNK         0.0600 
    184 H184       -1.7763  -12.4046  -47.4444 H         1 UNK         0.3000 
    185 H185       -1.5746  -15.4305  -45.6721 H         1 UNK         0.0600 
    186 H186       -3.6729  -14.8034  -47.8277 H         1 UNK         0.0600 
    187 H187       -3.0081  -16.3959  -47.4864 H         1 UNK         0.0600 
    188 H188       -3.9983  -15.5827  -46.2838 H         1 UNK         0.0600 
    189 H189       -1.2214  -14.9888  -48.4095 H         1 UNK         0.3000 
    190 H190       -0.1229  -20.8305  -47.5264 H         1 UNK         0.3000 
    191 H191       -0.4914  -21.8837  -50.1201 H         1 UNK         0.0600 
    192 H192       -1.9256  -19.6743  -48.5687 H         1 UNK         0.0600 
    193 H193       -2.2331  -20.0081  -50.2708 H         1 UNK         0.0600 
    194 H194       -0.6331  -19.5019  -49.7476 H         1 UNK         0.0600 
    195 H195       -2.6864  -21.9635  -47.2735 H         1 UNK         0.3000 
    196 H196       -4.8494  -23.2876  -48.5168 H         1 UNK         0.0600 
    197 H197       -5.0460  -22.1320  -46.3449 H         1 UNK         0.0600 
    198 H198       -3.9749  -23.3110  -45.5896 H         1 UNK         0.0600 
    199 H199       -5.5538  -23.8061  -46.1869 H         1 UNK         0.0600 
    200 H200       -1.9068  -24.6562  -47.0142 H         1 UNK         0.3000 
    201 H201       -2.7565  -27.4060  -47.3169 H         1 UNK         0.0600 
    202 H202       -1.0971  -26.7468  -45.6105 H         1 UNK         0.0600 
    203 H203        0.0149  -26.1844  -46.8545 H         1 UNK         0.0600 
    204 H204       -0.3809  -27.8948  -46.7321 H         1 UNK         0.0600 
    205 H205       -0.5682  -25.2354  -49.1745 H         1 UNK         0.3000 
    206 H206        0.2173  -27.2610  -51.0297 H         1 UNK         0.0600 
    207 H207        1.3942  -25.3332  -52.1390 H         1 UNK         0.0600 
    208 H208        0.5700  -24.2266  -51.0455 H         1 UNK         0.0600 
    209 H209        1.7037  -25.4128  -50.4099 H         1 UNK         0.0600 
    210 H210       -2.1838  -24.5877  -51.2881 H         1 UNK         0.3000 
    211 H211       -2.8953  -25.5064  -54.0523 H         1 UNK         0.0600 
    212 H212       -2.8407  -22.6784  -52.8934 H         1 UNK         0.0600 
    213 H213       -3.2802  -23.1243  -54.5411 H         1 UNK         0.0600 
    214 H214       -1.6353  -23.3596  -53.9862 H         1 UNK         0.0600 
    215 H215       -4.0526  -25.9112  -51.1317 H         1 UNK         0.3000 
    216 H216       -5.9849  -26.5440  -50.2959 H         1 UNK         0.0600 
    217 H217       -7.8581  -27.1848  -51.7121 H         1 UNK         0.0600 
    218 H218       -6.3617  -27.6430  -52.5059 H         1 UNK         0.0600 
    219 H219       -7.2573  -26.2246  -53.0522 H         1 UNK         0.0600 
    220 H220       -5.5384  -23.3737  -51.1357 H         1 UNK         0.3000 
    221 H221       -7.6194  -22.4785  -49.3325 H         1 UNK         0.0600 
    222 H222       -7.6389  -21.5673  -52.2737 H         1 UNK         0.0600 
    223 H223       -8.9166  -22.4804  -51.4749 H         1 UNK         0.0600 
    224 H224       -8.5806  -20.8290  -50.9825 H         1 UNK         0.0600 
    225 H225       -6.9692  -20.5893  -48.3284 H         1 UNK         0.3000 
    226 H226       -4.2405  -19.8207  -48.4937 H         1 UNK         0.0600 
    227 H227       -5.5314  -19.6769  -46.3993 H         1 UNK         0.0600 
    228 H228       -4.9225  -18.0871  -46.8229 H         1 UNK         0.0600 
    229 H229       -6.6150  -18.4742  -47.1041 H         1 UNK         0.0600 
    230 H230       -7.0709  -18.6275  -50.1520 H         1 UNK         0.3000 
    231 H231       -5.9262  -16.1060  -51.0514 H         1 UNK         0.0600 
    232 H232       -8.0197  -16.0097  -52.4020 H         1 UNK         0.0600 
    233 H233       -8.3780  -16.3986  -50.7279 H         1 UNK         0.0600 
    234 H234       -8.4084  -17.6663  -51.9549 H         1 UNK         0.0600 
    235 H235       -5.4461  -19.3720  -51.9898 H         1 UNK         0.3000 
    236 H236       -4.7844  -18.7386  -54.8150 H         1 UNK         0.0600 
    237 H237       -4.9189  -21.4465  -53.3884 H         1 UNK         0.0600 
    238 H238       -6.2421  -20.7398  -54.3055 H         1 UNK         0.0600 
    239 H239       -4.7538  -21.1676  -55.1184 H         1 UNK         0.0600 
    240 H240       -2.7793  -20.6834  -55.1131 H         1 UNK         0.3000 
    241 H241       -0.6272  -21.0260  -55.0383 H         1 UNK         0.0600 
    242 H242       -0.2986  -17.3599  -56.1705 H         1 UNK         0.3800 
    243 H243       -1.7600  -18.2893  -55.9701 H         1 UNK         0.3800 
    244 H244        0.0741  -19.7588  -52.3981 H         1 UNK         0.0800 
    245 H245       -1.1567  -20.9586  -52.3212 H         1 UNK         0.0800 
    246 H246        2.5861  -20.5014  -53.7084 H         1 UNK         0.0800 
    247 H247        3.2393  -21.9868  -53.0978 H         1 UNK         0.0800 
@<TRIPOS>BOND
     1    1    2 1    
     2    1  127 1    
     3    1  128 1    
     4    1  129 1    
     5    2    3 2    
     6    2    4 am   BACKBONE|DICT|INTERRES
     7    4    5 1    
     8    4  130 1    
     9    5    6 1    
    10    5   65 1    
    11    5  131 1    
    12    6    7 1    
    13    6  132 1    
    14    6  133 1    
    15    7    8 1    
    16    8    9 1    
    17    8  134 1    
    18    8  135 1    
    19    9   10 ar   
    20    9   14 ar   
    21   10   11 ar   
    22   10  136 1    
    23   11   12 ar   
    24   11  126 1    
    25   12   13 ar   
    26   12  137 1    
    27   13   14 ar   
    28   13   15 1    
    29   14  138 1    
    30   15   16 1    
    31   15  139 1    
    32   15  140 1    
    33   16   17 1    
    34   17   18 1    
    35   17  141 1    
    36   17  142 1    
    37   18   19 1    
    38   18   67 1    
    39   18  143 1    
    40   19   20 am   BACKBONE|DICT|INTERRES
    41   19  144 1    
    42   20   21 2    
    43   20   22 1    
    44   22   23 1    
    45   22   24 1    
    46   22  145 1    
    47   23  146 1    
    48   23  147 1    
    49   23  148 1    
    50   24   25 am   BACKBONE|DICT|INTERRES
    51   24  149 1    
    52   25   26 2    
    53   25   27 1    
    54   27   28 1    
    55   27   29 1    
    56   27  150 1    
    57   28  151 1    
    58   28  152 1    
    59   28  153 1    
    60   29   30 am   BACKBONE|DICT|INTERRES
    61   29  154 1    
    62   30   31 2    
    63   30   32 1    
    64   32   33 1    
    65   32   34 1    
    66   32  155 1    
    67   33  156 1    
    68   33  157 1    
    69   33  158 1    
    70   34   35 am   BACKBONE|DICT|INTERRES
    71   34  159 1    
    72   35   36 2    
    73   35   37 1    
    74   37   38 1    
    75   37   39 1    
    76   37  160 1    
    77   38  161 1    
    78   38  162 1    
    79   38  163 1    
    80   39   40 am   BACKBONE|DICT|INTERRES
    81   39  164 1    
    82   40   41 2    
    83   40   42 1    
    84   42   43 1    
    85   42   44 1    
    86   42  165 1    
    87   43  166 1    
    88   43  167 1    
    89   43  168 1    
    90   44   45 am   BACKBONE|DICT|INTERRES
    91   44  169 1    
    92   45   46 2    
    93   45   47 1    
    94   47   48 1    
    95   47   49 1    
    96   47  170 1    
    97   48  171 1    
    98   48  172 1    
    99   48  173 1    
   100   49   50 am   BACKBONE|DICT|INTERRES
   101   49  174 1    
   102   50   51 2    
   103   50   52 1    
   104   52   53 1    
   105   52   54 1    
   106   52  175 1    
   107   53  176 1    
   108   53  177 1    
   109   53  178 1    
   110   54   55 am   BACKBONE|DICT|INTERRES
   111   54  179 1    
   112   55   56 2    
   113   55   57 1    
   114   57   58 1    
   115   57   59 1    
   116   57  180 1    
   117   58  181 1    
   118   58  182 1    
   119   58  183 1    
   120   59   60 am   BACKBONE|DICT|INTERRES
   121   59  184 1    
   122   60   61 2    
   123   60   62 1    
   124   62   63 1    
   125   62   64 1    
   126   62  185 1    
   127   63  186 1    
   128   63  187 1    
   129   63  188 1    
   130   64   65 am   BACKBONE|DICT|INTERRES
   131   64  189 1    
   132   65   66 2    
   133   67   68 2    
   134   67   69 am   BACKBONE|DICT|INTERRES
   135   69   70 1    
   136   69  190 1    
   137   70   71 1    
   138   70   72 1    
   139   70  191 1    
   140   71  192 1    
   141   71  193 1    
   142   71  194 1    
   143   72   73 2    
   144   72   74 am   BACKBONE|DICT|INTERRES
   145   74   75 1    
   146   74  195 1    
   147   75   76 1    
   148   75   77 1    
   149   75  196 1    
   150   76  197 1    
   151   76  198 1    
   152   76  199 1    
   153   77   78 2    
   154   77   79 am   BACKBONE|DICT|INTERRES
   155   79   80 1    
   156   79  200 1    
   157   80   81 1    
   158   80   82 1    
   159   80  201 1    
   160   81  202 1    
   161   81  203 1    
   162   81  204 1    
   163   82   83 2    
   164   82   84 am   BACKBONE|DICT|INTERRES
   165   84   85 1    
   166   84  205 1    
   167   85   86 1    
   168   85   87 1    
   169   85  206 1    
   170   86  207 1    
   171   86  208 1    
   172   86  209 1    
   173   87   88 2    
   174   87   89 am   BACKBONE|DICT|INTERRES
   175   89   90 1    
   176   89  210 1    
   177   90   91 1    
   178   90   92 1    
   179   90  211 1    
   180   91  212 1    
   181   91  213 1    
   182   91  214 1    
   183   92   93 2    
   184   92   94 am   BACKBONE|DICT|INTERRES
   185   94   95 1    
   186   94  215 1    
   187   95   96 1    
   188   95   97 1    
   189   95  216 1    
   190   96  217 1    
   191   96  218 1    
   192   96  219 1    
   193   97   98 2    
   194   97   99 am   BACKBONE|DICT|INTERRES
   195   99  100 1    
   196   99  220 1    
   197  100  101 1    
   198  100  102 1    
   199  100  221 1    
   200  101  222 1    
   201  101  223 1    
   202  101  224 1    
   203  102  103 2    
   204  102  104 am   BACKBONE|DICT|INTERRES
   205  104  105 1    
   206  104  225 1    
   207  105  106 1    
   208  105  107 1    
   209  105  226 1    
   210  106  227 1    
   211  106  228 1    
   212  106  229 1    
   213  107  108 2    
   214  107  109 am   BACKBONE|DICT|INTERRES
   215  109  110 1    
   216  109  230 1    
   217  110  111 1    
   218  110  112 1    
   219  110  231 1    
   220  111  232 1    
   221  111  233 1    
   222  111  234 1    
   223  112  113 2    
   224  112  114 am   BACKBONE|DICT|INTERRES
   225  114  115 1    
   226  114  235 1    
   227  115  116 1    
   228  115  117 1    
   229  115  236 1    
   230  116  237 1    
   231  116  238 1    
   232  116  239 1    
   233  117  118 2    
   234  117  119 am   BACKBONE|DICT|INTERRES
   235  119  120 1    
   236  119  240 1    
   237  120  121 1    
   238  120  124 1    
   239  120  241 1    
   240  121  122 am   BACKBONE|DICT|INTERRES
   241  121  123 2    
   242  122  242 1    
   243  122  243 1    
   244  124  125 1    
   245  124  244 1    
   246  124  245 1    
   247  125  126 1    
   248  126  246 1    
   249  126  247 1    
@<TRIPOS>SUBSTRUCTURE
     1 UNK         1 GROUP             0       ****    0 ROOT    
