@<TRIPOS>MOLECULE
3R540
247   249    1
SMALL
USER_CHARGES


@<TRIPOS>ATOM
      1 CA          2.0001  -13.7824  -53.0048 C.3       0 UNK        -0.1800 
      2 C           2.1486  -14.0355  -51.5114 C.2       0 UNK         0.5000 
      3 O           3.0512  -14.7636  -51.0966 O.2       0 UNK        -0.5000 
      4 N           1.2728  -13.4335  -50.6977 N.am      1 UNK        -0.5000 
      5 CA          1.2184  -13.5813  -49.2380 C.3       1 UNK         0.1400 
      6 C6         -0.2006  -13.3056  -48.6760 C.3       23 UNK        -0.0398 
      7 S7         -1.4675  -14.3662  -49.4416 S.3       23 UNK        -0.2404 
      8 C8         -1.4934  -15.7541  -48.2717 C.3       23 UNK        -0.0205 
      9 C9         -2.2759  -16.9135  -48.8574 C.ar      23 UNK        -0.0193 
     10 C10        -3.6642  -16.9700  -48.7167 C.ar      23 UNK        -0.1150 
     11 C11        -4.3996  -17.9782  -49.3473 C.ar      23 UNK        -0.0193 
     12 C12        -3.7268  -18.9608  -50.0803 C.ar      23 UNK        -0.1150 
     13 C13        -2.3340  -18.9412  -50.1862 C.ar      23 UNK        -0.0193 
     14 C14        -1.6137  -17.9107  -49.5768 C.ar      23 UNK        -0.1150 
     15 C15        -1.6047  -20.0252  -50.9677 C.3       23 UNK        -0.0205 
     16 S16        -1.6407  -21.6395  -50.1288 S.3       23 UNK        -0.2404 
     17 C17        -1.1003  -21.1956  -48.4449 C.3       23 UNK        -0.0398 
     18 CA         -0.6649  -22.4206  -47.6131 C.3       11 UNK         0.1400 
     19 N           0.1384  -22.0209  -46.4568 N.am      11 UNK        -0.5000 
     20 C           0.8344  -22.8647  -45.6841 C.2       10 UNK         0.5000 
     21 O           0.8870  -24.0783  -45.8751 O.2       10 UNK        -0.5000 
     22 CA          1.5457  -22.2607  -44.4617 C.3       10 UNK         0.1400 
     23 CB          2.8402  -21.5466  -44.8771 C.3       10 UNK        -0.1800 
     24 N           0.6831  -21.3416  -43.7191 N.am      10 UNK        -0.5000 
     25 C          -0.4510  -21.7070  -43.1036 C.2       9 UNK         0.5000 
     26 O          -0.8534  -22.8698  -43.0494 O.2       9 UNK        -0.5000 
     27 CA         -1.2992  -20.5831  -42.4809 C.3       9 UNK         0.1400 
     28 CB         -0.7431  -20.1810  -41.1072 C.3       9 UNK        -0.1800 
     29 N          -1.4012  -19.4002  -43.3383 N.am      9 UNK        -0.5000 
     30 C          -1.9707  -19.3850  -44.5526 C.2       8 UNK         0.5000 
     31 O          -2.4924  -20.3676  -45.0750 O.2       8 UNK        -0.5000 
     32 CA         -1.8987  -18.0667  -45.3424 C.3       8 UNK         0.1400 
     33 CB         -2.9351  -17.0587  -44.8220 C.3       8 UNK        -0.1800 
     34 N          -0.5597  -17.4762  -45.3147 N.am      8 UNK        -0.5000 
     35 C           0.5360  -18.0702  -45.8116 C.2       7 UNK         0.5000 
     36 O           0.5230  -19.1468  -46.4071 O.2       7 UNK        -0.5000 
     37 CA          1.8808  -17.3747  -45.5451 C.3       7 UNK         0.1400 
     38 CB          2.1526  -16.2713  -46.5802 C.3       7 UNK        -0.1800 
     39 N           1.9442  -16.8346  -44.1858 N.am      7 UNK        -0.5000 
     40 C           2.0209  -17.5985  -43.0848 C.2       6 UNK         0.5000 
     41 O           2.1250  -18.8243  -43.1122 O.2       6 UNK        -0.5000 
     42 CA          1.9017  -16.8854  -41.7265 C.3       6 UNK         0.1400 
     43 CB          3.2767  -16.4487  -41.2044 C.3       6 UNK        -0.1800 
     44 N           0.9982  -15.7356  -41.7878 N.am      6 UNK        -0.5000 
     45 C          -0.3348  -15.8548  -41.8764 C.2       5 UNK         0.5000 
     46 O          -0.9173  -16.9385  -41.8769 O.2       5 UNK        -0.5000 
     47 CA         -1.1591  -14.5633  -42.0296 C.3       5 UNK         0.1400 
     48 CB         -1.5929  -14.0372  -40.6537 C.3       5 UNK        -0.1800 
     49 N          -0.4610  -13.5005  -42.7524 N.am      5 UNK        -0.5000 
     50 C          -0.0467  -13.5723  -44.0242 C.2       4 UNK         0.5000 
     51 O          -0.2085  -14.5650  -44.7368 O.2       4 UNK        -0.5000 
     52 CA          0.6996  -12.3470  -44.5928 C.3       4 UNK         0.1400 
     53 CB          0.6449  -11.0968  -43.6866 C.3       4 UNK        -0.1800 
     54 N           2.0916  -12.6514  -44.9379 N.am      4 UNK        -0.5000 
     55 C           3.0365  -13.1724  -44.1377 C.2       3 UNK         0.5000 
     56 O           2.8196  -13.5290  -42.9786 O.2       3 UNK        -0.5000 
     57 CA          4.4570  -13.3301  -44.7225 C.3       3 UNK         0.1400 
     58 CB          5.1029  -14.6673  -44.3200 C.3       3 UNK        -0.1800 
     59 N           4.4664  -13.2189  -46.1832 N.am      3 UNK        -0.5000 
     60 C           4.9126  -12.1620  -46.8741 C.2       2 UNK         0.5000 
     61 O           5.4197  -11.1656  -46.3578 O.2       2 UNK        -0.5000 
     62 CA          4.7380  -12.2149  -48.4052 C.3       2 UNK         0.1400 
     63 CB          5.9959  -12.7945  -49.0694 C.3       2 UNK        -0.1800 
     64 N           3.5681  -12.9757  -48.8584 N.am      2 UNK        -0.5000 
     65 C           2.2917  -12.7065  -48.5537 C.2       1 UNK         0.5000 
     66 O           1.9582  -11.8093  -47.7783 O.2       1 UNK        -0.5000 
     67 C          -1.8644  -23.3083  -47.2142 C.2       11 UNK         0.5000 
     68 O          -2.1572  -24.2762  -47.9167 O.2       11 UNK        -0.5000 
     69 N          -2.5154  -23.0028  -46.0827 N.am      12 UNK        -0.5000 
     70 CA         -3.5911  -23.8066  -45.4981 C.3       12 UNK         0.1400 
     71 CB         -4.2102  -23.0693  -44.3021 C.3       12 UNK        -0.1800 
     72 C          -3.1350  -25.2207  -45.0992 C.2       12 UNK         0.5000 
     73 O          -3.8851  -26.1755  -45.2992 O.2       12 UNK        -0.5000 
     74 N          -1.9089  -25.3357  -44.5752 N.am      13 UNK        -0.5000 
     75 CA         -1.2817  -26.6118  -44.2435 C.3       13 UNK         0.1400 
     76 CB         -0.1114  -26.3684  -43.2775 C.3       13 UNK        -0.1800 
     77 C          -0.8145  -27.3797  -45.4947 C.2       13 UNK         0.5000 
     78 O          -1.0835  -28.5763  -45.6076 O.2       13 UNK        -0.5000 
     79 N          -0.1034  -26.6894  -46.3956 N.am      14 UNK        -0.5000 
     80 CA          0.5914  -27.2971  -47.5302 C.3       14 UNK         0.1400 
     81 CB          1.7410  -26.3752  -47.9665 C.3       14 UNK        -0.1800 
     82 C          -0.3099  -27.6132  -48.7354 C.2       14 UNK         0.5000 
     83 O          -0.0809  -28.6259  -49.3987 O.2       14 UNK        -0.5000 
     84 N          -1.2768  -26.7358  -49.0310 N.am      15 UNK        -0.5000 
     85 CA         -2.0336  -26.7394  -50.2863 C.3       15 UNK         0.1400 
     86 CB         -1.3997  -25.7129  -51.2445 C.3       15 UNK        -0.1800 
     87 C          -3.5341  -26.4707  -50.0804 C.2       15 UNK         0.5000 
     88 O          -4.2212  -26.1337  -51.0453 O.2       15 UNK        -0.5000 
     89 N          -4.0229  -26.5934  -48.8363 N.am      16 UNK        -0.5000 
     90 CA         -5.4146  -26.3718  -48.4138 C.3       16 UNK         0.1400 
     91 CB         -6.3333  -27.4647  -48.9996 C.3       16 UNK        -0.1800 
     92 C          -5.9400  -24.9453  -48.7007 C.2       16 UNK         0.5000 
     93 O          -7.1507  -24.7541  -48.8237 O.2       16 UNK        -0.5000 
     94 N          -5.0172  -23.9765  -48.8130 N.am      17 UNK        -0.5000 
     95 CA         -5.2344  -22.5719  -49.1768 C.3       17 UNK         0.1400 
     96 CB         -6.0510  -21.8392  -48.0921 C.3       17 UNK        -0.1800 
     97 C          -5.8032  -22.3777  -50.6023 C.2       17 UNK         0.5000 
     98 O          -6.4251  -21.3502  -50.8768 O.2       17 UNK        -0.5000 
     99 N          -5.5872  -23.3612  -51.4854 N.am      18 UNK        -0.5000 
    100 CA        -6.0133  -23.3405  -52.8830 C.3       18 UNK         0.1400 
    101 CB        -6.3289  -24.7859  -53.3078 C.3       18 UNK        -0.1800 
    102 C         -4.9390  -22.7187  -53.7982 C.2       18 UNK         0.5000 
    103 O         -3.8328  -22.4120  -53.3478 O.2       18 UNK        -0.5000 
    104 N         -5.2880  -22.5939  -55.0864 N.am      19 UNK        -0.5000 
    105 CA        -4.4538  -22.1215  -56.1947 C.3       19 UNK         0.1400 
    106 CB        -3.2305  -23.0458  -56.4066 C.3       19 UNK        -0.1800 
    107 C         -4.1213  -20.6165  -56.0939 C.2       19 UNK         0.5000 
    108 O         -5.0369  -19.8122  -55.9062 O.2       19 UNK        -0.5000 
    109 N         -2.8465  -20.2609  -56.2992 N.am      20 UNK        -0.5000 
    110 CA        -2.3247  -18.8944  -56.3686 C.3       20 UNK         0.1400 
    111 CB        -0.8792  -18.9665  -56.8926 C.3       20 UNK        -0.1800 
    112 C         -2.3831  -18.1260  -55.0314 C.2       20 UNK         0.5000 
    113 O         -2.6479  -18.7144  -53.9829 O.2       20 UNK        -0.5000 
    114 N         -2.0908  -16.8196  -55.1064 N.am      21 UNK        -0.5000 
    115 CA        -2.0910  -15.8472  -54.0083 C.3       21 UNK         0.1400 
    116 CB        -1.0249  -16.2020  -52.9455 C.3       21 UNK        -0.1800 
    117 C         -3.5095  -15.6142  -53.4421 C.2       21 UNK         0.5000 
    118 O         -4.4747  -15.6317  -54.2099 O.2       21 UNK        -0.5000 
    119 N         -3.6117  -15.3528  -52.1331 N.am      22 UNK        -0.5000 
    120 CA        -4.8546  -15.0257  -51.4126 C.3       22 UNK         0.1400 
    121 C         -5.4567  -13.6239  -51.7448 C.2       22 UNK         0.5000 
    122 N         -4.6996  -12.7044  -52.3320 N.am      22 UNK        -0.7600 
    123 O         -6.6156  -13.3472  -51.4475 O.2       22 UNK        -0.5000 
    124 C124       -5.9023  -16.1809  -51.4575 C.3       23 UNK        -0.0398 
    125 S125       -6.6986  -16.4466  -49.8336 S.3       23 UNK        -0.2404 
    126 C126       -5.9214  -17.9979  -49.2640 C.3       23 UNK        -0.0205 
    127 H127        1.1142  -13.1877  -53.2288 H         1 UNK         0.0600 
    128 H128        1.9165  -14.7288  -53.5389 H         1 UNK         0.0600 
    129 H129        2.8734  -13.2518  -53.3837 H         1 UNK         0.0600 
    130 H130        0.5677  -12.8293  -51.0947 H         1 UNK         0.3000 
    131 H131        1.4620  -14.6172  -48.9946 H         1 UNK         0.0600 
    132 H132       -0.4869  -12.2666  -48.8480 H         1 UNK         0.0800 
    133 H133       -0.2247  -13.4535  -47.5947 H         1 UNK         0.0800 
    134 H134       -0.4739  -16.0686  -48.0482 H         1 UNK         0.0800 
    135 H135       -1.9338  -15.4262  -47.3305 H         1 UNK         0.0800 
    136 H136       -4.1785  -16.1998  -48.1593 H         1 UNK         0.1150 
    137 H137       -4.2829  -19.7438  -50.5750 H         1 UNK         0.1150 
    138 H138       -0.5381  -17.8738  -49.6767 H         1 UNK         0.1150 
    139 H139       -2.0708  -20.1420  -51.9458 H         1 UNK         0.0800 
    140 H140       -0.5683  -19.7394  -51.1525 H         1 UNK         0.0800 
    141 H141       -1.8898  -20.6371  -47.9381 H         1 UNK         0.0800 
    142 H142       -0.2602  -20.5079  -48.5498 H         1 UNK         0.0800 
    143 H143       -0.0134  -23.0327  -48.2410 H         1 UNK         0.0600 
    144 H144        0.1694  -21.0257  -46.2505 H         1 UNK         0.3000 
    145 H145        1.8119  -23.0824  -43.7937 H         1 UNK         0.0600 
    146 H146        3.3895  -21.1902  -44.0056 H         1 UNK         0.0600 
    147 H147        3.5001  -22.2214  -45.4238 H         1 UNK         0.0600 
    148 H148        2.6409  -20.6890  -45.5197 H         1 UNK         0.0600 
    149 H149        0.9798  -20.3719  -43.6758 H         1 UNK         0.3000 
    150 H150       -2.3088  -20.9726  -42.3359 H         1 UNK         0.0600 
    151 H151       -0.6836  -21.0434  -40.4422 H         1 UNK         0.0600 
    152 H152       -1.3821  -19.4415  -40.6243 H         1 UNK         0.0600 
    153 H153        0.2582  -19.7575  -41.1868 H         1 UNK         0.0600 
    154 H154       -1.0435  -18.5301  -42.9542 H         1 UNK         0.3000 
    155 H155       -2.1377  -18.2938  -46.3828 H         1 UNK         0.0600 
    156 H156       -3.9463  -17.4458  -44.9520 H         1 UNK         0.0600 
    157 H157       -2.8801  -16.1109  -45.3552 H         1 UNK         0.0600 
    158 H158       -2.8015  -16.8500  -43.7614 H         1 UNK         0.0600 
    159 H159       -0.4642  -16.5644  -44.8801 H         1 UNK         0.3000 
    160 H160        2.6653  -18.1272  -45.6500 H         1 UNK         0.0600 
    161 H161        1.4595  -15.4368  -46.4852 H         1 UNK         0.0600 
    162 H162        2.0586  -16.6621  -47.5943 H         1 UNK         0.0600 
    163 H163        3.1645  -15.8827  -46.4833 H         1 UNK         0.0600 
    164 H164        1.7894  -15.8428  -44.0749 H         1 UNK         0.3000 
    165 H165        1.4938  -17.6040  -41.0125 H         1 UNK         0.0600 
    166 H166        3.1974  -15.9971  -40.2155 H         1 UNK         0.0600 
    167 H167        3.9504  -17.3023  -41.1199 H         1 UNK         0.0600 
    168 H168        3.7482  -15.7247  -41.8654 H         1 UNK         0.0600 
    169 H169        1.4239  -14.8179  -41.8512 H         1 UNK         0.3000 
    170 H170       -2.0574  -14.8129  -42.5974 H         1 UNK         0.0600 
    171 H171       -2.1395  -14.8007  -40.0984 H         1 UNK         0.0600 
    172 H172       -0.7359  -13.7407  -40.0477 H         1 UNK         0.0600 
    173 H173       -2.2518  -13.1741  -40.7506 H         1 UNK         0.0600 
    174 H174       -0.2610  -12.6585  -42.2326 H         1 UNK         0.3000 
    175 H175        0.1962  -12.0956  -45.5271 H         1 UNK         0.0600 
    176 H176        1.1639  -11.2490  -42.7395 H         1 UNK         0.0600 
    177 H177        1.1107  -10.2434  -44.1797 H         1 UNK         0.0600 
    178 H178       -0.3846  -10.8118  -43.4655 H         1 UNK         0.0600 
    179 H179        2.3557  -12.3883  -45.8810 H         1 UNK         0.3000 
    180 H180        5.0595  -12.5328  -44.2831 H         1 UNK         0.0600 
    181 H181        4.4750  -15.5211  -44.5714 H         1 UNK         0.0600 
    182 H182        5.2891  -14.6984  -43.2466 H         1 UNK         0.0600 
    183 H183        6.0663  -14.8037  -44.8115 H         1 UNK         0.0600 
    184 H184        4.0696  -13.9892  -46.7001 H         1 UNK         0.3000 
    185 H185        4.6124  -11.1872  -48.7521 H         1 UNK         0.0600 
    186 H186        6.8861  -12.2353  -48.7782 H         1 UNK         0.0600 
    187 H187        6.1550  -13.8362  -48.7878 H         1 UNK         0.0600 
    188 H188        5.9254  -12.7478  -50.1563 H         1 UNK         0.0600 
    189 H189        3.7361  -13.7102  -49.5397 H         1 UNK         0.3000 
    190 H190       -2.2770  -22.1432  -45.5934 H         1 UNK         0.3000 
    191 H191       -4.3711  -23.9196  -46.2488 H         1 UNK         0.0600 
    192 H192       -4.6117  -22.1011  -44.6012 H         1 UNK         0.0600 
    193 H193       -5.0328  -23.6431  -43.8738 H         1 UNK         0.0600 
    194 H194       -3.4818  -22.8999  -43.5100 H         1 UNK         0.0600 
    195 H195       -1.3683  -24.4957  -44.4032 H         1 UNK         0.3000 
    196 H196       -2.0157  -27.2330  -43.7256 H         1 UNK         0.0600 
    197 H197        0.3653  -27.3083  -42.9966 H         1 UNK         0.0600 
    198 H198       -0.4532  -25.8891  -42.3599 H         1 UNK         0.0600 
    199 H199        0.6546  -25.7303  -43.7191 H         1 UNK         0.0600 
    200 H200        0.1060  -25.7103  -46.2110 H         1 UNK         0.3000 
    201 H201        1.0338  -28.2385  -47.1966 H         1 UNK         0.0600 
    202 H202        2.4382  -26.1992  -47.1471 H         1 UNK         0.0600 
    203 H203        1.3721  -25.4062  -48.3057 H         1 UNK         0.0600 
    204 H204        2.3082  -26.8163  -48.7871 H         1 UNK         0.0600 
    205 H205       -1.4172  -25.9192  -48.4401 H         1 UNK         0.3000 
    206 H206       -1.9784  -27.7224  -50.7576 H         1 UNK         0.0600 
    207 H207       -0.3470  -25.9342  -51.4205 H         1 UNK         0.0600 
    208 H208       -1.8954  -25.7144  -52.2161 H         1 UNK         0.0600 
    209 H209       -1.4664  -24.7012  -50.8427 H         1 UNK         0.0600 
    210 H210       -3.3775  -26.8482  -48.1017 H         1 UNK         0.3000 
    211 H211       -5.4319  -26.4842  -47.3307 H         1 UNK         0.0600 
    212 H212       -6.4350  -27.3717  -50.0813 H         1 UNK         0.0600 
    213 H213       -7.3348  -27.4066  -48.5718 H         1 UNK         0.0600 
    214 H214       -5.9485  -28.4612  -48.7828 H         1 UNK         0.0600 
    215 H215       -4.0457  -24.2438  -48.6877 H         1 UNK         0.3000 
    216 H216       -4.2483  -22.1130  -49.1868 H         1 UNK         0.0600 
    217 H217       -6.0808  -20.7673  -48.2843 H         1 UNK         0.0600 
    218 H218       -5.6080  -21.9722  -47.1056 H         1 UNK         0.0600 
    219 H219       -7.0817  -22.1914  -48.0507 H         1 UNK         0.0600 
    220 H220       -5.0460  -24.1695  -51.2000 H         1 UNK         0.3000 
    221 H221       -6.9257  -22.7479  -52.9768 H         1 UNK         0.0600 
    222 H222       -5.4282  -25.3999  -53.3423 H         1 UNK         0.0600 
    223 H223       -7.0273  -25.2577  -52.6160 H         1 UNK         0.0600 
    224 H224       -6.7851  -24.8198  -54.2975 H         1 UNK         0.0600 
    225 H225       -6.2325  -22.8414  -55.3453 H         1 UNK         0.3000 
    226 H226       -5.0754  -22.2172  -57.0862 H         1 UNK         0.0600 
    227 H227       -3.5400  -24.0882  -56.4837 H         1 UNK         0.0600 
    228 H228       -2.7068  -22.8030  -57.3320 H         1 UNK         0.0600 
    229 H229       -2.5124  -22.9761  -55.5889 H         1 UNK         0.0600 
    230 H230       -2.1666  -20.9979  -56.4107 H         1 UNK         0.3000 
    231 H231       -2.9307  -18.3452  -57.0921 H         1 UNK         0.0600 
    232 H232       -0.2289  -19.5015  -56.1991 H         1 UNK         0.0600 
    233 H233       -0.4553  -17.9722  -57.0370 H         1 UNK         0.0600 
    234 H234       -0.8329  -19.4751  -57.8559 H         1 UNK         0.0600 
    235 H235       -1.9109  -16.4278  -56.0198 H         1 UNK         0.3000 
    236 H236       -1.7933  -14.8981  -54.4560 H         1 UNK         0.0600 
    237 H237       -0.0639  -16.4186  -53.4116 H         1 UNK         0.0600 
    238 H238       -0.8612  -15.3751  -52.2547 H         1 UNK         0.0600 
    239 H239       -1.3098  -17.0746  -52.3578 H         1 UNK         0.0600 
    240 H240       -2.7746  -15.3611  -51.5667 H         1 UNK         0.3000 
    241 H241       -4.5209  -14.9156  -50.3814 H         1 UNK         0.0600 
    242 H242       -5.0906  -11.7982  -52.5366 H         1 UNK         0.3800 
    243 H243       -3.7412  -12.9019  -52.5687 H         1 UNK         0.3800 
    244 H244       -6.6720  -15.9899  -52.2070 H         1 UNK         0.0800 
    245 H245       -5.4348  -17.1163  -51.7678 H         1 UNK         0.0800 
    246 H246       -6.2174  -18.1841  -48.2310 H         1 UNK         0.0800 
    247 H247       -6.3280  -18.8196  -49.8551 H         1 UNK         0.0800 
@<TRIPOS>BOND
     1    1    2 1    
     2    1  127 1    
     3    1  128 1    
     4    1  129 1    
     5    2    3 2    
     6    2    4 am   BACKBONE|DICT|INTERRES
     7    4    5 1    
     8    4  130 1    
     9    5    6 1    
    10    5   65 1    
    11    5  131 1    
    12    6    7 1    
    13    6  132 1    
    14    6  133 1    
    15    7    8 1    
    16    8    9 1    
    17    8  134 1    
    18    8  135 1    
    19    9   10 ar   
    20    9   14 ar   
    21   10   11 ar   
    22   10  136 1    
    23   11   12 ar   
    24   11  126 1    
    25   12   13 ar   
    26   12  137 1    
    27   13   14 ar   
    28   13   15 1    
    29   14  138 1    
    30   15   16 1    
    31   15  139 1    
    32   15  140 1    
    33   16   17 1    
    34   17   18 1    
    35   17  141 1    
    36   17  142 1    
    37   18   19 1    
    38   18   67 1    
    39   18  143 1    
    40   19   20 am   BACKBONE|DICT|INTERRES
    41   19  144 1    
    42   20   21 2    
    43   20   22 1    
    44   22   23 1    
    45   22   24 1    
    46   22  145 1    
    47   23  146 1    
    48   23  147 1    
    49   23  148 1    
    50   24   25 am   BACKBONE|DICT|INTERRES
    51   24  149 1    
    52   25   26 2    
    53   25   27 1    
    54   27   28 1    
    55   27   29 1    
    56   27  150 1    
    57   28  151 1    
    58   28  152 1    
    59   28  153 1    
    60   29   30 am   BACKBONE|DICT|INTERRES
    61   29  154 1    
    62   30   31 2    
    63   30   32 1    
    64   32   33 1    
    65   32   34 1    
    66   32  155 1    
    67   33  156 1    
    68   33  157 1    
    69   33  158 1    
    70   34   35 am   BACKBONE|DICT|INTERRES
    71   34  159 1    
    72   35   36 2    
    73   35   37 1    
    74   37   38 1    
    75   37   39 1    
    76   37  160 1    
    77   38  161 1    
    78   38  162 1    
    79   38  163 1    
    80   39   40 am   BACKBONE|DICT|INTERRES
    81   39  164 1    
    82   40   41 2    
    83   40   42 1    
    84   42   43 1    
    85   42   44 1    
    86   42  165 1    
    87   43  166 1    
    88   43  167 1    
    89   43  168 1    
    90   44   45 am   BACKBONE|DICT|INTERRES
    91   44  169 1    
    92   45   46 2    
    93   45   47 1    
    94   47   48 1    
    95   47   49 1    
    96   47  170 1    
    97   48  171 1    
    98   48  172 1    
    99   48  173 1    
   100   49   50 am   BACKBONE|DICT|INTERRES
   101   49  174 1    
   102   50   51 2    
   103   50   52 1    
   104   52   53 1    
   105   52   54 1    
   106   52  175 1    
   107   53  176 1    
   108   53  177 1    
   109   53  178 1    
   110   54   55 am   BACKBONE|DICT|INTERRES
   111   54  179 1    
   112   55   56 2    
   113   55   57 1    
   114   57   58 1    
   115   57   59 1    
   116   57  180 1    
   117   58  181 1    
   118   58  182 1    
   119   58  183 1    
   120   59   60 am   BACKBONE|DICT|INTERRES
   121   59  184 1    
   122   60   61 2    
   123   60   62 1    
   124   62   63 1    
   125   62   64 1    
   126   62  185 1    
   127   63  186 1    
   128   63  187 1    
   129   63  188 1    
   130   64   65 am   BACKBONE|DICT|INTERRES
   131   64  189 1    
   132   65   66 2    
   133   67   68 2    
   134   67   69 am   BACKBONE|DICT|INTERRES
   135   69   70 1    
   136   69  190 1    
   137   70   71 1    
   138   70   72 1    
   139   70  191 1    
   140   71  192 1    
   141   71  193 1    
   142   71  194 1    
   143   72   73 2    
   144   72   74 am   BACKBONE|DICT|INTERRES
   145   74   75 1    
   146   74  195 1    
   147   75   76 1    
   148   75   77 1    
   149   75  196 1    
   150   76  197 1    
   151   76  198 1    
   152   76  199 1    
   153   77   78 2    
   154   77   79 am   BACKBONE|DICT|INTERRES
   155   79   80 1    
   156   79  200 1    
   157   80   81 1    
   158   80   82 1    
   159   80  201 1    
   160   81  202 1    
   161   81  203 1    
   162   81  204 1    
   163   82   83 2    
   164   82   84 am   BACKBONE|DICT|INTERRES
   165   84   85 1    
   166   84  205 1    
   167   85   86 1    
   168   85   87 1    
   169   85  206 1    
   170   86  207 1    
   171   86  208 1    
   172   86  209 1    
   173   87   88 2    
   174   87   89 am   BACKBONE|DICT|INTERRES
   175   89   90 1    
   176   89  210 1    
   177   90   91 1    
   178   90   92 1    
   179   90  211 1    
   180   91  212 1    
   181   91  213 1    
   182   91  214 1    
   183   92   93 2    
   184   92   94 am   BACKBONE|DICT|INTERRES
   185   94   95 1    
   186   94  215 1    
   187   95   96 1    
   188   95   97 1    
   189   95  216 1    
   190   96  217 1    
   191   96  218 1    
   192   96  219 1    
   193   97   98 2    
   194   97   99 am   BACKBONE|DICT|INTERRES
   195   99  100 1    
   196   99  220 1    
   197  100  101 1    
   198  100  102 1    
   199  100  221 1    
   200  101  222 1    
   201  101  223 1    
   202  101  224 1    
   203  102  103 2    
   204  102  104 am   BACKBONE|DICT|INTERRES
   205  104  105 1    
   206  104  225 1    
   207  105  106 1    
   208  105  107 1    
   209  105  226 1    
   210  106  227 1    
   211  106  228 1    
   212  106  229 1    
   213  107  108 2    
   214  107  109 am   BACKBONE|DICT|INTERRES
   215  109  110 1    
   216  109  230 1    
   217  110  111 1    
   218  110  112 1    
   219  110  231 1    
   220  111  232 1    
   221  111  233 1    
   222  111  234 1    
   223  112  113 2    
   224  112  114 am   BACKBONE|DICT|INTERRES
   225  114  115 1    
   226  114  235 1    
   227  115  116 1    
   228  115  117 1    
   229  115  236 1    
   230  116  237 1    
   231  116  238 1    
   232  116  239 1    
   233  117  118 2    
   234  117  119 am   BACKBONE|DICT|INTERRES
   235  119  120 1    
   236  119  240 1    
   237  120  121 1    
   238  120  124 1    
   239  120  241 1    
   240  121  122 am   BACKBONE|DICT|INTERRES
   241  121  123 2    
   242  122  242 1    
   243  122  243 1    
   244  124  125 1    
   245  124  244 1    
   246  124  245 1    
   247  125  126 1    
   248  126  246 1    
   249  126  247 1    
@<TRIPOS>SUBSTRUCTURE
     1 UNK         1 GROUP             0       ****    0 ROOT    
