@<TRIPOS>MOLECULE
3R540
247   249    1
SMALL
USER_CHARGES


@<TRIPOS>ATOM
      1 CA          4.8638  -11.3635  -48.2869 C.3       0 UNK        -0.1800 
      2 C           3.8076  -11.9637  -47.3720 C.2       0 UNK         0.5000 
      3 O           3.5660  -11.4368  -46.2860 O.2       0 UNK        -0.5000 
      4 N           3.1589  -13.0504  -47.8116 N.am      1 UNK        -0.5000 
      5 CA          2.1612  -13.8233  -47.0526 C.3       1 UNK         0.1400 
      6 C6          1.8006  -15.1568  -47.7503 C.3       23 UNK        -0.0398 
      7 S7          3.2609  -16.2148  -48.0221 S.3       23 UNK        -0.2404 
      8 C8          3.3054  -16.3401  -49.8344 C.3       23 UNK        -0.0205 
      9 C9          2.2529  -17.3026  -50.3636 C.ar      23 UNK        -0.0193 
     10 C10         1.1160  -16.8227  -51.0196 C.ar      23 UNK        -0.1150 
     11 C11         0.1825  -17.7109  -51.5617 C.ar      23 UNK        -0.0193 
     12 C12         0.3868  -19.0878  -51.4323 C.ar      23 UNK        -0.1150 
     13 C13         1.5149  -19.5817  -50.7669 C.ar      23 UNK        -0.0193 
     14 C14         2.4421  -18.6813  -50.2350 C.ar      23 UNK        -0.1150 
     15 C15         1.7780  -21.0803  -50.6710 C.3       23 UNK        -0.0205 
     16 S16         0.3516  -22.0293  -50.0597 S.3       23 UNK        -0.2404 
     17 C17         0.1861  -21.4337  -48.3403 C.3       23 UNK        -0.0398 
     18 CA         -0.1755  -22.5865  -47.3733 C.3       11 UNK         0.1400 
     19 N           0.1654  -22.2789  -45.9814 N.am      11 UNK        -0.5000 
     20 C           0.1780  -23.1882  -44.9954 C.2       10 UNK         0.5000 
     21 O          -0.0723  -24.3801  -45.1667 O.2       10 UNK        -0.5000 
     22 CA          0.4560  -22.6788  -43.5711 C.3       10 UNK         0.1400 
     23 CB          1.9536  -22.4110  -43.3636 C.3       10 UNK        -0.1800 
     24 N          -0.3211  -21.4815  -43.2523 N.am      10 UNK        -0.5000 
     25 C          -1.6606  -21.4464  -43.1998 C.2       9 UNK         0.5000 
     26 O          -2.3738  -22.4403  -43.3425 O.2       9 UNK        -0.5000 
     27 CA         -2.3154  -20.0659  -43.0055 C.3       9 UNK         0.1400 
     28 CB         -2.3440  -19.6789  -41.5199 C.3       9 UNK        -0.1800 
     29 N          -1.6580  -19.0094  -43.7773 N.am      9 UNK        -0.5000 
     30 C          -1.5781  -18.9757  -45.1158 C.2       8 UNK         0.5000 
     31 O          -2.0830  -19.8189  -45.8535 O.2       8 UNK        -0.5000 
     32 CA         -0.7431  -17.8427  -45.7347 C.3       8 UNK         0.1400 
     33 CB         -1.5442  -16.5323  -45.7646 C.3       8 UNK        -0.1800 
     34 N           0.5279  -17.6614  -45.0297 N.am      8 UNK        -0.5000 
     35 C           1.5005  -18.5866  -45.0020 C.2       7 UNK         0.5000 
     36 O           1.4600  -19.6369  -45.6443 O.2       7 UNK        -0.5000 
     37 CA          2.6793  -18.3344  -44.0459 C.3       7 UNK         0.1400 
     38 CB          3.7858  -17.5146  -44.7230 C.3       7 UNK        -0.1800 
     39 N           2.2486  -17.6664  -42.8179 N.am      7 UNK        -0.5000 
     40 C           1.5965  -18.2833  -41.8215 C.2       6 UNK         0.5000 
     41 O           1.3234  -19.4828  -41.8320 O.2       6 UNK        -0.5000 
     42 CA          1.1378  -17.4168  -40.6313 C.3       6 UNK         0.1400 
     43 CB          2.2430  -17.3357  -39.5682 C.3       6 UNK        -0.1800 
     44 N           0.7463  -16.0626  -41.0225 N.am      6 UNK        -0.5000 
     45 C          -0.2741  -15.7707  -41.8404 C.2       5 UNK         0.5000 
     46 O          -1.0503  -16.6175  -42.2817 O.2       5 UNK        -0.5000 
     47 CA         -0.4256  -14.3017  -42.2835 C.3       5 UNK         0.1400 
     48 CB         -1.4781  -13.5866  -41.4247 C.3       5 UNK        -0.1800 
     49 N           0.8159  -13.5195  -42.2673 N.am      5 UNK        -0.5000 
     50 C           1.9408  -13.8177  -42.9307 C.2       4 UNK         0.5000 
     51 O           2.0954  -14.8554  -43.5761 O.2       4 UNK        -0.5000 
     52 CA          3.0658  -12.7687  -42.8648 C.3       4 UNK         0.1400 
     53 CB          4.3970  -13.2933  -43.4329 C.3       4 UNK        -0.1800 
     54 N           2.6826  -11.5622  -43.5939 N.am      4 UNK        -0.5000 
     55 C           1.8892  -10.5885  -43.1275 C.2       3 UNK         0.5000 
     56 O           1.4097  -10.5853  -41.9927 O.2       3 UNK        -0.5000 
     57 CA          1.5474   -9.4544  -44.1060 C.3       3 UNK         0.1400 
     58 CB          2.7592   -8.5349  -44.3272 C.3       3 UNK        -0.1800 
     59 N           1.1169  -10.0097  -45.3875 N.am      3 UNK        -0.5000 
     60 C          -0.1603  -10.2021  -45.7465 C.2       2 UNK         0.5000 
     61 O          -1.1244   -9.8369  -45.0729 O.2       2 UNK        -0.5000 
     62 CA         -0.4083  -10.9386  -47.0799 C.3       2 UNK         0.1400 
     63 CB         -0.5364   -9.9343  -48.2353 C.3       2 UNK        -0.1800 
     64 N           0.6442  -11.9043  -47.4005 N.am      2 UNK        -0.5000 
     65 C           0.8824  -13.0262  -46.7058 C.2       1 UNK         0.5000 
     66 O           0.1504  -13.4230  -45.8008 O.2       1 UNK        -0.5000 
     67 C          -1.6463  -23.0349  -47.5308 C.2       11 UNK         0.5000 
     68 O          -1.9172  -23.9496  -48.3104 O.2       11 UNK        -0.5000 
     69 N          -2.5702  -22.4196  -46.7783 N.am      12 UNK        -0.5000 
     70 CA         -3.9852  -22.7956  -46.7124 C.3       12 UNK         0.1400 
     71 CB         -4.7660  -21.7851  -45.8606 C.3       12 UNK        -0.1800 
     72 C          -4.1982  -24.2323  -46.2054 C.2       12 UNK         0.5000 
     73 O          -5.0390  -24.9469  -46.7502 O.2       12 UNK        -0.5000 
     74 N          -3.4097  -24.6410  -45.2043 N.am      13 UNK        -0.5000 
     75 CA         -3.3952  -26.0049  -44.6832 C.3       13 UNK         0.1400 
     76 CB         -2.7119  -26.0156  -43.3067 C.3       13 UNK        -0.1800 
     77 C          -2.7123  -26.9967  -45.6447 C.2       13 UNK         0.5000 
     78 O          -3.2486  -28.0804  -45.8789 O.2       13 UNK        -0.5000 
     79 N          -1.5342  -26.6229  -46.1611 N.am      14 UNK        -0.5000 
     80 CA         -0.6566  -27.5082  -46.9263 C.3       14 UNK         0.1400 
     81 CB          0.7787  -26.9611  -46.8775 C.3       14 UNK        -0.1800 
     82 C          -1.0833  -27.7263  -48.3877 C.2       14 UNK         0.5000 
     83 O          -0.9427  -28.8439  -48.8869 O.2       14 UNK        -0.5000 
     84 N          -1.5433  -26.6651  -49.0623 N.am      15 UNK        -0.5000 
     85 CA         -1.7140  -26.6356  -50.5182 C.3       15 UNK         0.1400 
     86 CB         -0.4350  -26.0559  -51.1532 C.3       15 UNK        -0.1800 
     87 C          -2.9684  -25.8625  -50.9587 C.2       15 UNK         0.5000 
     88 O          -3.0441  -25.4495  -52.1176 O.2       15 UNK        -0.5000 
     89 N          -3.9202  -25.6485  -50.0369 N.am      16 UNK        -0.5000 
     90 CA         -5.1698  -24.8994  -50.2341 C.3       16 UNK         0.1400 
     91 CB         -6.1369  -25.6910  -51.1384 C.3       16 UNK        -0.1800 
     92 C          -4.9381  -23.4490  -50.7153 C.2       16 UNK         0.5000 
     93 O          -5.7233  -22.9246  -51.5072 O.2       16 UNK        -0.5000 
     94 N          -3.8405  -22.8437  -50.2335 N.am      17 UNK        -0.5000 
     95 CA         -3.3388  -21.5132  -50.5801 C.3       17 UNK         0.1400 
     96 CB         -4.2479  -20.4085  -50.0041 C.3       17 UNK        -0.1800 
     97 C          -3.0166  -21.4136  -52.0849 C.2       17 UNK         0.5000 
     98 O          -3.5736  -20.5836  -52.8048 O.2       17 UNK        -0.5000 
     99 N          -2.1391  -22.3298  -52.5226 N.am      18 UNK        -0.5000 
    100 CA        -1.6804  -22.5488  -53.8974 C.3       18 UNK         0.1400 
    101 CB        -0.8277  -21.3588  -54.3849 C.3       18 UNK        -0.1800 
    102 C         -2.8328  -22.9085  -54.8577 C.2       18 UNK         0.5000 
    103 O         -2.8713  -22.4188  -55.9879 O.2       18 UNK        -0.5000 
    104 N         -3.7667  -23.7399  -54.3705 N.am      19 UNK        -0.5000 
    105 CA        -4.9952  -24.2498  -54.9983 C.3       19 UNK         0.1400 
    106 CB        -4.6641  -25.1193  -56.2252 C.3       19 UNK        -0.1800 
    107 C         -6.0600  -23.1881  -55.3501 C.2       19 UNK         0.5000 
    108 O         -7.2524  -23.4525  -55.1951 O.2       19 UNK        -0.5000 
    109 N         -5.6236  -22.0156  -55.8181 N.am      20 UNK        -0.5000 
    110 CA        -6.4469  -20.8940  -56.2671 C.3       20 UNK         0.1400 
    111 CB        -5.6413  -20.1051  -57.3137 C.3       20 UNK        -0.1800 
    112 C         -6.9084  -19.9665  -55.1251 C.2       20 UNK         0.5000 
    113 O         -7.5067  -18.9272  -55.4090 O.2       20 UNK        -0.5000 
    114 N         -6.5909  -20.3134  -53.8686 N.am      21 UNK        -0.5000 
    115 CA        -6.8436  -19.5367  -52.6485 C.3       21 UNK         0.1400 
    116 CB        -8.3538  -19.4730  -52.3406 C.3       21 UNK        -0.1800 
    117 C         -6.1684  -18.1470  -52.6833 C.2       21 UNK         0.5000 
    118 O         -6.7580  -17.1537  -52.2538 O.2       21 UNK        -0.5000 
    119 N         -4.9574  -18.1112  -53.2534 N.am      22 UNK        -0.5000 
    120 CA        -4.1725  -16.9184  -53.6099 C.3       22 UNK         0.1400 
    121 C         -4.8407  -15.9723  -54.6590 C.2       22 UNK         0.5000 
    122 N         -5.8953  -16.3746  -55.3597 N.am      22 UNK        -0.7600 
    123 O         -4.3714  -14.8585  -54.8770 O.2       22 UNK        -0.5000 
    124 C124       -3.6234  -16.1499  -52.3734 C.3       23 UNK        -0.0398 
    125 S125       -2.5236  -17.1531  -51.3138 S.3       23 UNK        -0.2404 
    126 C126       -1.0166  -17.1818  -52.3320 C.3       23 UNK        -0.0205 
    127 H127        4.6029  -10.3349  -48.5357 H         1 UNK         0.0600 
    128 H128        4.9626  -11.9253  -49.2160 H         1 UNK         0.0600 
    129 H129        5.8320  -11.3593  -47.7864 H         1 UNK         0.0600 
    130 H130        3.4084  -13.4362  -48.7105 H         1 UNK         0.3000 
    131 H131        2.6244  -14.0742  -46.0974 H         1 UNK         0.0600 
    132 H132        1.1099  -15.7326  -47.1354 H         1 UNK         0.0800 
    133 H133        1.2866  -14.9714  -48.6944 H         1 UNK         0.0800 
    134 H134        3.1916  -15.3504  -50.2789 H         1 UNK         0.0800 
    135 H135        4.2927  -16.6939  -50.1347 H         1 UNK         0.0800 
    136 H136        0.9689  -15.7576  -51.1308 H         1 UNK         0.1150 
    137 H137       -0.3296  -19.7742  -51.8596 H         1 UNK         0.1150 
    138 H138        3.3264  -19.0502  -49.7344 H         1 UNK         0.1150 
    139 H139        2.0380  -21.4479  -51.6644 H         1 UNK         0.0800 
    140 H140        2.6382  -21.2877  -50.0325 H         1 UNK         0.0800 
    141 H141       -0.5473  -20.6261  -48.2976 H         1 UNK         0.0800 
    142 H142        1.1372  -20.9899  -48.0425 H         1 UNK         0.0800 
    143 H143        0.4417  -23.4456  -47.6460 H         1 UNK         0.0600 
    144 H144        0.4114  -21.3161  -45.7703 H         1 UNK         0.3000 
    145 H145        0.1554  -23.4640  -42.8741 H         1 UNK         0.0600 
    146 H146        2.1618  -22.1105  -42.3367 H         1 UNK         0.0600 
    147 H147        2.5404  -23.3081  -43.5648 H         1 UNK         0.0600 
    148 H148        2.3205  -21.6257  -44.0235 H         1 UNK         0.0600 
    149 H149        0.2022  -20.6362  -43.0501 H         1 UNK         0.3000 
    150 H150       -3.3468  -20.1351  -43.3560 H         1 UNK         0.0600 
    151 H151       -2.8696  -20.4316  -40.9310 H         1 UNK         0.0600 
    152 H152       -2.8584  -18.7295  -41.3694 H         1 UNK         0.0600 
    153 H153       -1.3393  -19.5835  -41.1087 H         1 UNK         0.0600 
    154 H154       -1.2625  -18.2379  -43.2461 H         1 UNK         0.3000 
    155 H155       -0.5180  -18.1219  -46.7666 H         1 UNK         0.0600 
    156 H156       -2.4996  -16.6750  -46.2711 H         1 UNK         0.0600 
    157 H157       -1.0142  -15.7510  -46.3046 H         1 UNK         0.0600 
    158 H158       -1.7603  -16.1598  -44.7644 H         1 UNK         0.0600 
    159 H159        0.6319  -16.8312  -44.4632 H         1 UNK         0.3000 
    160 H160        3.1048  -19.3040  -43.7796 H         1 UNK         0.0600 
    161 H161        3.4299  -16.5341  -45.0377 H         1 UNK         0.0600 
    162 H162        4.1596  -18.0272  -45.6101 H         1 UNK         0.0600 
    163 H163        4.6321  -17.3636  -44.0531 H         1 UNK         0.0600 
    164 H164        2.3655  -16.6586  -42.7910 H         1 UNK         0.3000 
    165 H165        0.2677  -17.9013  -40.1839 H         1 UNK         0.0600 
    166 H166        1.9033  -16.7924  -38.6863 H         1 UNK         0.0600 
    167 H167        2.5419  -18.3320  -39.2397 H         1 UNK         0.0600 
    168 H168        3.1335  -16.8348  -39.9502 H         1 UNK         0.0600 
    169 H169        1.3355  -15.3068  -40.7067 H         1 UNK         0.3000 
    170 H170       -0.7814  -14.3153  -43.3154 H         1 UNK         0.0600 
    171 H171       -2.4264  -14.1257  -41.4378 H         1 UNK         0.0600 
    172 H172       -1.1597  -13.5051  -40.3847 H         1 UNK         0.0600 
    173 H173       -1.6728  -12.5804  -41.7969 H         1 UNK         0.0600 
    174 H174        0.7762  -12.6193  -41.8036 H         1 UNK         0.3000 
    175 H175        3.2282  -12.5198  -41.8140 H         1 UNK         0.0600 
    176 H176        4.3176  -13.5459  -44.4904 H         1 UNK         0.0600 
    177 H177        5.1883  -12.5511  -43.3277 H         1 UNK         0.0600 
    178 H178        4.7206  -14.1912  -42.9050 H         1 UNK         0.0600 
    179 H179        3.0206  -11.4976  -44.5517 H         1 UNK         0.3000 
    180 H180        0.7482   -8.8550  -43.6646 H         1 UNK         0.0600 
    181 H181        3.5992   -9.0670  -44.7755 H         1 UNK         0.0600 
    182 H182        3.1043   -8.1113  -43.3832 H         1 UNK         0.0600 
    183 H183        2.5042   -7.7025  -44.9832 H         1 UNK         0.0600 
    184 H184        1.8503  -10.3878  -45.9764 H         1 UNK         0.3000 
    185 H185       -1.3523  -11.4802  -46.9898 H         1 UNK         0.0600 
    186 H186       -1.3307   -9.2129  -48.0386 H         1 UNK         0.0600 
    187 H187        0.3868   -9.3733  -48.3857 H         1 UNK         0.0600 
    188 H188       -0.7807  -10.4379  -49.1708 H         1 UNK         0.0600 
    189 H189        1.2895  -11.6502  -48.1340 H         1 UNK         0.3000 
    190 H190       -2.2921  -21.6124  -46.2244 H         1 UNK         0.3000 
    191 H191       -4.3950  -22.7428  -47.7185 H         1 UNK         0.0600 
    192 H192       -4.6631  -20.7740  -46.2546 H         1 UNK         0.0600 
    193 H193       -5.8302  -22.0235  -45.8540 H         1 UNK         0.0600 
    194 H194       -4.4280  -21.7791  -44.8257 H         1 UNK         0.0600 
    195 H195       -2.7712  -23.9769  -44.7807 H         1 UNK         0.3000 
    196 H196       -4.4281  -26.3317  -44.5450 H         1 UNK         0.0600 
    197 H197       -2.7034  -27.0203  -42.8824 H         1 UNK         0.0600 
    198 H198       -3.2363  -25.3687  -42.6031 H         1 UNK         0.0600 
    199 H199       -1.6780  -25.6739  -43.3640 H         1 UNK         0.0600 
    200 H200       -1.1391  -25.7274  -45.8832 H         1 UNK         0.3000 
    201 H201       -0.6520  -28.4853  -46.4383 H         1 UNK         0.0600 
    202 H202        1.1365  -26.8837  -45.8506 H         1 UNK         0.0600 
    203 H203        0.8472  -25.9717  -47.3313 H         1 UNK         0.0600 
    204 H204        1.4671  -27.6164  -47.4127 H         1 UNK         0.0600 
    205 H205       -1.6357  -25.7683  -48.5895 H         1 UNK         0.3000 
    206 H206       -1.8539  -27.6489  -50.8992 H         1 UNK         0.0600 
    207 H207        0.4423  -26.6419  -50.8790 H         1 UNK         0.0600 
    208 H208       -0.4932  -26.0575  -52.2423 H         1 UNK         0.0600 
    209 H209       -0.2630  -25.0279  -50.8323 H         1 UNK         0.0600 
    210 H210       -3.7647  -26.0078  -49.1051 H         1 UNK         0.3000 
    211 H211       -5.6434  -24.8137  -49.2570 H         1 UNK         0.0600 
    212 H212       -5.7373  -25.8240  -52.1426 H         1 UNK         0.0600 
    213 H213       -7.0971  -25.1823  -51.2312 H         1 UNK         0.0600 
    214 H214       -6.3354  -26.6802  -50.7264 H         1 UNK         0.0600 
    215 H215       -3.2428  -23.3840  -49.6143 H         1 UNK         0.3000 
    216 H216       -2.3822  -21.3977  -50.0757 H         1 UNK         0.0600 
    217 H217       -4.1034  -19.4543  -50.5085 H         1 UNK         0.0600 
    218 H218       -4.0223  -20.2474  -48.9497 H         1 UNK         0.0600 
    219 H219       -5.3033  -20.6639  -50.0609 H         1 UNK         0.0600 
    220 H220       -1.7800  -22.9878  -51.8457 H         1 UNK         0.3000 
    221 H221       -1.0324  -23.4260  -53.8670 H         1 UNK         0.0600 
    222 H222       -1.4067  -20.4363  -54.4362 H         1 UNK         0.0600 
    223 H223        0.0212  -21.1889  -53.7234 H         1 UNK         0.0600 
    224 H224       -0.4234  -21.5472  -55.3801 H         1 UNK         0.0600 
    225 H225       -3.6012  -24.1045  -53.4362 H         1 UNK         0.3000 
    226 H226       -5.4507  -24.9015  -54.2529 H         1 UNK         0.0600 
    227 H227       -3.9790  -25.9254  -55.9625 H         1 UNK         0.0600 
    228 H228       -5.5661  -25.5787  -56.6313 H         1 UNK         0.0600 
    229 H229       -4.2070  -24.5372  -57.0260 H         1 UNK         0.0600 
    230 H230       -4.6167  -21.9138  -55.9267 H         1 UNK         0.3000 
    231 H231       -7.3450  -21.2845  -56.7497 H         1 UNK         0.0600 
    232 H232       -4.7411  -19.6679  -56.8792 H         1 UNK         0.0600 
    233 H233       -6.2309  -19.2913  -57.7376 H         1 UNK         0.0600 
    234 H234       -5.3361  -20.7458  -58.1413 H         1 UNK         0.0600 
    235 H235       -6.0585  -21.1630  -53.7366 H         1 UNK         0.3000 
    236 H236       -6.3723  -20.0931  -51.8443 H         1 UNK         0.0600 
    237 H237       -8.7915  -20.4709  -52.3138 H         1 UNK         0.0600 
    238 H238       -8.5340  -19.0142  -51.3679 H         1 UNK         0.0600 
    239 H239       -8.8961  -18.8877  -53.0836 H         1 UNK         0.0600 
    240 H240       -4.5206  -19.0026  -53.4700 H         1 UNK         0.3000 
    241 H241       -3.3111  -17.3134  -54.1476 H         1 UNK         0.0600 
    242 H242       -6.2974  -15.7487  -56.0391 H         1 UNK         0.3800 
    243 H243       -6.3252  -17.2794  -55.2047 H         1 UNK         0.3800 
    244 H244       -3.0648  -15.2639  -52.6790 H         1 UNK         0.0800 
    245 H245       -4.4480  -15.7823  -51.7618 H         1 UNK         0.0800 
    246 H246       -1.1857  -17.8068  -53.2099 H         1 UNK         0.0800 
    247 H247       -0.8065  -16.1779  -52.7042 H         1 UNK         0.0800 
@<TRIPOS>BOND
     1    1    2 1    
     2    1  127 1    
     3    1  128 1    
     4    1  129 1    
     5    2    3 2    
     6    2    4 am   BACKBONE|DICT|INTERRES
     7    4    5 1    
     8    4  130 1    
     9    5    6 1    
    10    5   65 1    
    11    5  131 1    
    12    6    7 1    
    13    6  132 1    
    14    6  133 1    
    15    7    8 1    
    16    8    9 1    
    17    8  134 1    
    18    8  135 1    
    19    9   10 ar   
    20    9   14 ar   
    21   10   11 ar   
    22   10  136 1    
    23   11   12 ar   
    24   11  126 1    
    25   12   13 ar   
    26   12  137 1    
    27   13   14 ar   
    28   13   15 1    
    29   14  138 1    
    30   15   16 1    
    31   15  139 1    
    32   15  140 1    
    33   16   17 1    
    34   17   18 1    
    35   17  141 1    
    36   17  142 1    
    37   18   19 1    
    38   18   67 1    
    39   18  143 1    
    40   19   20 am   BACKBONE|DICT|INTERRES
    41   19  144 1    
    42   20   21 2    
    43   20   22 1    
    44   22   23 1    
    45   22   24 1    
    46   22  145 1    
    47   23  146 1    
    48   23  147 1    
    49   23  148 1    
    50   24   25 am   BACKBONE|DICT|INTERRES
    51   24  149 1    
    52   25   26 2    
    53   25   27 1    
    54   27   28 1    
    55   27   29 1    
    56   27  150 1    
    57   28  151 1    
    58   28  152 1    
    59   28  153 1    
    60   29   30 am   BACKBONE|DICT|INTERRES
    61   29  154 1    
    62   30   31 2    
    63   30   32 1    
    64   32   33 1    
    65   32   34 1    
    66   32  155 1    
    67   33  156 1    
    68   33  157 1    
    69   33  158 1    
    70   34   35 am   BACKBONE|DICT|INTERRES
    71   34  159 1    
    72   35   36 2    
    73   35   37 1    
    74   37   38 1    
    75   37   39 1    
    76   37  160 1    
    77   38  161 1    
    78   38  162 1    
    79   38  163 1    
    80   39   40 am   BACKBONE|DICT|INTERRES
    81   39  164 1    
    82   40   41 2    
    83   40   42 1    
    84   42   43 1    
    85   42   44 1    
    86   42  165 1    
    87   43  166 1    
    88   43  167 1    
    89   43  168 1    
    90   44   45 am   BACKBONE|DICT|INTERRES
    91   44  169 1    
    92   45   46 2    
    93   45   47 1    
    94   47   48 1    
    95   47   49 1    
    96   47  170 1    
    97   48  171 1    
    98   48  172 1    
    99   48  173 1    
   100   49   50 am   BACKBONE|DICT|INTERRES
   101   49  174 1    
   102   50   51 2    
   103   50   52 1    
   104   52   53 1    
   105   52   54 1    
   106   52  175 1    
   107   53  176 1    
   108   53  177 1    
   109   53  178 1    
   110   54   55 am   BACKBONE|DICT|INTERRES
   111   54  179 1    
   112   55   56 2    
   113   55   57 1    
   114   57   58 1    
   115   57   59 1    
   116   57  180 1    
   117   58  181 1    
   118   58  182 1    
   119   58  183 1    
   120   59   60 am   BACKBONE|DICT|INTERRES
   121   59  184 1    
   122   60   61 2    
   123   60   62 1    
   124   62   63 1    
   125   62   64 1    
   126   62  185 1    
   127   63  186 1    
   128   63  187 1    
   129   63  188 1    
   130   64   65 am   BACKBONE|DICT|INTERRES
   131   64  189 1    
   132   65   66 2    
   133   67   68 2    
   134   67   69 am   BACKBONE|DICT|INTERRES
   135   69   70 1    
   136   69  190 1    
   137   70   71 1    
   138   70   72 1    
   139   70  191 1    
   140   71  192 1    
   141   71  193 1    
   142   71  194 1    
   143   72   73 2    
   144   72   74 am   BACKBONE|DICT|INTERRES
   145   74   75 1    
   146   74  195 1    
   147   75   76 1    
   148   75   77 1    
   149   75  196 1    
   150   76  197 1    
   151   76  198 1    
   152   76  199 1    
   153   77   78 2    
   154   77   79 am   BACKBONE|DICT|INTERRES
   155   79   80 1    
   156   79  200 1    
   157   80   81 1    
   158   80   82 1    
   159   80  201 1    
   160   81  202 1    
   161   81  203 1    
   162   81  204 1    
   163   82   83 2    
   164   82   84 am   BACKBONE|DICT|INTERRES
   165   84   85 1    
   166   84  205 1    
   167   85   86 1    
   168   85   87 1    
   169   85  206 1    
   170   86  207 1    
   171   86  208 1    
   172   86  209 1    
   173   87   88 2    
   174   87   89 am   BACKBONE|DICT|INTERRES
   175   89   90 1    
   176   89  210 1    
   177   90   91 1    
   178   90   92 1    
   179   90  211 1    
   180   91  212 1    
   181   91  213 1    
   182   91  214 1    
   183   92   93 2    
   184   92   94 am   BACKBONE|DICT|INTERRES
   185   94   95 1    
   186   94  215 1    
   187   95   96 1    
   188   95   97 1    
   189   95  216 1    
   190   96  217 1    
   191   96  218 1    
   192   96  219 1    
   193   97   98 2    
   194   97   99 am   BACKBONE|DICT|INTERRES
   195   99  100 1    
   196   99  220 1    
   197  100  101 1    
   198  100  102 1    
   199  100  221 1    
   200  101  222 1    
   201  101  223 1    
   202  101  224 1    
   203  102  103 2    
   204  102  104 am   BACKBONE|DICT|INTERRES
   205  104  105 1    
   206  104  225 1    
   207  105  106 1    
   208  105  107 1    
   209  105  226 1    
   210  106  227 1    
   211  106  228 1    
   212  106  229 1    
   213  107  108 2    
   214  107  109 am   BACKBONE|DICT|INTERRES
   215  109  110 1    
   216  109  230 1    
   217  110  111 1    
   218  110  112 1    
   219  110  231 1    
   220  111  232 1    
   221  111  233 1    
   222  111  234 1    
   223  112  113 2    
   224  112  114 am   BACKBONE|DICT|INTERRES
   225  114  115 1    
   226  114  235 1    
   227  115  116 1    
   228  115  117 1    
   229  115  236 1    
   230  116  237 1    
   231  116  238 1    
   232  116  239 1    
   233  117  118 2    
   234  117  119 am   BACKBONE|DICT|INTERRES
   235  119  120 1    
   236  119  240 1    
   237  120  121 1    
   238  120  124 1    
   239  120  241 1    
   240  121  122 am   BACKBONE|DICT|INTERRES
   241  121  123 2    
   242  122  242 1    
   243  122  243 1    
   244  124  125 1    
   245  124  244 1    
   246  124  245 1    
   247  125  126 1    
   248  126  246 1    
   249  126  247 1    
@<TRIPOS>SUBSTRUCTURE
     1 UNK         1 GROUP             0       ****    0 ROOT    
