@<TRIPOS>MOLECULE
3R540
247   249    1
SMALL
USER_CHARGES


@<TRIPOS>ATOM
      1 CA         -5.3073  -13.1858  -50.7964 C.3       0 UNK        -0.1800 
      2 C          -3.8954  -12.9891  -50.2609 C.2       0 UNK         0.5000 
      3 O          -3.2500  -11.9912  -50.5826 O.2       0 UNK        -0.5000 
      4 N          -3.4137  -13.9431  -49.4571 N.am      1 UNK        -0.5000 
      5 CA         -2.1018  -13.9424  -48.8073 C.3       1 UNK         0.1400 
      6 C6         -1.8357  -15.3162  -48.1531 C.3       23 UNK        -0.0398 
      7 S7         -0.1109  -15.5802  -47.6238 S.3       23 UNK        -0.2404 
      8 C8         -0.1497  -17.3700  -47.2916 C.3       23 UNK        -0.0205 
      9 C9          0.3697  -18.1882  -48.4650 C.ar      23 UNK        -0.0193 
     10 C10        -0.4352  -18.4219  -49.5832 C.ar      23 UNK        -0.1150 
     11 C11         0.0367  -19.1794  -50.6570 C.ar      23 UNK        -0.0193 
     12 C12         1.3232  -19.7245  -50.6008 C.ar      23 UNK        -0.1150 
     13 C13         2.1417  -19.5049  -49.4868 C.ar      23 UNK        -0.0193 
     14 C14         1.6583  -18.7278  -48.4276 C.ar      23 UNK        -0.1150 
     15 C15         3.5593  -20.0730  -49.4615 C.3       23 UNK        -0.0205 
     16 S16         4.0238  -20.8443  -47.8731 S.3       23 UNK        -0.2404 
     17 C17         2.8113  -22.2000  -47.7599 C.3       23 UNK        -0.0398 
     18 CA          3.3530  -23.4362  -47.0016 C.3       11 UNK         0.1400 
     19 N           3.6731  -23.1187  -45.6054 N.am      11 UNK        -0.5000 
     20 C           4.4161  -23.8861  -44.7965 C.2       10 UNK         0.5000 
     21 O           4.9095  -24.9624  -45.1346 O.2       10 UNK        -0.5000 
     22 CA          4.6320  -23.3680  -43.3650 C.3       10 UNK         0.1400 
     23 CB          5.7477  -22.3116  -43.3262 C.3       10 UNK        -0.1800 
     24 N           3.4008  -22.8005  -42.8166 N.am      10 UNK        -0.5000 
     25 C           2.4403  -23.5199  -42.2193 C.2       9 UNK         0.5000 
     26 O           2.5227  -24.7313  -42.0146 O.2       9 UNK        -0.5000 
     27 CA          1.1655  -22.7697  -41.7835 C.3       9 UNK         0.1400 
     28 CB          1.2864  -22.3114  -40.3227 C.3       9 UNK        -0.1800 
     29 N           0.8528  -21.6150  -42.6268 N.am      9 UNK        -0.5000 
     30 C           0.4903  -21.6982  -43.9145 C.2       8 UNK         0.5000 
     31 O           0.3351  -22.7581  -44.5191 O.2       8 UNK        -0.5000 
     32 CA          0.3096  -20.3815  -44.6826 C.3       8 UNK         0.1400 
     33 CB         -1.1522  -19.9267  -44.6033 C.3       8 UNK        -0.1800 
     34 N           1.2017  -19.3038  -44.2545 N.am      8 UNK        -0.5000 
     35 C           2.5411  -19.3634  -44.3116 C.2       7 UNK         0.5000 
     36 O           3.1607  -20.3819  -44.6190 O.2       7 UNK        -0.5000 
     37 CA          3.3178  -18.0916  -43.9448 C.3       7 UNK         0.1400 
     38 CB          3.3615  -17.1195  -45.1310 C.3       7 UNK        -0.1800 
     39 N           2.7152  -17.4288  -42.7909 N.am      7 UNK        -0.5000 
     40 C           3.1668  -17.5535  -41.5361 C.2       6 UNK         0.5000 
     41 O           4.1942  -18.1606  -41.2314 O.2       6 UNK        -0.5000 
     42 CA          2.3191  -16.9095  -40.4229 C.3       6 UNK         0.1400 
     43 CB          2.7905  -15.4732  -40.1504 C.3       6 UNK        -0.1800 
     44 N           0.8834  -16.8991  -40.7089 N.am      6 UNK        -0.5000 
     45 C           0.1233  -17.9929  -40.8629 C.2       5 UNK         0.5000 
     46 O           0.5540  -19.1450  -40.8067 O.2       5 UNK        -0.5000 
     47 CA         -1.3685  -17.7634  -41.1656 C.3       5 UNK         0.1400 
     48 CB         -2.1668  -17.6731  -39.8565 C.3       5 UNK        -0.1800 
     49 N          -1.6618  -16.5833  -41.9848 N.am      5 UNK        -0.5000 
     50 C          -1.1201  -16.2706  -43.1710 C.2       4 UNK         0.5000 
     51 O          -0.2193  -16.9215  -43.7071 O.2       4 UNK        -0.5000 
     52 CA         -1.6754  -15.0208  -43.8876 C.3       4 UNK         0.1400 
     53 CB         -2.6268  -14.1605  -43.0267 C.3       4 UNK        -0.1800 
     54 N          -0.6142  -14.1843  -44.4470 N.am      4 UNK        -0.5000 
     55 C           0.4256  -13.6389  -43.7987 C.2       3 UNK         0.5000 
     56 O           0.6456  -13.7833  -42.5953 O.2       3 UNK        -0.5000 
     57 CA          1.3777  -12.7708  -44.6434 C.3       3 UNK         0.1400 
     58 CB          2.5923  -13.5903  -45.1001 C.3       3 UNK        -0.1800 
     59 N           0.7233  -12.1933  -45.8204 N.am      3 UNK        -0.5000 
     60 C          -0.1163  -11.1484  -45.7837 C.2       2 UNK         0.5000 
     61 O          -0.3865  -10.5225  -44.7583 O.2       2 UNK        -0.5000 
     62 CA         -0.7723  -10.7413  -47.1165 C.3       2 UNK         0.1400 
     63 CB          0.1052   -9.7235  -47.8612 C.3       2 UNK        -0.1800 
     64 N          -1.0360  -11.8838  -47.9948 N.am      2 UNK        -0.5000 
     65 C          -1.9937  -12.7958  -47.7806 C.2       1 UNK         0.5000 
     66 O          -2.7618  -12.7703  -46.8167 O.2       1 UNK        -0.5000 
     67 C           2.3505  -24.6034  -47.1408 C.2       11 UNK         0.5000 
     68 O           2.3507  -25.2635  -48.1800 O.2       11 UNK        -0.5000 
     69 N           1.4944  -24.8009  -46.1246 N.am      12 UNK        -0.5000 
     70 CA          0.2730  -25.6190  -46.1367 C.3       12 UNK         0.1400 
     71 CB          0.5913  -27.1169  -46.3256 C.3       12 UNK        -0.1800 
     72 C          -0.7474  -25.0653  -47.1565 C.2       12 UNK         0.5000 
     73 O          -1.3394  -25.8176  -47.9326 O.2       12 UNK        -0.5000 
     74 N          -0.8796  -23.7338  -47.1610 N.am      13 UNK        -0.5000 
     75 CA         -1.6236  -22.9630  -48.1513 C.3       13 UNK         0.1400 
     76 CB         -0.9900  -21.5699  -48.2454 C.3       13 UNK        -0.1800 
     77 C          -3.1158  -22.8248  -47.8147 C.2       13 UNK         0.5000 
     78 O          -3.5129  -22.9699  -46.6566 O.2       13 UNK        -0.5000 
     79 N          -3.9011  -22.4713  -48.8411 N.am      14 UNK        -0.5000 
     80 CA         -5.3096  -22.0885  -48.7220 C.3       14 UNK         0.1400 
     81 CB         -5.9677  -22.2091  -50.1034 C.3       14 UNK        -0.1800 
     82 C          -5.4896  -20.6617  -48.1623 C.2       14 UNK         0.5000 
     83 O          -6.5217  -20.3758  -47.5548 O.2       14 UNK        -0.5000 
     84 N          -4.4812  -19.8022  -48.3780 N.am      15 UNK        -0.5000 
     85 CA         -4.3003  -18.4294  -47.8881 C.3       15 UNK         0.1400 
     86 CB         -4.2518  -18.3874  -46.3499 C.3       15 UNK        -0.1800 
     87 C          -5.2970  -17.3906  -48.4362 C.2       15 UNK         0.5000 
     88 O          -4.8656  -16.3514  -48.9356 O.2       15 UNK        -0.5000 
     89 N          -6.5990  -17.6662  -48.3140 N.am      16 UNK        -0.5000 
     90 CA         -7.6800  -16.7806  -48.7507 C.3       16 UNK         0.1400 
     91 CB         -8.9387  -17.0902  -47.9259 C.3       16 UNK        -0.1800 
     92 C          -7.9786  -16.9078  -50.2554 C.2       16 UNK         0.5000 
     93 O          -8.4422  -15.9446  -50.8674 O.2       16 UNK        -0.5000 
     94 N          -7.7223  -18.0954  -50.8158 N.am      17 UNK        -0.5000 
     95 CA         -7.8938  -18.4123  -52.2318 C.3       17 UNK         0.1400 
     96 CB         -8.1556  -19.9222  -52.3571 C.3       17 UNK        -0.1800 
     97 C          -6.6663  -17.9915  -53.0636 C.2       17 UNK         0.5000 
     98 O          -5.6474  -17.5687  -52.5105 O.2       17 UNK        -0.5000 
     99 N          -6.7883  -18.1343  -54.3898 N.am      18 UNK        -0.5000 
    100 CA        -5.7122  -17.9313  -55.3615 C.3       18 UNK         0.1400 
    101 CB        -6.3027  -18.0358  -56.7766 C.3       18 UNK        -0.1800 
    102 C         -4.5651  -18.9461  -55.1871 C.2       18 UNK         0.5000 
    103 O         -4.7838  -20.0412  -54.6644 O.2       18 UNK        -0.5000 
    104 N         -3.3712  -18.5783  -55.6723 N.am      19 UNK        -0.5000 
    105 CA        -2.1174  -19.3249  -55.5130 C.3       19 UNK         0.1400 
    106 CB        -0.9738  -18.5369  -56.1683 C.3       19 UNK        -0.1800 
    107 C         -2.1371  -20.7780  -56.0266 C.2       19 UNK         0.5000 
    108 O         -1.3935  -21.6099  -55.5073 O.2       19 UNK        -0.5000 
    109 N         -3.0115  -21.0718  -56.9983 N.am      20 UNK        -0.5000 
    110 CA        -3.2630  -22.4155  -57.5227 C.3       20 UNK         0.1400 
    111 CB        -4.2093  -22.3100  -58.7282 C.3       20 UNK        -0.1800 
    112 C         -3.8332  -23.3945  -56.4745 C.2       20 UNK         0.5000 
    113 O         -3.5945  -24.5978  -56.5831 O.2       20 UNK        -0.5000 
    114 N         -4.5526  -22.8724  -55.4700 N.am      21 UNK        -0.5000 
    115 CA        -5.1117  -23.6510  -54.3633 C.3       21 UNK         0.1400 
    116 CB        -6.2925  -22.8789  -53.7567 C.3       21 UNK        -0.1800 
    117 C         -4.0709  -23.9824  -53.2757 C.2       21 UNK         0.5000 
    118 O         -4.3235  -24.8653  -52.4555 O.2       21 UNK        -0.5000 
    119 N         -2.9311  -23.2783  -53.2754 N.am      22 UNK        -0.5000 
    120 CA        -1.8282  -23.4648  -52.3184 C.3       22 UNK         0.1400 
    121 C         -0.8903  -24.6629  -52.6494 C.2       22 UNK         0.5000 
    122 N         -1.0458  -25.3451  -53.7782 N.am      22 UNK        -0.7600 
    123 O         -0.0070  -24.9853  -51.8610 O.2       22 UNK        -0.5000 
    124 C124       -1.0084  -22.1642  -52.1090 C.3       23 UNK        -0.0398 
    125 S125       -2.0426  -20.7219  -51.6826 S.3       23 UNK        -0.2404 
    126 C126       -0.8398  -19.3695  -51.8859 C.3       23 UNK        -0.0205 
    127 H127       -5.9527  -12.3738  -50.4617 H         1 UNK         0.0600 
    128 H128       -5.7421  -14.1273  -50.4584 H         1 UNK         0.0600 
    129 H129       -5.2987  -13.1900  -51.8863 H         1 UNK         0.0600 
    130 H130       -4.0037  -14.7452  -49.2428 H         1 UNK         0.3000 
    131 H131       -1.3558  -13.7898  -49.5902 H         1 UNK         0.0600 
    132 H132       -2.5007  -15.4807  -47.3032 H         1 UNK         0.0800 
    133 H133       -2.0802  -16.0909  -48.8764 H         1 UNK         0.0800 
    134 H134        0.4461  -17.5699  -46.4020 H         1 UNK         0.0800 
    135 H135       -1.1639  -17.6829  -47.0449 H         1 UNK         0.0800 
    136 H136       -1.4329  -18.0168  -49.6313 H         1 UNK         0.1150 
    137 H137        1.6917  -20.3072  -51.4332 H         1 UNK         0.1150 
    138 H138        2.2875  -18.5460  -47.5692 H         1 UNK         0.1150 
    139 H139        3.6950  -20.8069  -50.2574 H         1 UNK         0.0800 
    140 H140        4.2578  -19.2619  -49.6702 H         1 UNK         0.0800 
    141 H141        1.9197  -21.8128  -47.2668 H         1 UNK         0.0800 
    142 H142        2.5109  -22.4749  -48.7732 H         1 UNK         0.0800 
    143 H143        4.2767  -23.7532  -47.4908 H         1 UNK         0.0600 
    144 H144        3.3722  -22.2083  -45.2690 H         1 UNK         0.3000 
    145 H145        4.9495  -24.2095  -42.7454 H         1 UNK         0.0600 
    146 H146        5.9217  -21.9601  -42.3092 H         1 UNK         0.0600 
    147 H147        5.5115  -21.4446  -43.9437 H         1 UNK         0.0600 
    148 H148        6.6875  -22.7264  -43.6925 H         1 UNK         0.0600 
    149 H149        3.2331  -21.8203  -43.0051 H         1 UNK         0.3000 
    150 H150        0.3320  -23.4719  -41.8523 H         1 UNK         0.0600 
    151 H151        1.5086  -23.1521  -39.6643 H         1 UNK         0.0600 
    152 H152        0.3565  -21.8624  -39.9730 H         1 UNK         0.0600 
    153 H153        2.0812  -21.5748  -40.1977 H         1 UNK         0.0600 
    154 H154        0.9291  -20.7010  -42.1930 H         1 UNK         0.3000 
    155 H155        0.5524  -20.5783  -45.7266 H         1 UNK         0.0600 
    156 H156       -1.8179  -20.6755  -45.0347 H         1 UNK         0.0600 
    157 H157       -1.3110  -18.9957  -45.1426 H         1 UNK         0.0600 
    158 H158       -1.4669  -19.7741  -43.5737 H         1 UNK         0.0600 
    159 H159        0.7529  -18.4293  -43.9917 H         1 UNK         0.3000 
    160 H160        4.3457  -18.3870  -43.7244 H         1 UNK         0.0600 
    161 H161        2.3693  -16.7500  -45.3882 H         1 UNK         0.0600 
    162 H162        3.7801  -17.6005  -46.0156 H         1 UNK         0.0600 
    163 H163        3.9925  -16.2604  -44.9054 H         1 UNK         0.0600 
    164 H164        1.8370  -16.9482  -42.9447 H         1 UNK         0.3000 
    165 H165        2.4701  -17.4967  -39.5147 H         1 UNK         0.0600 
    166 H166        2.2435  -15.0280  -39.3192 H         1 UNK         0.0600 
    167 H167        3.8495  -15.4527  -39.8902 H         1 UNK         0.0600 
    168 H168        2.6551  -14.8335  -41.0232 H         1 UNK         0.0600 
    169 H169        0.4499  -15.9931  -40.8194 H         1 UNK         0.3000 
    170 H170       -1.7289  -18.6356  -41.7091 H         1 UNK         0.0600 
    171 H171       -1.9898  -18.5477  -39.2289 H         1 UNK         0.0600 
    172 H172       -1.8902  -16.7915  -39.2767 H         1 UNK         0.0600 
    173 H173       -3.2387  -17.6264  -40.0493 H         1 UNK         0.0600 
    174 H174       -2.3772  -15.9690  -41.6244 H         1 UNK         0.3000 
    175 H175       -2.2466  -15.3944  -44.7382 H         1 UNK         0.0600 
    176 H176       -2.1371  -13.7838  -42.1277 H         1 UNK         0.0600 
    177 H177       -2.9831  -13.2983  -43.5913 H         1 UNK         0.0600 
    178 H178       -3.5096  -14.7232  -42.7213 H         1 UNK         0.0600 
    179 H179       -0.6753  -14.0182  -45.4402 H         1 UNK         0.3000 
    180 H180        1.7359  -11.9596  -44.0059 H         1 UNK         0.0600 
    181 H181        3.0930  -14.0535  -44.2488 H         1 UNK         0.0600 
    182 H182        3.3252  -12.9606  -45.6045 H         1 UNK         0.0600 
    183 H183        2.3029  -14.3842  -45.7888 H         1 UNK         0.0600 
    184 H184        0.8971  -12.6438  -46.7069 H         1 UNK         0.3000 
    185 H185       -1.7252  -10.2609  -46.8836 H         1 UNK         0.0600 
    186 H186        0.3002   -8.8482  -47.2401 H         1 UNK         0.0600 
    187 H187        1.0698  -10.1493  -48.1403 H         1 UNK         0.0600 
    188 H188       -0.3834   -9.3726  -48.7704 H         1 UNK         0.0600 
    189 H189       -0.4602  -11.9596  -48.8212 H         1 UNK         0.3000 
    190 H190        1.5525  -24.1596  -45.3413 H         1 UNK         0.3000 
    191 H191       -0.1829  -25.5026  -45.1524 H         1 UNK         0.0600 
    192 H192       -0.3050  -27.7227  -46.1883 H         1 UNK         0.0600 
    193 H193        1.3284  -27.4571  -45.5983 H         1 UNK         0.0600 
    194 H194        0.9778  -27.3322  -47.3218 H         1 UNK         0.0600 
    195 H195       -0.4318  -23.2148  -46.4155 H         1 UNK         0.3000 
    196 H196       -1.5311  -23.4532  -49.1220 H         1 UNK         0.0600 
    197 H197       -0.9730  -21.0683  -47.2813 H         1 UNK         0.0600 
    198 H198        0.0276  -21.6210  -48.6286 H         1 UNK         0.0600 
    199 H199       -1.5514  -20.9245  -48.9161 H         1 UNK         0.0600 
    200 H200       -3.4950  -22.3798  -49.7609 H         1 UNK         0.3000 
    201 H201       -5.8081  -22.7809  -48.0403 H         1 UNK         0.0600 
    202 H202       -7.0256  -21.9477  -50.0569 H         1 UNK         0.0600 
    203 H203       -5.9032  -23.2295  -50.4820 H         1 UNK         0.0600 
    204 H204       -5.4917  -21.5519  -50.8324 H         1 UNK         0.0600 
    205 H205       -3.7172  -20.1464  -48.9402 H         1 UNK         0.3000 
    206 H206       -3.3159  -18.1307  -48.2462 H         1 UNK         0.0600 
    207 H207       -3.5399  -19.1131  -45.9614 H         1 UNK         0.0600 
    208 H208       -3.9454  -17.4027  -45.9947 H         1 UNK         0.0600 
    209 H209       -5.2223  -18.6081  -45.9045 H         1 UNK         0.0600 
    210 H210       -6.8553  -18.5598  -47.9014 H         1 UNK         0.3000 
    211 H211       -7.3934  -15.7448  -48.5555 H         1 UNK         0.0600 
    212 H212       -9.2693  -18.1200  -48.0673 H         1 UNK         0.0600 
    213 H213       -9.7642  -16.4370  -48.2116 H         1 UNK         0.0600 
    214 H214       -8.7585  -16.9391  -46.8614 H         1 UNK         0.0600 
    215 H215       -7.2914  -18.8047  -50.2434 H         1 UNK         0.3000 
    216 H216       -8.7643  -17.8770  -52.6171 H         1 UNK         0.0600 
    217 H217       -9.0158  -20.2259  -51.7602 H         1 UNK         0.0600 
    218 H218       -7.2960  -20.5001  -52.0236 H         1 UNK         0.0600 
    219 H219       -8.3623  -20.2097  -53.3884 H         1 UNK         0.0600 
    220 H220       -7.6484  -18.5123  -54.7577 H         1 UNK         0.3000 
    221 H221       -5.3110  -16.9261  -55.2173 H         1 UNK         0.0600 
    222 H222       -5.5424  -17.8497  -57.5362 H         1 UNK         0.0600 
    223 H223       -6.7198  -19.0259  -56.9661 H         1 UNK         0.0600 
    224 H224       -7.0953  -17.3029  -56.9288 H         1 UNK         0.0600 
    225 H225       -3.2907  -17.6753  -56.1171 H         1 UNK         0.3000 
    226 H226       -1.9227  -19.3776  -54.4429 H         1 UNK         0.0600 
    227 H227       -0.8684  -17.5480  -55.7219 H         1 UNK         0.0600 
    228 H228       -0.0202  -19.0513  -56.0402 H         1 UNK         0.0600 
    229 H229       -1.1369  -18.4086  -57.2390 H         1 UNK         0.0600 
    230 H230       -3.5894  -20.3274  -57.3592 H         1 UNK         0.3000 
    231 H231       -2.3106  -22.8230  -57.8680 H         1 UNK         0.0600 
    232 H232       -4.4004  -23.2924  -59.1622 H         1 UNK         0.0600 
    233 H233       -3.7807  -21.6873  -59.5137 H         1 UNK         0.0600 
    234 H234       -5.1724  -21.8821  -58.4468 H         1 UNK         0.0600 
    235 H235       -4.6686  -21.8646  -55.4086 H         1 UNK         0.3000 
    236 H236       -5.4929  -24.5965  -54.7547 H         1 UNK         0.0600 
    237 H237       -7.0393  -22.6345  -54.5122 H         1 UNK         0.0600 
    238 H238       -6.7898  -23.4661  -52.9839 H         1 UNK         0.0600 
    239 H239       -5.9614  -21.9481  -53.2977 H         1 UNK         0.0600 
    240 H240       -2.7797  -22.5842  -53.9953 H         1 UNK         0.3000 
    241 H241       -2.2775  -23.7126  -51.3560 H         1 UNK         0.0600 
    242 H242       -1.7649  -25.0906  -54.4374 H         1 UNK         0.3800 
    243 H243       -0.4338  -26.1208  -53.9771 H         1 UNK         0.3800 
    244 H244       -0.4397  -21.9326  -53.0107 H         1 UNK         0.0800 
    245 H245       -0.2756  -22.2987  -51.3113 H         1 UNK         0.0800 
    246 H246       -1.3883  -18.4467  -52.0813 H         1 UNK         0.0800 
    247 H247       -0.2227  -19.5438  -52.7683 H         1 UNK         0.0800 
@<TRIPOS>BOND
     1    1    2 1    
     2    1  127 1    
     3    1  128 1    
     4    1  129 1    
     5    2    3 2    
     6    2    4 am   BACKBONE|DICT|INTERRES
     7    4    5 1    
     8    4  130 1    
     9    5    6 1    
    10    5   65 1    
    11    5  131 1    
    12    6    7 1    
    13    6  132 1    
    14    6  133 1    
    15    7    8 1    
    16    8    9 1    
    17    8  134 1    
    18    8  135 1    
    19    9   10 ar   
    20    9   14 ar   
    21   10   11 ar   
    22   10  136 1    
    23   11   12 ar   
    24   11  126 1    
    25   12   13 ar   
    26   12  137 1    
    27   13   14 ar   
    28   13   15 1    
    29   14  138 1    
    30   15   16 1    
    31   15  139 1    
    32   15  140 1    
    33   16   17 1    
    34   17   18 1    
    35   17  141 1    
    36   17  142 1    
    37   18   19 1    
    38   18   67 1    
    39   18  143 1    
    40   19   20 am   BACKBONE|DICT|INTERRES
    41   19  144 1    
    42   20   21 2    
    43   20   22 1    
    44   22   23 1    
    45   22   24 1    
    46   22  145 1    
    47   23  146 1    
    48   23  147 1    
    49   23  148 1    
    50   24   25 am   BACKBONE|DICT|INTERRES
    51   24  149 1    
    52   25   26 2    
    53   25   27 1    
    54   27   28 1    
    55   27   29 1    
    56   27  150 1    
    57   28  151 1    
    58   28  152 1    
    59   28  153 1    
    60   29   30 am   BACKBONE|DICT|INTERRES
    61   29  154 1    
    62   30   31 2    
    63   30   32 1    
    64   32   33 1    
    65   32   34 1    
    66   32  155 1    
    67   33  156 1    
    68   33  157 1    
    69   33  158 1    
    70   34   35 am   BACKBONE|DICT|INTERRES
    71   34  159 1    
    72   35   36 2    
    73   35   37 1    
    74   37   38 1    
    75   37   39 1    
    76   37  160 1    
    77   38  161 1    
    78   38  162 1    
    79   38  163 1    
    80   39   40 am   BACKBONE|DICT|INTERRES
    81   39  164 1    
    82   40   41 2    
    83   40   42 1    
    84   42   43 1    
    85   42   44 1    
    86   42  165 1    
    87   43  166 1    
    88   43  167 1    
    89   43  168 1    
    90   44   45 am   BACKBONE|DICT|INTERRES
    91   44  169 1    
    92   45   46 2    
    93   45   47 1    
    94   47   48 1    
    95   47   49 1    
    96   47  170 1    
    97   48  171 1    
    98   48  172 1    
    99   48  173 1    
   100   49   50 am   BACKBONE|DICT|INTERRES
   101   49  174 1    
   102   50   51 2    
   103   50   52 1    
   104   52   53 1    
   105   52   54 1    
   106   52  175 1    
   107   53  176 1    
   108   53  177 1    
   109   53  178 1    
   110   54   55 am   BACKBONE|DICT|INTERRES
   111   54  179 1    
   112   55   56 2    
   113   55   57 1    
   114   57   58 1    
   115   57   59 1    
   116   57  180 1    
   117   58  181 1    
   118   58  182 1    
   119   58  183 1    
   120   59   60 am   BACKBONE|DICT|INTERRES
   121   59  184 1    
   122   60   61 2    
   123   60   62 1    
   124   62   63 1    
   125   62   64 1    
   126   62  185 1    
   127   63  186 1    
   128   63  187 1    
   129   63  188 1    
   130   64   65 am   BACKBONE|DICT|INTERRES
   131   64  189 1    
   132   65   66 2    
   133   67   68 2    
   134   67   69 am   BACKBONE|DICT|INTERRES
   135   69   70 1    
   136   69  190 1    
   137   70   71 1    
   138   70   72 1    
   139   70  191 1    
   140   71  192 1    
   141   71  193 1    
   142   71  194 1    
   143   72   73 2    
   144   72   74 am   BACKBONE|DICT|INTERRES
   145   74   75 1    
   146   74  195 1    
   147   75   76 1    
   148   75   77 1    
   149   75  196 1    
   150   76  197 1    
   151   76  198 1    
   152   76  199 1    
   153   77   78 2    
   154   77   79 am   BACKBONE|DICT|INTERRES
   155   79   80 1    
   156   79  200 1    
   157   80   81 1    
   158   80   82 1    
   159   80  201 1    
   160   81  202 1    
   161   81  203 1    
   162   81  204 1    
   163   82   83 2    
   164   82   84 am   BACKBONE|DICT|INTERRES
   165   84   85 1    
   166   84  205 1    
   167   85   86 1    
   168   85   87 1    
   169   85  206 1    
   170   86  207 1    
   171   86  208 1    
   172   86  209 1    
   173   87   88 2    
   174   87   89 am   BACKBONE|DICT|INTERRES
   175   89   90 1    
   176   89  210 1    
   177   90   91 1    
   178   90   92 1    
   179   90  211 1    
   180   91  212 1    
   181   91  213 1    
   182   91  214 1    
   183   92   93 2    
   184   92   94 am   BACKBONE|DICT|INTERRES
   185   94   95 1    
   186   94  215 1    
   187   95   96 1    
   188   95   97 1    
   189   95  216 1    
   190   96  217 1    
   191   96  218 1    
   192   96  219 1    
   193   97   98 2    
   194   97   99 am   BACKBONE|DICT|INTERRES
   195   99  100 1    
   196   99  220 1    
   197  100  101 1    
   198  100  102 1    
   199  100  221 1    
   200  101  222 1    
   201  101  223 1    
   202  101  224 1    
   203  102  103 2    
   204  102  104 am   BACKBONE|DICT|INTERRES
   205  104  105 1    
   206  104  225 1    
   207  105  106 1    
   208  105  107 1    
   209  105  226 1    
   210  106  227 1    
   211  106  228 1    
   212  106  229 1    
   213  107  108 2    
   214  107  109 am   BACKBONE|DICT|INTERRES
   215  109  110 1    
   216  109  230 1    
   217  110  111 1    
   218  110  112 1    
   219  110  231 1    
   220  111  232 1    
   221  111  233 1    
   222  111  234 1    
   223  112  113 2    
   224  112  114 am   BACKBONE|DICT|INTERRES
   225  114  115 1    
   226  114  235 1    
   227  115  116 1    
   228  115  117 1    
   229  115  236 1    
   230  116  237 1    
   231  116  238 1    
   232  116  239 1    
   233  117  118 2    
   234  117  119 am   BACKBONE|DICT|INTERRES
   235  119  120 1    
   236  119  240 1    
   237  120  121 1    
   238  120  124 1    
   239  120  241 1    
   240  121  122 am   BACKBONE|DICT|INTERRES
   241  121  123 2    
   242  122  242 1    
   243  122  243 1    
   244  124  125 1    
   245  124  244 1    
   246  124  245 1    
   247  125  126 1    
   248  126  246 1    
   249  126  247 1    
@<TRIPOS>SUBSTRUCTURE
     1 UNK         1 GROUP             0       ****    0 ROOT    
