@<TRIPOS>MOLECULE
3R540
247   249    1
SMALL
USER_CHARGES


@<TRIPOS>ATOM
      1 CA          1.2641  -12.9203  -45.1868 C.3       0 UNK        -0.1800 
      2 C          -0.2206  -12.9768  -45.5160 C.2       0 UNK         0.5000 
      3 O          -1.0383  -12.4850  -44.7380 O.2       0 UNK        -0.5000 
      4 N          -0.5652  -13.5550  -46.6758 N.am      1 UNK        -0.5000 
      5 CA         -1.9343  -13.8300  -47.1441 C.3       1 UNK         0.1400 
      6 C6         -1.9482  -14.5494  -48.5165 C.3       23 UNK        -0.0398 
      7 S7         -0.9276  -16.0630  -48.5849 S.3       23 UNK        -0.2404 
      8 C8          0.3948  -15.5421  -49.7288 C.3       23 UNK        -0.0205 
      9 C9          1.1604  -16.7163  -50.3261 C.ar      23 UNK        -0.0193 
     10 C10         1.2959  -16.8279  -51.7137 C.ar      23 UNK        -0.1150 
     11 C11         2.0293  -17.8761  -52.2774 C.ar      23 UNK        -0.0193 
     12 C12         2.6242  -18.8237  -51.4397 C.ar      23 UNK        -0.1150 
     13 C13         2.5012  -18.7245  -50.0515 C.ar      23 UNK        -0.0193 
     14 C14         1.7731  -17.6648  -49.5015 C.ar      23 UNK        -0.1150 
     15 C15         3.1845  -19.7435  -49.1494 C.3       23 UNK        -0.0205 
     16 S16         2.4842  -21.4159  -49.3297 S.3       23 UNK        -0.2404 
     17 C17         0.7700  -21.1422  -48.7776 C.3       23 UNK        -0.0398 
     18 CA          0.1470  -22.3776  -48.0885 C.3       11 UNK         0.1400 
     19 N           0.9465  -22.8664  -46.9609 N.am      11 UNK        -0.5000 
     20 C           0.7455  -24.0385  -46.3429 C.2       10 UNK         0.5000 
     21 O          -0.1628  -24.8184  -46.6298 O.2       10 UNK        -0.5000 
     22 CA          1.6961  -24.3759  -45.1810 C.3       10 UNK         0.1400 
     23 CB          2.9823  -25.0229  -45.7153 C.3       10 UNK        -0.1800 
     24 N           2.0529  -23.2315  -44.3397 N.am      10 UNK        -0.5000 
     25 C           1.2128  -22.3918  -43.7220 C.2       9 UNK         0.5000 
     26 O          -0.0097  -22.4189  -43.8686 O.2       9 UNK        -0.5000 
     27 CA          1.8396  -21.3196  -42.8105 C.3       9 UNK         0.1400 
     28 CB          2.2171  -21.9065  -41.4382 C.3       9 UNK        -0.1800 
     29 N           2.9613  -20.5874  -43.4157 N.am      9 UNK        -0.5000 
     30 C           4.1774  -21.0292  -43.7770 C.2       8 UNK         0.5000 
     31 O           4.5593  -22.1876  -43.6063 O.2       8 UNK        -0.5000 
     32 CA          5.1125  -20.0375  -44.5006 C.3       8 UNK         0.1400 
     33 CB          5.3558  -20.5034  -45.9457 C.3       8 UNK        -0.1800 
     34 N           4.5842  -18.6720  -44.5348 N.am      8 UNK        -0.5000 
     35 C           4.7261  -17.7700  -43.5541 C.2       7 UNK         0.5000 
     36 O           5.3820  -17.9670  -42.5309 O.2       7 UNK        -0.5000 
     37 CA          3.9785  -16.4331  -43.7364 C.3       7 UNK         0.1400 
     38 CB          4.8876  -15.3909  -44.4052 C.3       7 UNK        -0.1800 
     39 N           2.7365  -16.5517  -44.5097 N.am      7 UNK        -0.5000 
     40 C           1.6651  -17.2561  -44.1215 C.2       6 UNK         0.5000 
     41 O           1.6300  -17.9409  -43.0977 O.2       6 UNK        -0.5000 
     42 CA          0.4544  -17.2539  -45.0725 C.3       6 UNK         0.1400 
     43 CB          0.4844  -18.5253  -45.9352 C.3       6 UNK        -0.1800 
     44 N          -0.8295  -17.2053  -44.3720 N.am      6 UNK        -0.5000 
     45 C          -1.2032  -16.2875  -43.4723 C.2       5 UNK         0.5000 
     46 O          -0.5036  -15.3333  -43.1248 O.2       5 UNK        -0.5000 
     47 CA         -2.5890  -16.5022  -42.8347 C.3       5 UNK         0.1400 
     48 CB         -2.5114  -17.5549  -41.7172 C.3       5 UNK        -0.1800 
     49 N          -3.1104  -15.2571  -42.2743 N.am      5 UNK        -0.5000 
     50 C          -3.6098  -14.2493  -42.9998 C.2       4 UNK         0.5000 
     51 O          -3.8290  -14.3306  -44.2088 O.2       4 UNK        -0.5000 
     52 CA         -3.9195  -12.9330  -42.2661 C.3       4 UNK         0.1400 
     53 CB         -3.4943  -12.9193  -40.7784 C.3       4 UNK        -0.1800 
     54 N          -3.2751  -11.8399  -42.9883 N.am      4 UNK        -0.5000 
     55 C          -3.5969  -10.5457  -42.8818 C.2       3 UNK         0.5000 
     56 O          -4.5191  -10.1234  -42.1826 O.2       3 UNK        -0.5000 
     57 CA         -2.7483   -9.5526  -43.6893 C.3       3 UNK         0.1400 
     58 CB         -1.3696   -9.3599  -43.0361 C.3       3 UNK        -0.1800 
     59 N          -2.5686  -10.0041  -45.0673 N.am      3 UNK        -0.5000 
     60 C          -3.2778   -9.5583  -46.1129 C.2       2 UNK         0.5000 
     61 O          -4.1779   -8.7223  -46.0210 O.2       2 UNK        -0.5000 
     62 CA         -2.9152  -10.1139  -47.5046 C.3       2 UNK         0.1400 
     63 CB         -2.0230   -9.1174  -48.2613 C.3       2 UNK        -0.1800 
     64 N          -2.2323  -11.4059  -47.4494 N.am      2 UNK        -0.5000 
     65 C          -2.8401  -12.5788  -47.2247 C.2       1 UNK         0.5000 
     66 O          -4.0594  -12.6979  -47.1017 O.2       1 UNK        -0.5000 
     67 C          -1.3156  -22.0837  -47.6920 C.2       11 UNK         0.5000 
     68 O          -2.2180  -22.2824  -48.5076 O.2       11 UNK        -0.5000 
     69 N          -1.5142  -21.6216  -46.4488 N.am      12 UNK        -0.5000 
     70 CA         -2.8264  -21.3704  -45.8593 C.3       12 UNK         0.1400 
     71 CB         -2.7143  -20.2752  -44.7889 C.3       12 UNK        -0.1800 
     72 C          -3.4299  -22.6568  -45.2762 C.2       12 UNK         0.5000 
     73 O          -4.6242  -22.8951  -45.4542 O.2       12 UNK        -0.5000 
     74 N          -2.5917  -23.4764  -44.6230 N.am      13 UNK        -0.5000 
     75 CA         -2.9647  -24.7587  -44.0182 C.3       13 UNK         0.1400 
     76 CB         -1.7587  -25.3453  -43.2717 C.3       13 UNK        -0.1800 
     77 C          -3.5211  -25.7761  -45.0319 C.2       13 UNK         0.5000 
     78 O          -4.4351  -26.5296  -44.6945 O.2       13 UNK        -0.5000 
     79 N          -3.0165  -25.7370  -46.2728 N.am      14 UNK        -0.5000 
     80 CA         -3.5088  -26.4870  -47.4314 C.3       14 UNK         0.1400 
     81 CB         -2.3929  -26.5298  -48.4906 C.3       14 UNK        -0.1800 
     82 C          -4.8328  -25.9158  -47.9951 C.2       14 UNK         0.5000 
     83 O          -4.9384  -25.6765  -49.1996 O.2       14 UNK        -0.5000 
     84 N          -5.8106  -25.6732  -47.1082 N.am      15 UNK        -0.5000 
     85 CA         -7.1634  -25.1518  -47.3571 C.3       15 UNK         0.1400 
     86 CB         -8.0154  -26.2320  -48.0546 C.3       15 UNK        -0.1800 
     87 C          -7.1993  -23.8034  -48.1136 C.2       15 UNK         0.5000 
     88 O          -8.1741  -23.5167  -48.8103 O.2       15 UNK        -0.5000 
     89 N          -6.1125  -23.0256  -47.9990 N.am      16 UNK        -0.5000 
     90 CA         -5.7804  -21.8109  -48.7524 C.3       16 UNK         0.1400 
     91 CB         -6.7388  -20.6609  -48.3860 C.3       16 UNK        -0.1800 
     92 C          -5.6593  -22.0086  -50.2811 C.2       16 UNK         0.5000 
     93 O          -5.5536  -21.0199  -51.0070 O.2       16 UNK        -0.5000 
     94 N          -5.6522  -23.2619  -50.7584 N.am      17 UNK        -0.5000 
     95 CA         -5.6010  -23.6034  -52.1782 C.3       17 UNK         0.1400 
     96 CB         -6.0142  -25.0695  -52.3737 C.3       17 UNK        -0.1800 
     97 C          -4.2118  -23.3400  -52.7723 C.2       17 UNK         0.5000 
     98 O          -4.1128  -22.7974  -53.8713 O.2       17 UNK        -0.5000 
     99 N          -3.1626  -23.6795  -52.0127 N.am      18 UNK        -0.5000 
    100 CA        -1.7702  -23.4242  -52.3780 C.3       18 UNK         0.1400 
    101 CB        -0.8469  -24.2041  -51.4345 C.3       18 UNK        -0.1800 
    102 C         -1.4309  -21.9222  -52.3958 C.2       18 UNK         0.5000 
    103 O         -0.7197  -21.4814  -53.2970 O.2       18 UNK        -0.5000 
    104 N         -1.9906  -21.1631  -51.4416 N.am      19 UNK        -0.5000 
    105 CA        -1.8983  -19.7009  -51.3750 C.3       19 UNK         0.1400 
    106 CB        -2.4396  -19.2196  -50.0186 C.3       19 UNK        -0.1800 
    107 C         -2.6351  -18.9843  -52.5240 C.2       19 UNK         0.5000 
    108 O         -2.2456  -17.8767  -52.8923 O.2       19 UNK        -0.5000 
    109 N         -3.6912  -19.6106  -53.0591 N.am      20 UNK        -0.5000 
    110 CA        -4.4348  -19.1171  -54.2147 C.3       20 UNK         0.1400 
    111 CB        -5.8649  -19.6796  -54.1842 C.3       20 UNK        -0.1800 
    112 C         -3.7311  -19.4717  -55.5362 C.2       20 UNK         0.5000 
    113 O         -3.6112  -18.6104  -56.4084 O.2       20 UNK        -0.5000 
    114 N         -3.3029  -20.7346  -55.6699 N.am      21 UNK        -0.5000 
    115 CA        -2.6995  -21.2808  -56.8837 C.3       21 UNK         0.1400 
    116 CB        -2.7319  -22.8165  -56.8249 C.3       21 UNK        -0.1800 
    117 C         -1.2681  -20.7771  -57.1309 C.2       21 UNK         0.5000 
    118 O         -0.9709  -20.3312  -58.2401 O.2       21 UNK        -0.5000 
    119 N         -0.4095  -20.8763  -56.1062 N.am      22 UNK        -0.5000 
    120 CA         1.0206  -20.5134  -56.1322 C.3       22 UNK         0.1400 
    121 C          1.8916  -21.3120  -57.1534 C.2       22 UNK         0.5000 
    122 N          1.4736  -22.4930  -57.5932 N.am      22 UNK        -0.7600 
    123 O          2.9782  -20.8806  -57.5301 O.2       22 UNK        -0.5000 
    124 C124        1.2403  -18.9764  -56.2034 C.3       23 UNK        -0.0398 
    125 S125        0.6514  -18.1664  -54.6796 S.3       23 UNK        -0.2404 
    126 C126        2.2234  -17.9636  -53.7845 C.3       23 UNK        -0.0205 
    127 H127        1.5710  -11.8889  -45.0139 H         1 UNK         0.0600 
    128 H128        1.8758  -13.3281  -45.9916 H         1 UNK         0.0600 
    129 H129        1.4655  -13.4934  -44.2815 H         1 UNK         0.0600 
    130 H130        0.1628  -13.9202  -47.2711 H         1 UNK         0.3000 
    131 H131       -2.3819  -14.5028  -46.4109 H         1 UNK         0.0600 
    132 H132       -1.6358  -13.8634  -49.3056 H         1 UNK         0.0800 
    133 H133       -2.9683  -14.8441  -48.7703 H         1 UNK         0.0800 
    134 H134        1.0940  -14.8908  -49.2035 H         1 UNK         0.0800 
    135 H135       -0.0420  -14.9461  -50.5315 H         1 UNK         0.0800 
    136 H136        0.8399  -16.0931  -52.3625 H         1 UNK         0.1150 
    137 H137        3.1973  -19.6363  -51.8640 H         1 UNK         0.1150 
    138 H138        1.6867  -17.5655  -48.4307 H         1 UNK         0.1150 
    139 H139        4.2470  -19.7788  -49.3941 H         1 UNK         0.0800 
    140 H140        3.1224  -19.4368  -48.1053 H         1 UNK         0.0800 
    141 H141        0.1924  -20.8661  -49.6596 H         1 UNK         0.0800 
    142 H142        0.7420  -20.2804  -48.1122 H         1 UNK         0.0800 
    143 H143        0.1287  -23.1845  -48.8196 H         1 UNK         0.0600 
    144 H144        1.7277  -22.2961  -46.6742 H         1 UNK         0.3000 
    145 H145        1.1944  -25.1028  -44.5418 H         1 UNK         0.0600 
    146 H146        3.6219  -25.3604  -44.8996 H         1 UNK         0.0600 
    147 H147        2.7562  -25.8940  -46.3319 H         1 UNK         0.0600 
    148 H148        3.5588  -24.3270  -46.3264 H         1 UNK         0.0600 
    149 H149        3.0436  -23.0978  -44.1511 H         1 UNK         0.3000 
    150 H150        1.0624  -20.5734  -42.6378 H         1 UNK         0.0600 
    151 H151        1.3476  -22.3555  -40.9565 H         1 UNK         0.0600 
    152 H152        2.5942  -21.1317  -40.7707 H         1 UNK         0.0600 
    153 H153        2.9798  -22.6814  -41.5174 H         1 UNK         0.0600 
    154 H154        2.7652  -19.6042  -43.5622 H         1 UNK         0.3000 
    155 H155        6.0695  -20.0414  -43.9748 H         1 UNK         0.0600 
    156 H156        4.4220  -20.6052  -46.4982 H         1 UNK         0.0600 
    157 H157        5.8506  -21.4754  -45.9643 H         1 UNK         0.0600 
    158 H158        5.9956  -19.8059  -46.4867 H         1 UNK         0.0600 
    159 H159        4.0427  -18.4141  -45.3459 H         1 UNK         0.3000 
    160 H160        3.7164  -16.0679  -42.7410 H         1 UNK         0.0600 
    161 H161        5.1628  -15.6867  -45.4183 H         1 UNK         0.0600 
    162 H162        5.8110  -15.2579  -43.8398 H         1 UNK         0.0600 
    163 H163        4.3991  -14.4177  -44.4594 H         1 UNK         0.0600 
    164 H164        2.6996  -16.0315  -45.3739 H         1 UNK         0.3000 
    165 H165        0.5142  -16.3782  -45.7217 H         1 UNK         0.0600 
    166 H166       -0.2840  -18.4972  -46.7082 H         1 UNK         0.0600 
    167 H167        1.4476  -18.6400  -46.4311 H         1 UNK         0.0600 
    168 H168        0.3250  -19.4213  -45.3340 H         1 UNK         0.0600 
    169 H169       -1.4623  -17.9644  -44.5679 H         1 UNK         0.3000 
    170 H170       -3.2774  -16.8588  -43.6042 H         1 UNK         0.0600 
    171 H171       -2.1568  -18.5121  -42.1017 H         1 UNK         0.0600 
    172 H172       -1.8290  -17.2488  -40.9232 H         1 UNK         0.0600 
    173 H173       -3.4905  -17.7291  -41.2706 H         1 UNK         0.0600 
    174 H174       -2.9230  -15.0949  -41.2961 H         1 UNK         0.3000 
    175 H175       -5.0013  -12.7964  -42.3195 H         1 UNK         0.0600 
    176 H176       -2.4159  -13.0397  -40.6664 H         1 UNK         0.0600 
    177 H177       -3.7707  -11.9825  -40.2948 H         1 UNK         0.0600 
    178 H178       -3.9855  -13.7145  -40.2163 H         1 UNK         0.0600 
    179 H179       -2.5241  -12.1182  -43.6177 H         1 UNK         0.3000 
    180 H180       -3.2577   -8.5867  -43.6721 H         1 UNK         0.0600 
    181 H181       -0.7846   -8.6101  -43.5688 H         1 UNK         0.0600 
    182 H182       -0.7926  -10.2854  -43.0223 H         1 UNK         0.0600 
    183 H183       -1.4710   -9.0208  -42.0044 H         1 UNK         0.0600 
    184 H184       -1.8996  -10.7533  -45.2090 H         1 UNK         0.3000 
    185 H185       -3.8447  -10.2312  -48.0659 H         1 UNK         0.0600 
    186 H186       -1.8100   -9.4667  -49.2718 H         1 UNK         0.0600 
    187 H187       -2.5109   -8.1459  -48.3511 H         1 UNK         0.0600 
    188 H188       -1.0716   -8.9608  -47.7513 H         1 UNK         0.0600 
    189 H189       -1.2271  -11.3956  -47.5433 H         1 UNK         0.3000 
    190 H190       -0.7237  -21.5713  -45.8204 H         1 UNK         0.3000 
    191 H191       -3.5027  -21.0011  -46.6309 H         1 UNK         0.0600 
    192 H192       -3.6721  -20.1134  -44.2924 H         1 UNK         0.0600 
    193 H193       -2.4233  -19.3294  -45.2422 H         1 UNK         0.0600 
    194 H194       -1.9832  -20.5268  -44.0198 H         1 UNK         0.0600 
    195 H195       -1.6312  -23.1755  -44.4825 H         1 UNK         0.3000 
    196 H196       -3.7511  -24.5563  -43.2885 H         1 UNK         0.0600 
    197 H197       -0.9604  -25.6193  -43.9600 H         1 UNK         0.0600 
    198 H198       -1.3542  -24.6370  -42.5483 H         1 UNK         0.0600 
    199 H199       -2.0407  -26.2456  -42.7246 H         1 UNK         0.0600 
    200 H200       -2.2301  -25.1199  -46.4449 H         1 UNK         0.3000 
    201 H201       -3.7125  -27.5131  -47.1195 H         1 UNK         0.0600 
    202 H202       -2.1357  -25.5280  -48.8351 H         1 UNK         0.0600 
    203 H203       -2.6931  -27.1142  -49.3611 H         1 UNK         0.0600 
    204 H204       -1.4874  -26.9865  -48.0907 H         1 UNK         0.0600 
    205 H205       -5.5994  -25.8915  -46.1391 H         1 UNK         0.3000 
    206 H206       -7.6023  -24.9601  -46.3771 H         1 UNK         0.0600 
    207 H207       -7.9940  -27.1701  -47.5000 H         1 UNK         0.0600 
    208 H208       -9.0595  -25.9256  -48.1276 H         1 UNK         0.0600 
    209 H209       -7.6604  -26.4323  -49.0663 H         1 UNK         0.0600 
    210 H210       -5.4057  -23.3249  -47.3364 H         1 UNK         0.3000 
    211 H211       -4.7842  -21.5207  -48.4245 H         1 UNK         0.0600 
    212 H212       -6.4088  -19.7196  -48.8272 H         1 UNK         0.0600 
    213 H213       -6.7816  -20.5136  -47.3068 H         1 UNK         0.0600 
    214 H214       -7.7522  -20.8494  -48.7410 H         1 UNK         0.0600 
    215 H215       -5.6684  -24.0387  -50.1051 H         1 UNK         0.3000 
    216 H216       -6.3194  -22.9750  -52.7091 H         1 UNK         0.0600 
    217 H217       -5.3207  -25.7552  -51.8855 H         1 UNK         0.0600 
    218 H218       -6.0395  -25.3282  -53.4329 H         1 UNK         0.0600 
    219 H219       -7.0089  -25.2557  -51.9682 H         1 UNK         0.0600 
    220 H220       -3.3360  -24.1079  -51.1143 H         1 UNK         0.3000 
    221 H221       -1.6093  -23.8018  -53.3902 H         1 UNK         0.0600 
    222 H222       -0.9167  -25.2762  -51.6186 H         1 UNK         0.0600 
    223 H223       -1.1166  -24.0329  -50.3953 H         1 UNK         0.0600 
    224 H224        0.1973  -23.9164  -51.5658 H         1 UNK         0.0600 
    225 H225       -2.5377  -21.6154  -50.7213 H         1 UNK         0.3000 
    226 H226       -0.8448  -19.4198  -51.4443 H         1 UNK         0.0600 
    227 H227       -3.4437  -19.5980  -49.8267 H         1 UNK         0.0600 
    228 H228       -1.7980  -19.5322  -49.1965 H         1 UNK         0.0600 
    229 H229       -2.4926  -18.1314  -49.9845 H         1 UNK         0.0600 
    230 H230       -3.9943  -20.4885  -52.6593 H         1 UNK         0.3000 
    231 H231       -4.5072  -18.0290  -54.1538 H         1 UNK         0.0600 
    232 H232       -5.8761  -20.7687  -54.2298 H         1 UNK         0.0600 
    233 H233       -6.4474  -19.3097  -55.0287 H         1 UNK         0.0600 
    234 H234       -6.3848  -19.3803  -53.2739 H         1 UNK         0.0600 
    235 H235       -3.4853  -21.3974  -54.9203 H         1 UNK         0.3000 
    236 H236       -3.3110  -20.9695  -57.7334 H         1 UNK         0.0600 
    237 H237       -3.7551  -23.1846  -56.7465 H         1 UNK         0.0600 
    238 H238       -2.2980  -23.2529  -57.7254 H         1 UNK         0.0600 
    239 H239       -2.1747  -23.2004  -55.9695 H         1 UNK         0.0600 
    240 H240       -0.7444  -21.2049  -55.2049 H         1 UNK         0.3000 
    241 H241        1.4096  -20.8433  -55.1681 H         1 UNK         0.0600 
    242 H242        2.0439  -23.0103  -58.2439 H         1 UNK         0.3800 
    243 H243        0.5935  -22.8729  -57.2848 H         1 UNK         0.3800 
    244 H244        0.7162  -18.5485  -57.0585 H         1 UNK         0.0800 
    245 H245        2.2923  -18.7243  -56.3443 H         1 UNK         0.0800 
    246 H246        2.8852  -18.7972  -54.0247 H         1 UNK         0.0800 
    247 H247        2.7235  -17.0610  -54.1381 H         1 UNK         0.0800 
@<TRIPOS>BOND
     1    1    2 1    
     2    1  127 1    
     3    1  128 1    
     4    1  129 1    
     5    2    3 2    
     6    2    4 am   BACKBONE|DICT|INTERRES
     7    4    5 1    
     8    4  130 1    
     9    5    6 1    
    10    5   65 1    
    11    5  131 1    
    12    6    7 1    
    13    6  132 1    
    14    6  133 1    
    15    7    8 1    
    16    8    9 1    
    17    8  134 1    
    18    8  135 1    
    19    9   10 ar   
    20    9   14 ar   
    21   10   11 ar   
    22   10  136 1    
    23   11   12 ar   
    24   11  126 1    
    25   12   13 ar   
    26   12  137 1    
    27   13   14 ar   
    28   13   15 1    
    29   14  138 1    
    30   15   16 1    
    31   15  139 1    
    32   15  140 1    
    33   16   17 1    
    34   17   18 1    
    35   17  141 1    
    36   17  142 1    
    37   18   19 1    
    38   18   67 1    
    39   18  143 1    
    40   19   20 am   BACKBONE|DICT|INTERRES
    41   19  144 1    
    42   20   21 2    
    43   20   22 1    
    44   22   23 1    
    45   22   24 1    
    46   22  145 1    
    47   23  146 1    
    48   23  147 1    
    49   23  148 1    
    50   24   25 am   BACKBONE|DICT|INTERRES
    51   24  149 1    
    52   25   26 2    
    53   25   27 1    
    54   27   28 1    
    55   27   29 1    
    56   27  150 1    
    57   28  151 1    
    58   28  152 1    
    59   28  153 1    
    60   29   30 am   BACKBONE|DICT|INTERRES
    61   29  154 1    
    62   30   31 2    
    63   30   32 1    
    64   32   33 1    
    65   32   34 1    
    66   32  155 1    
    67   33  156 1    
    68   33  157 1    
    69   33  158 1    
    70   34   35 am   BACKBONE|DICT|INTERRES
    71   34  159 1    
    72   35   36 2    
    73   35   37 1    
    74   37   38 1    
    75   37   39 1    
    76   37  160 1    
    77   38  161 1    
    78   38  162 1    
    79   38  163 1    
    80   39   40 am   BACKBONE|DICT|INTERRES
    81   39  164 1    
    82   40   41 2    
    83   40   42 1    
    84   42   43 1    
    85   42   44 1    
    86   42  165 1    
    87   43  166 1    
    88   43  167 1    
    89   43  168 1    
    90   44   45 am   BACKBONE|DICT|INTERRES
    91   44  169 1    
    92   45   46 2    
    93   45   47 1    
    94   47   48 1    
    95   47   49 1    
    96   47  170 1    
    97   48  171 1    
    98   48  172 1    
    99   48  173 1    
   100   49   50 am   BACKBONE|DICT|INTERRES
   101   49  174 1    
   102   50   51 2    
   103   50   52 1    
   104   52   53 1    
   105   52   54 1    
   106   52  175 1    
   107   53  176 1    
   108   53  177 1    
   109   53  178 1    
   110   54   55 am   BACKBONE|DICT|INTERRES
   111   54  179 1    
   112   55   56 2    
   113   55   57 1    
   114   57   58 1    
   115   57   59 1    
   116   57  180 1    
   117   58  181 1    
   118   58  182 1    
   119   58  183 1    
   120   59   60 am   BACKBONE|DICT|INTERRES
   121   59  184 1    
   122   60   61 2    
   123   60   62 1    
   124   62   63 1    
   125   62   64 1    
   126   62  185 1    
   127   63  186 1    
   128   63  187 1    
   129   63  188 1    
   130   64   65 am   BACKBONE|DICT|INTERRES
   131   64  189 1    
   132   65   66 2    
   133   67   68 2    
   134   67   69 am   BACKBONE|DICT|INTERRES
   135   69   70 1    
   136   69  190 1    
   137   70   71 1    
   138   70   72 1    
   139   70  191 1    
   140   71  192 1    
   141   71  193 1    
   142   71  194 1    
   143   72   73 2    
   144   72   74 am   BACKBONE|DICT|INTERRES
   145   74   75 1    
   146   74  195 1    
   147   75   76 1    
   148   75   77 1    
   149   75  196 1    
   150   76  197 1    
   151   76  198 1    
   152   76  199 1    
   153   77   78 2    
   154   77   79 am   BACKBONE|DICT|INTERRES
   155   79   80 1    
   156   79  200 1    
   157   80   81 1    
   158   80   82 1    
   159   80  201 1    
   160   81  202 1    
   161   81  203 1    
   162   81  204 1    
   163   82   83 2    
   164   82   84 am   BACKBONE|DICT|INTERRES
   165   84   85 1    
   166   84  205 1    
   167   85   86 1    
   168   85   87 1    
   169   85  206 1    
   170   86  207 1    
   171   86  208 1    
   172   86  209 1    
   173   87   88 2    
   174   87   89 am   BACKBONE|DICT|INTERRES
   175   89   90 1    
   176   89  210 1    
   177   90   91 1    
   178   90   92 1    
   179   90  211 1    
   180   91  212 1    
   181   91  213 1    
   182   91  214 1    
   183   92   93 2    
   184   92   94 am   BACKBONE|DICT|INTERRES
   185   94   95 1    
   186   94  215 1    
   187   95   96 1    
   188   95   97 1    
   189   95  216 1    
   190   96  217 1    
   191   96  218 1    
   192   96  219 1    
   193   97   98 2    
   194   97   99 am   BACKBONE|DICT|INTERRES
   195   99  100 1    
   196   99  220 1    
   197  100  101 1    
   198  100  102 1    
   199  100  221 1    
   200  101  222 1    
   201  101  223 1    
   202  101  224 1    
   203  102  103 2    
   204  102  104 am   BACKBONE|DICT|INTERRES
   205  104  105 1    
   206  104  225 1    
   207  105  106 1    
   208  105  107 1    
   209  105  226 1    
   210  106  227 1    
   211  106  228 1    
   212  106  229 1    
   213  107  108 2    
   214  107  109 am   BACKBONE|DICT|INTERRES
   215  109  110 1    
   216  109  230 1    
   217  110  111 1    
   218  110  112 1    
   219  110  231 1    
   220  111  232 1    
   221  111  233 1    
   222  111  234 1    
   223  112  113 2    
   224  112  114 am   BACKBONE|DICT|INTERRES
   225  114  115 1    
   226  114  235 1    
   227  115  116 1    
   228  115  117 1    
   229  115  236 1    
   230  116  237 1    
   231  116  238 1    
   232  116  239 1    
   233  117  118 2    
   234  117  119 am   BACKBONE|DICT|INTERRES
   235  119  120 1    
   236  119  240 1    
   237  120  121 1    
   238  120  124 1    
   239  120  241 1    
   240  121  122 am   BACKBONE|DICT|INTERRES
   241  121  123 2    
   242  122  242 1    
   243  122  243 1    
   244  124  125 1    
   245  124  244 1    
   246  124  245 1    
   247  125  126 1    
   248  126  246 1    
   249  126  247 1    
@<TRIPOS>SUBSTRUCTURE
     1 UNK         1 GROUP             0       ****    0 ROOT    
