@<TRIPOS>MOLECULE
3R540
247   249    1
SMALL
USER_CHARGES


@<TRIPOS>ATOM
      1 CA          2.3303  -11.0931  -51.1119 C.3       0 UNK        -0.1800 
      2 C           2.2567  -12.2167  -50.0875 C.2       0 UNK         0.5000 
      3 O           1.1739  -12.7487  -49.8440 O.2       0 UNK        -0.5000 
      4 N           3.4034  -12.5684  -49.4880 N.am      1 UNK        -0.5000 
      5 CA          3.5764  -13.6327  -48.4843 C.3       1 UNK         0.1400 
      6 C6          3.2620  -15.0574  -49.0217 C.3       23 UNK        -0.0398 
      7 S7          4.2456  -15.4870  -50.4993 S.3       23 UNK        -0.2404 
      8 C8          5.0877  -17.0327  -50.0015 C.3       23 UNK        -0.0205 
      9 C9          4.3816  -18.3235  -50.4236 C.ar      23 UNK        -0.0193 
     10 C10         3.6580  -18.4111  -51.6204 C.ar      23 UNK        -0.1150 
     11 C11         3.1129  -19.6282  -52.0400 C.ar      23 UNK        -0.0193 
     12 C12         3.2962  -20.7691  -51.2555 C.ar      23 UNK        -0.1150 
     13 C13         4.0037  -20.7009  -50.0539 C.ar      23 UNK        -0.0193 
     14 C14         4.5435  -19.4768  -49.6464 C.ar      23 UNK        -0.1150 
     15 C15         4.2439  -21.9655  -49.2382 C.3       23 UNK        -0.0205 
     16 S16         3.2634  -22.0328  -47.7051 S.3       23 UNK        -0.2404 
     17 C17         1.5603  -22.2643  -48.3271 C.3       23 UNK        -0.0398 
     18 CA          0.5109  -21.5565  -47.4262 C.3       11 UNK         0.1400 
     19 N           0.7722  -20.1251  -47.2550 N.am      11 UNK        -0.5000 
     20 C           0.7264  -19.1871  -48.2107 C.2       10 UNK         0.5000 
     21 O           0.3750  -19.4088  -49.3685 O.2       10 UNK        -0.5000 
     22 CA          1.1298  -17.7552  -47.8186 C.3       10 UNK         0.1400 
     23 CB         -0.0440  -16.7850  -48.0276 C.3       10 UNK        -0.1800 
     24 N           1.6004  -17.6429  -46.4353 N.am      10 UNK        -0.5000 
     25 C           2.8583  -17.8649  -46.0314 C.2       9 UNK         0.5000 
     26 O           3.7829  -18.1409  -46.7932 O.2       9 UNK        -0.5000 
     27 CA          3.1353  -17.7982  -44.5173 C.3       9 UNK         0.1400 
     28 CB          3.4286  -16.3610  -44.0692 C.3       9 UNK        -0.1800 
     29 N           2.0585  -18.3510  -43.6949 N.am      9 UNK        -0.5000 
     30 C           1.6908  -19.6398  -43.6826 C.2       8 UNK         0.5000 
     31 O           2.2006  -20.5079  -44.3896 O.2       8 UNK        -0.5000 
     32 CA          0.5293  -20.0131  -42.7480 C.3       8 UNK         0.1400 
     33 CB          1.0069  -20.1449  -41.2934 C.3       8 UNK        -0.1800 
     34 N          -0.5496  -19.0313  -42.8300 N.am      8 UNK        -0.5000 
     35 C          -1.3982  -18.9462  -43.8630 C.2       7 UNK         0.5000 
     36 O          -1.3880  -19.7249  -44.8160 O.2       7 UNK        -0.5000 
     37 CA         -2.4045  -17.7803  -43.8451 C.3       7 UNK         0.1400 
     38 CB         -3.6661  -18.1669  -43.0597 C.3       7 UNK        -0.1800 
     39 N          -1.8435  -16.5475  -43.2876 N.am      7 UNK        -0.5000 
     40 C          -0.8438  -15.8552  -43.8515 C.2       6 UNK         0.5000 
     41 O          -0.3070  -16.1777  -44.9077 O.2       6 UNK        -0.5000 
     42 CA         -0.3239  -14.6239  -43.0884 C.3       6 UNK         0.1400 
     43 CB         -1.1531  -13.3848  -43.4586 C.3       6 UNK        -0.1800 
     44 N          -0.3003  -14.7842  -41.6300 N.am      6 UNK        -0.5000 
     45 C           0.3306  -15.7638  -40.9659 C.2       5 UNK         0.5000 
     46 O           0.9381  -16.6808  -41.5215 O.2       5 UNK        -0.5000 
     47 CA          0.3177  -15.6554  -39.4327 C.3       5 UNK         0.1400 
     48 CB          0.9219  -16.8915  -38.7421 C.3       5 UNK        -0.1800 
     49 N           1.0965  -14.4763  -39.0728 N.am      5 UNK        -0.5000 
     50 C           0.6398  -13.3913  -38.4352 C.2       4 UNK         0.5000 
     51 O          -0.4838  -13.3049  -37.9391 O.2       4 UNK        -0.5000 
     52 CA          1.5946  -12.1784  -38.3875 C.3       4 UNK         0.1400 
     53 CB          2.4334  -12.2012  -37.1007 C.3       4 UNK        -0.1800 
     54 N           2.4915  -12.1184  -39.5490 N.am      4 UNK        -0.5000 
     55 C           2.0772  -11.9296  -40.8096 C.2       3 UNK         0.5000 
     56 O           0.9100  -11.6614  -41.1088 O.2       3 UNK        -0.5000 
     57 CA          3.1225  -12.1299  -41.9189 C.3       3 UNK         0.1400 
     58 CB          3.7136  -13.5547  -41.8669 C.3       3 UNK        -0.1800 
     59 N           2.4645  -11.9058  -43.2022 N.am      3 UNK        -0.5000 
     60 C           3.0589  -11.7578  -44.3883 C.2       2 UNK         0.5000 
     61 O           4.2819  -11.7589  -44.5515 O.2       2 UNK        -0.5000 
     62 CA          2.1192  -11.5350  -45.5882 C.3       2 UNK         0.1400 
     63 CB          1.7900  -10.0430  -45.7497 C.3       2 UNK        -0.1800 
     64 N           2.7070  -12.0259  -46.8334 N.am      2 UNK        -0.5000 
     65 C           2.8424  -13.3199  -47.1566 C.2       1 UNK         0.5000 
     66 O           2.4200  -14.2361  -46.4516 O.2       1 UNK        -0.5000 
     67 C          -0.9453  -21.8168  -47.8732 C.2       11 UNK         0.5000 
     68 O          -1.1851  -22.5431  -48.8410 O.2       11 UNK        -0.5000 
     69 N          -1.9029  -21.2173  -47.1493 N.am      12 UNK        -0.5000 
     70 CA         -3.3406  -21.2846  -47.4272 C.3       12 UNK         0.1400 
     71 CB         -4.0973  -20.3534  -46.4697 C.3       12 UNK        -0.1800 
     72 C          -3.9275  -22.7070  -47.3641 C.2       12 UNK         0.5000 
     73 O          -4.9159  -22.9796  -48.0447 O.2       12 UNK        -0.5000 
     74 N          -3.2974  -23.5954  -46.5830 N.am      13 UNK        -0.5000 
     75 CA         -3.6291  -25.0188  -46.5096 C.3       13 UNK         0.1400 
     76 CB         -2.8625  -25.6617  -45.3442 C.3       13 UNK        -0.1800 
     77 C          -3.3375  -25.7580  -47.8294 C.2       13 UNK         0.5000 
     78 O          -4.1566  -26.5670  -48.2649 O.2       13 UNK        -0.5000 
     79 N          -2.2045  -25.4297  -48.4689 N.am      14 UNK        -0.5000 
     80 CA         -1.8176  -25.9446  -49.7859 C.3       14 UNK         0.1400 
     81 CB         -0.3239  -25.6762  -50.0265 C.3       14 UNK        -0.1800 
     82 C          -2.6720  -25.3374  -50.9137 C.2       14 UNK         0.5000 
     83 O          -2.9610  -26.0197  -51.8959 O.2       14 UNK        -0.5000 
     84 N          -3.1017  -24.0829  -50.7199 N.am      15 UNK        -0.5000 
     85 CA         -4.0449  -23.3672  -51.5808 C.3       15 UNK         0.1400 
     86 CB         -3.9274  -21.8622  -51.2890 C.3       15 UNK        -0.1800 
     87 C          -5.5080  -23.8323  -51.4156 C.2       15 UNK         0.5000 
     88 O          -6.3759  -23.3237  -52.1243 O.2       15 UNK        -0.5000 
     89 N          -5.7740  -24.7451  -50.4679 N.am      16 UNK        -0.5000 
     90 CA         -7.0841  -25.2986  -50.1114 C.3       16 UNK         0.1400 
     91 CB         -7.6190  -26.1897  -51.2522 C.3       16 UNK        -0.1800 
     92 C          -8.0819  -24.2062  -49.6732 C.2       16 UNK         0.5000 
     93 O          -9.2104  -24.1631  -50.1633 O.2       16 UNK        -0.5000 
     94 N          -7.6173  -23.3121  -48.7875 N.am      17 UNK        -0.5000 
     95 CA         -8.3032  -22.1091  -48.3003 C.3       17 UNK         0.1400 
     96 CB         -9.5785  -22.4675  -47.5086 C.3       17 UNK        -0.1800 
     97 C          -8.5458  -21.0800  -49.4253 C.2       17 UNK         0.5000 
     98 O          -9.5890  -20.4257  -49.4597 O.2       17 UNK        -0.5000 
     99 N          -7.5579  -20.9720  -50.3260 N.am      18 UNK        -0.5000 
    100 CA        -7.5071  -20.1114  -51.5130 C.3       18 UNK         0.1400 
    101 CB        -7.5594  -18.6190  -51.1242 C.3       18 UNK        -0.1800 
    102 C         -8.5273  -20.4894  -52.6086 C.2       18 UNK         0.5000 
    103 O         -8.8701  -19.6474  -53.4409 O.2       18 UNK        -0.5000 
    104 N         -8.9722  -21.7538  -52.6193 N.am      19 UNK        -0.5000 
    105 CA        -9.7670  -22.3382  -53.7016 C.3       19 UNK         0.1400 
    106 CB       -10.4875  -23.5908  -53.1826 C.3       19 UNK        -0.1800 
    107 C         -8.9009  -22.6834  -54.9297 C.2       19 UNK         0.5000 
    108 O         -9.4110  -22.6912  -56.0509 O.2       19 UNK        -0.5000 
    109 N         -7.6124  -22.9498  -54.6935 N.am      20 UNK        -0.5000 
    110 CA        -6.5743  -23.1900  -55.6875 C.3       20 UNK         0.1400 
    111 CB        -6.1136  -24.6529  -55.5548 C.3       20 UNK        -0.1800 
    112 C         -5.4072  -22.2161  -55.4429 C.2       20 UNK         0.5000 
    113 O         -5.4395  -21.4269  -54.4949 O.2       20 UNK        -0.5000 
    114 N         -4.3824  -22.2895  -56.2998 N.am      21 UNK        -0.5000 
    115 CA        -3.1084  -21.5968  -56.1051 C.3       21 UNK         0.1400 
    116 CB        -2.3324  -21.5928  -57.4311 C.3       21 UNK        -0.1800 
    117 C         -2.2816  -22.2753  -54.9960 C.2       21 UNK         0.5000 
    118 O         -2.3433  -23.4989  -54.8517 O.2       21 UNK        -0.5000 
    119 N         -1.5173  -21.4727  -54.2480 N.am      22 UNK        -0.5000 
    120 CA        -0.5887  -21.9280  -53.2022 C.3       22 UNK         0.1400 
    121 C          0.5801  -22.8124  -53.7272 C.2       22 UNK         0.5000 
    122 N          1.1778  -23.6281  -52.8682 N.am      22 UNK        -0.7600 
    123 O          0.9747  -22.7461  -54.8895 O.2       22 UNK        -0.5000 
    124 C124       -0.0799  -20.7455  -52.3331 C.3       23 UNK        -0.0398 
    125 S125        0.6141  -19.3284  -53.2631 S.3       23 UNK        -0.2404 
    126 C126        2.3895  -19.7266  -53.3756 C.3       23 UNK        -0.0205 
    127 H127        3.3461  -10.7142  -51.2274 H         1 UNK         0.0600 
    128 H128        1.6909  -10.2648  -50.8067 H         1 UNK         0.0600 
    129 H129        1.9883  -11.4493  -52.0836 H         1 UNK         0.0600 
    130 H130        4.2533  -12.0876  -49.7484 H         1 UNK         0.3000 
    131 H131        4.6362  -13.6194  -48.2251 H         1 UNK         0.0600 
    132 H132        2.2050  -15.1516  -49.2719 H         1 UNK         0.0800 
    133 H133        3.4603  -15.7944  -48.2442 H         1 UNK         0.0800 
    134 H134        5.2637  -17.0264  -48.9248 H         1 UNK         0.0800 
    135 H135        6.0753  -17.0359  -50.4641 H         1 UNK         0.0800 
    136 H136        3.5427  -17.5405  -52.2497 H         1 UNK         0.1150 
    137 H137        2.9036  -21.7178  -51.5918 H         1 UNK         0.1150 
    138 H138        5.1143  -19.4307  -48.7295 H         1 UNK         0.1150 
    139 H139        4.0370  -22.8565  -49.8331 H         1 UNK         0.0800 
    140 H140        5.3012  -22.0188  -48.9752 H         1 UNK         0.0800 
    141 H141        1.3666  -23.3370  -48.3691 H         1 UNK         0.0800 
    142 H142        1.4884  -21.8998  -49.3517 H         1 UNK         0.0800 
    143 H143        0.5936  -21.9922  -46.4294 H         1 UNK         0.0600 
    144 H144        1.0858  -19.8474  -46.3350 H         1 UNK         0.3000 
    145 H145        1.9332  -17.4724  -48.4985 H         1 UNK         0.0600 
    146 H146        0.2319  -15.7662  -47.7539 H         1 UNK         0.0600 
    147 H147       -0.9098  -17.0705  -47.4289 H         1 UNK         0.0600 
    148 H148       -0.3571  -16.7676  -49.0722 H         1 UNK         0.0600 
    149 H149        0.9147  -17.3230  -45.7552 H         1 UNK         0.3000 
    150 H150        4.0304  -18.3943  -44.3277 H         1 UNK         0.0600 
    151 H151        4.2218  -15.9143  -44.6701 H         1 UNK         0.0600 
    152 H152        3.7520  -16.3362  -43.0289 H         1 UNK         0.0600 
    153 H153        2.5488  -15.7256  -44.1649 H         1 UNK         0.0600 
    154 H154        1.5944  -17.7100  -43.0579 H         1 UNK         0.3000 
    155 H155        0.1414  -20.9847  -43.0623 H         1 UNK         0.0600 
    156 H156        1.7723  -20.9170  -41.2061 H         1 UNK         0.0600 
    157 H157        0.1865  -20.4242  -40.6324 H         1 UNK         0.0600 
    158 H158        1.4379  -19.2164  -40.9189 H         1 UNK         0.0600 
    159 H159       -0.5624  -18.3097  -42.1230 H         1 UNK         0.3000 
    160 H160       -2.6939  -17.5809  -44.8792 H         1 UNK         0.0600 
    161 H161       -3.4458  -18.3506  -42.0074 H         1 UNK         0.0600 
    162 H162       -4.1158  -19.0746  -43.4639 H         1 UNK         0.0600 
    163 H163       -4.4200  -17.3814  -43.1135 H         1 UNK         0.0600 
    164 H164       -2.2289  -16.2184  -42.4148 H         1 UNK         0.3000 
    165 H165        0.7037  -14.4496  -43.4119 H         1 UNK         0.0600 
    166 H166       -0.7446  -12.4804  -43.0105 H         1 UNK         0.0600 
    167 H167       -1.1646  -13.2320  -44.5388 H         1 UNK         0.0600 
    168 H168       -2.1885  -13.4815  -43.1299 H         1 UNK         0.0600 
    169 H169       -0.7394  -14.0486  -41.0946 H         1 UNK         0.3000 
    170 H170       -0.7222  -15.5552  -39.1153 H         1 UNK         0.0600 
    171 H171        1.9611  -17.0516  -39.0325 H         1 UNK         0.0600 
    172 H172        0.8911  -16.7881  -37.6575 H         1 UNK         0.0600 
    173 H173        0.3646  -17.7932  -38.9988 H         1 UNK         0.0600 
    174 H174        2.0283  -14.4365  -39.4591 H         1 UNK         0.3000 
    175 H175        0.9823  -11.2741  -38.3825 H         1 UNK         0.0600 
    176 H176        3.0813  -13.0776  -37.0567 H         1 UNK         0.0600 
    177 H177        3.0618  -11.3137  -37.0235 H         1 UNK         0.0600 
    178 H178        1.7928  -12.2220  -36.2180 H         1 UNK         0.0600 
    179 H179        3.4673  -12.3115  -39.3743 H         1 UNK         0.3000 
    180 H180        3.9139  -11.3898  -41.7870 H         1 UNK         0.0600 
    181 H181        2.9314  -14.3104  -41.9414 H         1 UNK         0.0600 
    182 H182        4.2548  -13.7307  -40.9371 H         1 UNK         0.0600 
    183 H183        4.4208  -13.7279  -42.6777 H         1 UNK         0.0600 
    184 H184        1.4594  -11.8121  -43.1174 H         1 UNK         0.3000 
    185 H185        1.1890  -12.0791  -45.4096 H         1 UNK         0.0600 
    186 H186        2.6868   -9.4508  -45.9366 H         1 UNK         0.0600 
    187 H187        1.1000   -9.8787  -46.5777 H         1 UNK         0.0600 
    188 H188        1.3166   -9.6467  -44.8505 H         1 UNK         0.0600 
    189 H189        3.1024  -11.3340  -47.4521 H         1 UNK         0.3000 
    190 H190       -1.6282  -20.6420  -46.3536 H         1 UNK         0.3000 
    191 H191       -3.4870  -20.9116  -48.4409 H         1 UNK         0.0600 
    192 H192       -3.7419  -19.3265  -46.5555 H         1 UNK         0.0600 
    193 H193       -3.9787  -20.6654  -45.4316 H         1 UNK         0.0600 
    194 H194       -5.1654  -20.3468  -46.6916 H         1 UNK         0.0600 
    195 H195       -2.5063  -23.2789  -46.0424 H         1 UNK         0.3000 
    196 H196       -4.6984  -25.1080  -46.3061 H         1 UNK         0.0600 
    197 H197       -3.1211  -25.1910  -44.3955 H         1 UNK         0.0600 
    198 H198       -1.7828  -25.5809  -45.4760 H         1 UNK         0.0600 
    199 H199       -3.1043  -26.7218  -45.2562 H         1 UNK         0.0600 
    200 H200       -1.6175  -24.7055  -48.0799 H         1 UNK         0.3000 
    201 H201       -1.9739  -27.0256  -49.7928 H         1 UNK         0.0600 
    202 H202        0.2890  -26.1295  -49.2473 H         1 UNK         0.0600 
    203 H203       -0.1021  -24.6100  -50.0502 H         1 UNK         0.0600 
    204 H204       -0.0028  -26.0988  -50.9794 H         1 UNK         0.0600 
    205 H205       -2.7663  -23.5874  -49.9026 H         1 UNK         0.3000 
    206 H206       -3.7614  -23.5424  -52.6190 H         1 UNK         0.0600 
    207 H207       -2.8913  -21.5507  -51.1665 H         1 UNK         0.0600 
    208 H208       -4.4677  -21.5838  -50.3855 H         1 UNK         0.0600 
    209 H209       -4.3440  -21.2769  -52.1075 H         1 UNK         0.0600 
    210 H210       -5.0007  -25.0753  -49.9072 H         1 UNK         0.3000 
    211 H211       -6.9249  -25.9356  -49.2403 H         1 UNK         0.0600 
    212 H212       -7.8080  -25.6184  -52.1613 H         1 UNK         0.0600 
    213 H213       -8.5548  -26.6716  -50.9673 H         1 UNK         0.0600 
    214 H214       -6.9091  -26.9795  -51.4975 H         1 UNK         0.0600 
    215 H215       -6.6470  -23.3975  -48.4879 H         1 UNK         0.3000 
    216 H216       -7.6120  -21.6329  -47.6033 H         1 UNK         0.0600 
    217 H217       -9.9940  -21.5850  -47.0209 H         1 UNK         0.0600 
    218 H218       -9.3656  -23.1983  -46.7286 H         1 UNK         0.0600 
    219 H219      -10.3567  -22.8789  -48.1518 H         1 UNK         0.0600 
    220 H220       -6.7753  -21.6010  -50.2210 H         1 UNK         0.3000 
    221 H221       -6.5300  -20.2899  -51.9626 H         1 UNK         0.0600 
    222 H222       -8.5401  -18.3319  -50.7444 H         1 UNK         0.0600 
    223 H223       -6.8195  -18.3845  -50.3590 H         1 UNK         0.0600 
    224 H224       -7.3455  -17.9836  -51.9844 H         1 UNK         0.0600 
    225 H225       -8.6294  -22.3918  -51.9127 H         1 UNK         0.3000 
    226 H226      -10.5237  -21.6158  -54.0147 H         1 UNK         0.0600 
    227 H227      -11.1149  -23.3577  -52.3220 H         1 UNK         0.0600 
    228 H228      -11.1326  -24.0169  -53.9518 H         1 UNK         0.0600 
    229 H229       -9.7810  -24.3646  -52.8815 H         1 UNK         0.0600 
    230 H230       -7.2664  -22.8854  -53.7382 H         1 UNK         0.3000 
    231 H231       -6.9550  -23.0161  -56.6957 H         1 UNK         0.0600 
    232 H232       -5.3727  -24.9090  -56.3125 H         1 UNK         0.0600 
    233 H233       -6.9505  -25.3406  -55.6774 H         1 UNK         0.0600 
    234 H234       -5.6656  -24.8446  -54.5785 H         1 UNK         0.0600 
    235 H235       -4.4070  -22.9796  -57.0359 H         1 UNK         0.3000 
    236 H236       -3.3098  -20.5624  -55.8175 H         1 UNK         0.0600 
    237 H237       -2.1076  -22.6053  -57.7692 H         1 UNK         0.0600 
    238 H238       -2.8972  -21.0925  -58.2181 H         1 UNK         0.0600 
    239 H239       -1.3837  -21.0649  -57.3259 H         1 UNK         0.0600 
    240 H240       -1.4864  -20.4845  -54.4527 H         1 UNK         0.3000 
    241 H241       -1.1715  -22.5764  -52.5453 H         1 UNK         0.0600 
    242 H242        1.9386  -24.2018  -53.1976 H         1 UNK         0.3800 
    243 H243        0.8758  -23.7093  -51.9121 H         1 UNK         0.3800 
    244 H244        0.6261  -21.0867  -51.5781 H         1 UNK         0.0800 
    245 H245       -0.9176  -20.3506  -51.7576 H         1 UNK         0.0800 
    246 H246        2.8493  -19.0363  -54.0843 H         1 UNK         0.0800 
    247 H247        2.5243  -20.7184  -53.8064 H         1 UNK         0.0800 
@<TRIPOS>BOND
     1    1    2 1    
     2    1  127 1    
     3    1  128 1    
     4    1  129 1    
     5    2    3 2    
     6    2    4 am   BACKBONE|DICT|INTERRES
     7    4    5 1    
     8    4  130 1    
     9    5    6 1    
    10    5   65 1    
    11    5  131 1    
    12    6    7 1    
    13    6  132 1    
    14    6  133 1    
    15    7    8 1    
    16    8    9 1    
    17    8  134 1    
    18    8  135 1    
    19    9   10 ar   
    20    9   14 ar   
    21   10   11 ar   
    22   10  136 1    
    23   11   12 ar   
    24   11  126 1    
    25   12   13 ar   
    26   12  137 1    
    27   13   14 ar   
    28   13   15 1    
    29   14  138 1    
    30   15   16 1    
    31   15  139 1    
    32   15  140 1    
    33   16   17 1    
    34   17   18 1    
    35   17  141 1    
    36   17  142 1    
    37   18   19 1    
    38   18   67 1    
    39   18  143 1    
    40   19   20 am   BACKBONE|DICT|INTERRES
    41   19  144 1    
    42   20   21 2    
    43   20   22 1    
    44   22   23 1    
    45   22   24 1    
    46   22  145 1    
    47   23  146 1    
    48   23  147 1    
    49   23  148 1    
    50   24   25 am   BACKBONE|DICT|INTERRES
    51   24  149 1    
    52   25   26 2    
    53   25   27 1    
    54   27   28 1    
    55   27   29 1    
    56   27  150 1    
    57   28  151 1    
    58   28  152 1    
    59   28  153 1    
    60   29   30 am   BACKBONE|DICT|INTERRES
    61   29  154 1    
    62   30   31 2    
    63   30   32 1    
    64   32   33 1    
    65   32   34 1    
    66   32  155 1    
    67   33  156 1    
    68   33  157 1    
    69   33  158 1    
    70   34   35 am   BACKBONE|DICT|INTERRES
    71   34  159 1    
    72   35   36 2    
    73   35   37 1    
    74   37   38 1    
    75   37   39 1    
    76   37  160 1    
    77   38  161 1    
    78   38  162 1    
    79   38  163 1    
    80   39   40 am   BACKBONE|DICT|INTERRES
    81   39  164 1    
    82   40   41 2    
    83   40   42 1    
    84   42   43 1    
    85   42   44 1    
    86   42  165 1    
    87   43  166 1    
    88   43  167 1    
    89   43  168 1    
    90   44   45 am   BACKBONE|DICT|INTERRES
    91   44  169 1    
    92   45   46 2    
    93   45   47 1    
    94   47   48 1    
    95   47   49 1    
    96   47  170 1    
    97   48  171 1    
    98   48  172 1    
    99   48  173 1    
   100   49   50 am   BACKBONE|DICT|INTERRES
   101   49  174 1    
   102   50   51 2    
   103   50   52 1    
   104   52   53 1    
   105   52   54 1    
   106   52  175 1    
   107   53  176 1    
   108   53  177 1    
   109   53  178 1    
   110   54   55 am   BACKBONE|DICT|INTERRES
   111   54  179 1    
   112   55   56 2    
   113   55   57 1    
   114   57   58 1    
   115   57   59 1    
   116   57  180 1    
   117   58  181 1    
   118   58  182 1    
   119   58  183 1    
   120   59   60 am   BACKBONE|DICT|INTERRES
   121   59  184 1    
   122   60   61 2    
   123   60   62 1    
   124   62   63 1    
   125   62   64 1    
   126   62  185 1    
   127   63  186 1    
   128   63  187 1    
   129   63  188 1    
   130   64   65 am   BACKBONE|DICT|INTERRES
   131   64  189 1    
   132   65   66 2    
   133   67   68 2    
   134   67   69 am   BACKBONE|DICT|INTERRES
   135   69   70 1    
   136   69  190 1    
   137   70   71 1    
   138   70   72 1    
   139   70  191 1    
   140   71  192 1    
   141   71  193 1    
   142   71  194 1    
   143   72   73 2    
   144   72   74 am   BACKBONE|DICT|INTERRES
   145   74   75 1    
   146   74  195 1    
   147   75   76 1    
   148   75   77 1    
   149   75  196 1    
   150   76  197 1    
   151   76  198 1    
   152   76  199 1    
   153   77   78 2    
   154   77   79 am   BACKBONE|DICT|INTERRES
   155   79   80 1    
   156   79  200 1    
   157   80   81 1    
   158   80   82 1    
   159   80  201 1    
   160   81  202 1    
   161   81  203 1    
   162   81  204 1    
   163   82   83 2    
   164   82   84 am   BACKBONE|DICT|INTERRES
   165   84   85 1    
   166   84  205 1    
   167   85   86 1    
   168   85   87 1    
   169   85  206 1    
   170   86  207 1    
   171   86  208 1    
   172   86  209 1    
   173   87   88 2    
   174   87   89 am   BACKBONE|DICT|INTERRES
   175   89   90 1    
   176   89  210 1    
   177   90   91 1    
   178   90   92 1    
   179   90  211 1    
   180   91  212 1    
   181   91  213 1    
   182   91  214 1    
   183   92   93 2    
   184   92   94 am   BACKBONE|DICT|INTERRES
   185   94   95 1    
   186   94  215 1    
   187   95   96 1    
   188   95   97 1    
   189   95  216 1    
   190   96  217 1    
   191   96  218 1    
   192   96  219 1    
   193   97   98 2    
   194   97   99 am   BACKBONE|DICT|INTERRES
   195   99  100 1    
   196   99  220 1    
   197  100  101 1    
   198  100  102 1    
   199  100  221 1    
   200  101  222 1    
   201  101  223 1    
   202  101  224 1    
   203  102  103 2    
   204  102  104 am   BACKBONE|DICT|INTERRES
   205  104  105 1    
   206  104  225 1    
   207  105  106 1    
   208  105  107 1    
   209  105  226 1    
   210  106  227 1    
   211  106  228 1    
   212  106  229 1    
   213  107  108 2    
   214  107  109 am   BACKBONE|DICT|INTERRES
   215  109  110 1    
   216  109  230 1    
   217  110  111 1    
   218  110  112 1    
   219  110  231 1    
   220  111  232 1    
   221  111  233 1    
   222  111  234 1    
   223  112  113 2    
   224  112  114 am   BACKBONE|DICT|INTERRES
   225  114  115 1    
   226  114  235 1    
   227  115  116 1    
   228  115  117 1    
   229  115  236 1    
   230  116  237 1    
   231  116  238 1    
   232  116  239 1    
   233  117  118 2    
   234  117  119 am   BACKBONE|DICT|INTERRES
   235  119  120 1    
   236  119  240 1    
   237  120  121 1    
   238  120  124 1    
   239  120  241 1    
   240  121  122 am   BACKBONE|DICT|INTERRES
   241  121  123 2    
   242  122  242 1    
   243  122  243 1    
   244  124  125 1    
   245  124  244 1    
   246  124  245 1    
   247  125  126 1    
   248  126  246 1    
   249  126  247 1    
@<TRIPOS>SUBSTRUCTURE
     1 UNK         1 GROUP             0       ****    0 ROOT    
