@<TRIPOS>MOLECULE
3R540
247   249    1
SMALL
USER_CHARGES


@<TRIPOS>ATOM
      1 CA         -0.8816   -8.0766  -45.1200 C.3       0 UNK        -0.1800 
      2 C          -0.2560   -9.3920  -45.5616 C.2       0 UNK         0.5000 
      3 O           0.8980   -9.4086  -45.9846 O.2       0 UNK        -0.5000 
      4 N          -1.0156  -10.4891  -45.4660 N.am      1 UNK        -0.5000 
      5 CA         -0.5923  -11.8540  -45.8067 C.3       1 UNK         0.1400 
      6 C6         -1.8026  -12.7271  -46.2237 C.3       23 UNK        -0.0398 
      7 S7         -3.1747  -12.7520  -45.0135 S.3       23 UNK        -0.2404 
      8 C8         -4.5820  -13.1847  -46.0874 C.3       23 UNK        -0.0205 
      9 C9         -4.3806  -14.5422  -46.7422 C.ar      23 UNK        -0.0193 
     10 C10        -4.0103  -14.6333  -48.0870 C.ar      23 UNK        -0.1150 
     11 C11        -3.7532  -15.8735  -48.6799 C.ar      23 UNK        -0.0193 
     12 C12        -3.8777  -17.0312  -47.9001 C.ar      23 UNK        -0.1150 
     13 C13        -4.2649  -16.9543  -46.5595 C.ar      23 UNK        -0.0193 
     14 C14        -4.5272  -15.7078  -45.9889 C.ar      23 UNK        -0.1150 
     15 C15        -4.3275  -18.2118  -45.7101 C.3       23 UNK        -0.0205 
     16 S16        -5.6494  -19.3396  -46.2402 S.3       23 UNK        -0.2404 
     17 C17        -5.3832  -20.7285  -45.0869 C.3       23 UNK        -0.0398 
     18 CA         -4.5462  -21.8625  -45.7233 C.3       11 UNK         0.1400 
     19 N          -3.1796  -21.4339  -46.0428 N.am      11 UNK        -0.5000 
     20 C          -2.3078  -22.1228  -46.7893 C.2       10 UNK         0.5000 
     21 O          -2.5515  -23.2311  -47.2667 O.2       10 UNK        -0.5000 
     22 CA         -0.9267  -21.4844  -47.0142 C.3       10 UNK         0.1400 
     23 CB         -0.9226  -20.6721  -48.3183 C.3       10 UNK        -0.1800 
     24 N          -0.4882  -20.6373  -45.8991 N.am      10 UNK        -0.5000 
     25 C          -0.1838  -21.1047  -44.6770 C.2       9 UNK         0.5000 
     26 O          -0.3258  -22.2848  -44.3566 O.2       9 UNK        -0.5000 
     27 CA          0.3719  -20.1168  -43.6322 C.3       9 UNK         0.1400 
     28 CB          1.8869  -20.3112  -43.4687 C.3       9 UNK        -0.1800 
     29 N           0.1015  -18.7155  -43.9512 N.am      9 UNK        -0.5000 
     30 C          -1.0851  -18.1184  -43.7694 C.2       8 UNK         0.5000 
     31 O          -2.0627  -18.6908  -43.2866 O.2       8 UNK        -0.5000 
     32 CA         -1.2217  -16.6481  -44.2213 C.3       8 UNK         0.1400 
     33 CB         -1.0278  -15.7076  -43.0244 C.3       8 UNK        -0.1800 
     34 N          -0.3164  -16.2511  -45.3042 N.am      8 UNK        -0.5000 
     35 C          -0.2302  -16.8560  -46.4980 C.2       7 UNK         0.5000 
     36 O          -0.9263  -17.8151  -46.8263 O.2       7 UNK        -0.5000 
     37 CA          0.8719  -16.3730  -47.4580 C.3       7 UNK         0.1400 
     38 CB          0.3460  -15.2725  -48.3910 C.3       7 UNK        -0.1800 
     39 N           2.0994  -15.9049  -46.8087 N.am      7 UNK        -0.5000 
     40 C           2.8387  -16.5659  -45.9091 C.2       6 UNK         0.5000 
     41 O           2.5116  -17.6552  -45.4363 O.2       6 UNK        -0.5000 
     42 CA          4.1639  -15.9271  -45.4389 C.3       6 UNK         0.1400 
     43 CB          5.3671  -16.6586  -46.0628 C.3       6 UNK        -0.1800 
     44 N           4.3077  -14.4737  -45.6118 N.am      6 UNK        -0.5000 
     45 C           4.3345  -13.7434  -46.7383 C.2       5 UNK         0.5000 
     46 O           4.1174  -14.2024  -47.8594 O.2       5 UNK        -0.5000 
     47 CA          4.6601  -12.2428  -46.5996 C.3       5 UNK         0.1400 
     48 CB          3.3777  -11.4041  -46.6463 C.3       5 UNK        -0.1800 
     49 N           5.4000  -11.9245  -45.3772 N.am      5 UNK        -0.5000 
     50 C           6.6867  -12.2431  -45.1745 C.2       4 UNK         0.5000 
     51 O           7.4021  -12.7574  -46.0353 O.2       4 UNK        -0.5000 
     52 CA          7.2810  -11.9601  -43.7799 C.3       4 UNK         0.1400 
     53 CB          8.1394  -10.6860  -43.8121 C.3       4 UNK        -0.1800 
     54 N           6.2982  -11.8380  -42.6990 N.am      4 UNK        -0.5000 
     55 C           5.4457  -12.7899  -42.2952 C.2       3 UNK         0.5000 
     56 O           5.3363  -13.8866  -42.8467 O.2       3 UNK        -0.5000 
     57 CA          4.5579  -12.4761  -41.0730 C.3       3 UNK         0.1400 
     58 CB          4.7803  -11.0727  -40.4626 C.3       3 UNK        -0.1800 
     59 N           3.1365  -12.6899  -41.3578 N.am      3 UNK        -0.5000 
     60 C           2.3986  -12.0768  -42.2939 C.2       2 UNK         0.5000 
     61 O           2.8426  -11.2430  -43.0876 O.2       2 UNK        -0.5000 
     62 CA          0.9016  -12.4404  -42.2916 C.3       2 UNK         0.1400 
     63 CB          0.2003  -11.8561  -41.0540 C.3       2 UNK        -0.1800 
     64 N           0.2014  -11.9573  -43.4783 N.am      2 UNK        -0.5000 
     65 C           0.2314  -12.5312  -44.6869 C.2       1 UNK         0.5000 
     66 O           0.8528  -13.5669  -44.9339 O.2       1 UNK        -0.5000 
     67 C          -4.5777  -23.1303  -44.8441 C.2       11 UNK         0.5000 
     68 O          -5.5190  -23.9151  -44.9604 O.2       11 UNK        -0.5000 
     69 N          -3.5290  -23.3538  -44.0366 N.am      12 UNK        -0.5000 
     70 CA         -3.3428  -24.5701  -43.2383 C.3       12 UNK         0.1400 
     71 CB         -2.2041  -24.3463  -42.2321 C.3       12 UNK        -0.1800 
     72 C          -3.0693  -25.8218  -44.0986 C.2       12 UNK         0.5000 
     73 O          -3.3381  -26.9358  -43.6488 O.2       12 UNK        -0.5000 
     74 N          -2.5710  -25.6127  -45.3244 N.am      13 UNK        -0.5000 
     75 CA         -2.3515  -26.6364  -46.3450 C.3       13 UNK         0.1400 
     76 CB         -0.9608  -26.4107  -46.9645 C.3       13 UNK        -0.1800 
     77 C          -3.4532  -26.6086  -47.4252 C.2       13 UNK         0.5000 
     78 O          -3.2716  -27.2169  -48.4803 O.2       13 UNK        -0.5000 
     79 N          -4.5546  -25.8805  -47.1752 N.am      14 UNK        -0.5000 
     80 CA         -5.6884  -25.6503  -48.0789 C.3       14 UNK         0.1400 
     81 CB         -6.4874  -26.9534  -48.2908 C.3       14 UNK        -0.1800 
     82 C          -5.2608  -24.9842  -49.4038 C.2       14 UNK         0.5000 
     83 O          -5.6750  -25.4195  -50.4790 O.2       14 UNK        -0.5000 
     84 N          -4.3896  -23.9694  -49.2962 N.am      15 UNK        -0.5000 
     85 CA         -3.7193  -23.2613  -50.3915 C.3       15 UNK         0.1400 
     86 CB         -4.7261  -22.4602  -51.2416 C.3       15 UNK        -0.1800 
     87 C          -2.8290  -24.2101  -51.2169 C.2       15 UNK         0.5000 
     88 O          -2.8638  -24.1813  -52.4470 O.2       15 UNK        -0.5000 
     89 N          -2.0774  -25.0654  -50.5069 N.am      16 UNK        -0.5000 
     90 CA         -1.2389  -26.1496  -51.0316 C.3       16 UNK         0.1400 
     91 CB         -0.0200  -25.5725  -51.7822 C.3       16 UNK        -0.1800 
     92 C          -2.0564  -27.1482  -51.8787 C.2       16 UNK         0.5000 
     93 O          -1.6712  -27.4669  -53.0029 O.2       16 UNK        -0.5000 
     94 N          -3.2064  -27.5741  -51.3353 N.am      17 UNK        -0.5000 
     95 CA         -4.2534  -28.3671  -51.9915 C.3       17 UNK         0.1400 
     96 CB         -3.7703  -29.8112  -52.2381 C.3       17 UNK        -0.1800 
     97 C          -4.7969  -27.6783  -53.2646 C.2       17 UNK         0.5000 
     98 O          -4.9189  -28.3098  -54.3158 O.2       17 UNK        -0.5000 
     99 N          -5.0860  -26.3762  -53.1328 N.am      18 UNK        -0.5000 
    100 CA        -5.5652  -25.4411  -54.1559 C.3       18 UNK         0.1400 
    101 CB        -6.9777  -25.8374  -54.6335 C.3       18 UNK        -0.1800 
    102 C         -4.5869  -25.1964  -55.3283 C.2       18 UNK         0.5000 
    103 O         -5.0174  -24.7238  -56.3823 O.2       18 UNK        -0.5000 
    104 N         -3.2953  -25.5006  -55.1410 N.am      19 UNK        -0.5000 
    105 CA        -2.2445  -25.2582  -56.1306 C.3       19 UNK         0.1400 
    106 CB        -1.1089  -26.2729  -55.9345 C.3       19 UNK        -0.1800 
    107 C         -1.6897  -23.8237  -56.0662 C.2       19 UNK         0.5000 
    108 O         -1.2187  -23.3189  -57.0871 O.2       19 UNK        -0.5000 
    109 N         -1.7302  -23.1958  -54.8829 N.am      20 UNK        -0.5000 
    110 CA        -1.2658  -21.8273  -54.6629 C.3       20 UNK         0.1400 
    111 CB        -0.9673  -21.6249  -53.1677 C.3       20 UNK        -0.1800 
    112 C         -2.2996  -20.7955  -55.1452 C.2       20 UNK         0.5000 
    113 O         -3.4936  -21.0972  -55.2325 O.2       20 UNK        -0.5000 
    114 N         -1.8228  -19.5661  -55.3847 N.am      21 UNK        -0.5000 
    115 CA        -2.6157  -18.4100  -55.8217 C.3       21 UNK         0.1400 
    116 CB        -1.6670  -17.2314  -56.0898 C.3       21 UNK        -0.1800 
    117 C         -3.7309  -17.9908  -54.8405 C.2       21 UNK         0.5000 
    118 O         -4.6838  -17.3301  -55.2560 O.2       21 UNK        -0.5000 
    119 N         -3.6044  -18.3979  -53.5712 N.am      22 UNK        -0.5000 
    120 CA        -4.6332  -18.2571  -52.5304 C.3       22 UNK         0.1400 
    121 C         -5.8890  -19.1568  -52.7413 C.2       22 UNK         0.5000 
    122 N         -5.8677  -20.1470  -53.6278 N.am      22 UNK        -0.7600 
    123 O         -6.9075  -18.9451  -52.0895 O.2       22 UNK        -0.5000 
    124 C124       -4.0548  -18.4627  -51.1054 C.3       23 UNK        -0.0398 
    125 S125       -2.5795  -17.4405  -50.7607 S.3       23 UNK        -0.2404 
    126 C126       -3.3428  -15.8954  -50.1545 C.3       23 UNK        -0.0205 
    127 H127       -0.8925   -7.3694  -45.9494 H         1 UNK         0.0600 
    128 H128       -0.3020   -7.6405  -44.3063 H         1 UNK         0.0600 
    129 H129       -1.9068   -8.2104  -44.7739 H         1 UNK         0.0600 
    130 H130       -1.9626  -10.4118  -45.1203 H         1 UNK         0.3000 
    131 H131        0.0727  -11.7964  -46.6712 H         1 UNK         0.0600 
    132 H132       -2.1887  -12.3542  -47.1731 H         1 UNK         0.0800 
    133 H133       -1.4997  -13.7574  -46.4143 H         1 UNK         0.0800 
    134 H134       -5.4946  -13.2005  -45.4900 H         1 UNK         0.0800 
    135 H135       -4.7206  -12.4060  -46.8390 H         1 UNK         0.0800 
    136 H136       -3.9024  -13.7305  -48.6719 H         1 UNK         0.1150 
    137 H137       -3.6591  -18.0037  -48.3139 H         1 UNK         0.1150 
    138 H138       -4.8038  -15.6370  -44.9463 H         1 UNK         0.1150 
    139 H139       -3.3644  -18.7156  -45.7804 H         1 UNK         0.0800 
    140 H140       -4.4719  -17.9607  -44.6580 H         1 UNK         0.0800 
    141 H141       -6.3707  -21.0976  -44.8029 H         1 UNK         0.0800 
    142 H142       -4.9190  -20.3689  -44.1666 H         1 UNK         0.0800 
    143 H143       -5.0238  -22.1356  -46.6671 H         1 UNK         0.0600 
    144 H144       -2.8860  -20.5422  -45.6737 H         1 UNK         0.3000 
    145 H145       -0.2036  -22.2959  -47.1191 H         1 UNK         0.0600 
    146 H146       -1.6925  -19.8991  -48.3168 H         1 UNK         0.0600 
    147 H147        0.0391  -20.1848  -48.4790 H         1 UNK         0.0600 
    148 H148       -1.1061  -21.3149  -49.1795 H         1 UNK         0.0600 
    149 H149       -0.4025  -19.6442  -46.0903 H         1 UNK         0.3000 
    150 H150       -0.1006  -20.3526  -42.6762 H         1 UNK         0.0600 
    151 H151        2.1171  -21.3271  -43.1451 H         1 UNK         0.0600 
    152 H152        2.2953  -19.6315  -42.7207 H         1 UNK         0.0600 
    153 H153        2.4182  -20.1390  -44.4053 H         1 UNK         0.0600 
    154 H154        0.8556  -18.1985  -44.3937 H         1 UNK         0.3000 
    155 H155       -2.2390  -16.5161  -44.5866 H         1 UNK         0.0600 
    156 H156       -1.6781  -15.9875  -42.1946 H         1 UNK         0.0600 
    157 H157       -1.2731  -14.6796  -43.2882 H         1 UNK         0.0600 
    158 H158       -0.0002  -15.7333  -42.6612 H         1 UNK         0.0600 
    159 H159        0.2917  -15.4571  -45.1255 H         1 UNK         0.3000 
    160 H160        1.1462  -17.2315  -48.0740 H         1 UNK         0.0600 
    161 H161        1.0384  -15.0944  -49.2139 H         1 UNK         0.0600 
    162 H162        0.2107  -14.3291  -47.8636 H         1 UNK         0.0600 
    163 H163       -0.6131  -15.5517  -48.8286 H         1 UNK         0.0600 
    164 H164        2.4985  -15.0465  -47.1704 H         1 UNK         0.3000 
    165 H165        4.2056  -16.0918  -44.3611 H         1 UNK         0.0600 
    166 H166        5.3918  -16.5460  -47.1471 H         1 UNK         0.0600 
    167 H167        6.3080  -16.2789  -45.6640 H         1 UNK         0.0600 
    168 H168        5.3307  -17.7271  -45.8467 H         1 UNK         0.0600 
    169 H169        4.4993  -13.9831  -44.7450 H         1 UNK         0.3000 
    170 H170        5.2751  -11.9633  -47.4577 H         1 UNK         0.0600 
    171 H171        2.7448  -11.5979  -45.7818 H         1 UNK         0.0600 
    172 H172        3.6033  -10.3378  -46.6599 H         1 UNK         0.0600 
    173 H173        2.7916  -11.6240  -47.5395 H         1 UNK         0.0600 
    174 H174        4.8736  -11.5112  -44.6186 H         1 UNK         0.3000 
    175 H175        7.9310  -12.8025  -43.5345 H         1 UNK         0.0600 
    176 H176        7.5367   -9.8015  -44.0219 H         1 UNK         0.0600 
    177 H177        8.6497  -10.5286  -42.8617 H         1 UNK         0.0600 
    178 H178        8.9078  -10.7501  -44.5839 H         1 UNK         0.0600 
    179 H179        6.2959  -10.9606  -42.1994 H         1 UNK         0.3000 
    180 H180        4.8309  -13.2088  -40.3123 H         1 UNK         0.0600 
    181 H181        4.5453  -10.2733  -41.1665 H         1 UNK         0.0600 
    182 H182        5.8128  -10.9409  -40.1367 H         1 UNK         0.0600 
    183 H183        4.1515  -10.9291  -39.5838 H         1 UNK         0.0600 
    184 H184        2.6855  -13.3794  -40.7733 H         1 UNK         0.3000 
    185 H185        0.8217  -13.5277  -42.2560 H         1 UNK         0.0600 
    186 H186       -0.8552  -12.1292  -41.0347 H         1 UNK         0.0600 
    187 H187        0.6442  -12.2294  -40.1304 H         1 UNK         0.0600 
    188 H188        0.2655  -10.7674  -41.0321 H         1 UNK         0.0600 
    189 H189       -0.2994  -11.0871  -43.3824 H         1 UNK         0.3000 
    190 H190       -2.7682  -22.6881  -44.0258 H         1 UNK         0.3000 
    191 H191       -4.2621  -24.7506  -42.6771 H         1 UNK         0.0600 
    192 H192       -1.2470  -24.1980  -42.7329 H         1 UNK         0.0600 
    193 H193       -2.3945  -23.4757  -41.6044 H         1 UNK         0.0600 
    194 H194       -2.0954  -25.2064  -41.5703 H         1 UNK         0.0600 
    195 H195       -2.4027  -24.6599  -45.6228 H         1 UNK         0.3000 
    196 H196       -2.3666  -27.6312  -45.8960 H         1 UNK         0.0600 
    197 H197       -0.1842  -26.4229  -46.1996 H         1 UNK         0.0600 
    198 H198       -0.8999  -25.4547  -47.4856 H         1 UNK         0.0600 
    199 H199       -0.7164  -27.1952  -47.6815 H         1 UNK         0.0600 
    200 H200       -4.6189  -25.4116  -46.2804 H         1 UNK         0.3000 
    201 H201       -6.3448  -24.9380  -47.5772 H         1 UNK         0.0600 
    202 H202       -7.3935  -26.7662  -48.8682 H         1 UNK         0.0600 
    203 H203       -6.7941  -27.3857  -47.3385 H         1 UNK         0.0600 
    204 H204       -5.9077  -27.7043  -48.8284 H         1 UNK         0.0600 
    205 H205       -4.0290  -23.7463  -48.3734 H         1 UNK         0.3000 
    206 H206       -3.0439  -22.5412  -49.9300 H         1 UNK         0.0600 
    207 H207       -5.2800  -21.7498  -50.6280 H         1 UNK         0.0600 
    208 H208       -5.4499  -23.1047  -51.7382 H         1 UNK         0.0600 
    209 H209       -4.2165  -21.8893  -52.0177 H         1 UNK         0.0600 
    210 H210       -2.1597  -25.0290  -49.5012 H         1 UNK         0.3000 
    211 H211       -0.8674  -26.7064  -50.1706 H         1 UNK         0.0600 
    212 H212        0.5436  -24.8873  -51.1491 H         1 UNK         0.0600 
    213 H213        0.6612  -26.3670  -52.0884 H         1 UNK         0.0600 
    214 H214       -0.3140  -25.0308  -52.6816 H         1 UNK         0.0600 
    215 H215       -3.4043  -27.2913  -50.3783 H         1 UNK         0.3000 
    216 H216       -5.0870  -28.4129  -51.2891 H         1 UNK         0.0600 
    217 H217       -4.5806  -30.4333  -52.6197 H         1 UNK         0.0600 
    218 H218       -2.9585  -29.8498  -52.9651 H         1 UNK         0.0600 
    219 H219       -3.4160  -30.2701  -51.3151 H         1 UNK         0.0600 
    220 H220       -4.9948  -25.9726  -52.2040 H         1 UNK         0.3000 
    221 H221       -5.6534  -24.4790  -53.6511 H         1 UNK         0.0600 
    222 H222       -6.9647  -26.7615  -55.2119 H         1 UNK         0.0600 
    223 H223       -7.6533  -25.9778  -53.7897 H         1 UNK         0.0600 
    224 H224       -7.4109  -25.0621  -55.2664 H         1 UNK         0.0600 
    225 H225       -3.0057  -25.8610  -54.2404 H         1 UNK         0.3000 
    226 H226       -2.6552  -25.4127  -57.1307 H         1 UNK         0.0600 
    227 H227       -1.4849  -27.2963  -55.9426 H         1 UNK         0.0600 
    228 H228       -0.3713  -26.1894  -56.7334 H         1 UNK         0.0600 
    229 H229       -0.5855  -26.1134  -54.9916 H         1 UNK         0.0600 
    230 H230       -2.1826  -23.6507  -54.0929 H         1 UNK         0.3000 
    231 H231       -0.3383  -21.6808  -55.2206 H         1 UNK         0.0600 
    232 H232       -0.4829  -20.6640  -52.9911 H         1 UNK         0.0600 
    233 H233       -0.2993  -22.3981  -52.7877 H         1 UNK         0.0600 
    234 H234       -1.8768  -21.6428  -52.5681 H         1 UNK         0.0600 
    235 H235       -0.8332  -19.4010  -55.2691 H         1 UNK         0.3000 
    236 H236       -3.1004  -18.6810  -56.7618 H         1 UNK         0.0600 
    237 H237       -0.9283  -17.4830  -56.8510 H         1 UNK         0.0600 
    238 H238       -2.2165  -16.3602  -56.4491 H         1 UNK         0.0600 
    239 H239       -1.1329  -16.9326  -55.1868 H         1 UNK         0.0600 
    240 H240       -2.7769  -18.9127  -53.3133 H         1 UNK         0.3000 
    241 H241       -4.9963  -17.2293  -52.5851 H         1 UNK         0.0600 
    242 H242       -5.0379  -20.3512  -54.1750 H         1 UNK         0.3800 
    243 H243       -6.6940  -20.7082  -53.7542 H         1 UNK         0.3800 
    244 H244       -4.8182  -18.2518  -50.3548 H         1 UNK         0.0800 
    245 H245       -3.7707  -19.5061  -50.9608 H         1 UNK         0.0800 
    246 H246       -4.2128  -15.6577  -50.7675 H         1 UNK         0.0800 
    247 H247       -2.6236  -15.0933  -50.3265 H         1 UNK         0.0800 
@<TRIPOS>BOND
     1    1    2 1    
     2    1  127 1    
     3    1  128 1    
     4    1  129 1    
     5    2    3 2    
     6    2    4 am   BACKBONE|DICT|INTERRES
     7    4    5 1    
     8    4  130 1    
     9    5    6 1    
    10    5   65 1    
    11    5  131 1    
    12    6    7 1    
    13    6  132 1    
    14    6  133 1    
    15    7    8 1    
    16    8    9 1    
    17    8  134 1    
    18    8  135 1    
    19    9   10 ar   
    20    9   14 ar   
    21   10   11 ar   
    22   10  136 1    
    23   11   12 ar   
    24   11  126 1    
    25   12   13 ar   
    26   12  137 1    
    27   13   14 ar   
    28   13   15 1    
    29   14  138 1    
    30   15   16 1    
    31   15  139 1    
    32   15  140 1    
    33   16   17 1    
    34   17   18 1    
    35   17  141 1    
    36   17  142 1    
    37   18   19 1    
    38   18   67 1    
    39   18  143 1    
    40   19   20 am   BACKBONE|DICT|INTERRES
    41   19  144 1    
    42   20   21 2    
    43   20   22 1    
    44   22   23 1    
    45   22   24 1    
    46   22  145 1    
    47   23  146 1    
    48   23  147 1    
    49   23  148 1    
    50   24   25 am   BACKBONE|DICT|INTERRES
    51   24  149 1    
    52   25   26 2    
    53   25   27 1    
    54   27   28 1    
    55   27   29 1    
    56   27  150 1    
    57   28  151 1    
    58   28  152 1    
    59   28  153 1    
    60   29   30 am   BACKBONE|DICT|INTERRES
    61   29  154 1    
    62   30   31 2    
    63   30   32 1    
    64   32   33 1    
    65   32   34 1    
    66   32  155 1    
    67   33  156 1    
    68   33  157 1    
    69   33  158 1    
    70   34   35 am   BACKBONE|DICT|INTERRES
    71   34  159 1    
    72   35   36 2    
    73   35   37 1    
    74   37   38 1    
    75   37   39 1    
    76   37  160 1    
    77   38  161 1    
    78   38  162 1    
    79   38  163 1    
    80   39   40 am   BACKBONE|DICT|INTERRES
    81   39  164 1    
    82   40   41 2    
    83   40   42 1    
    84   42   43 1    
    85   42   44 1    
    86   42  165 1    
    87   43  166 1    
    88   43  167 1    
    89   43  168 1    
    90   44   45 am   BACKBONE|DICT|INTERRES
    91   44  169 1    
    92   45   46 2    
    93   45   47 1    
    94   47   48 1    
    95   47   49 1    
    96   47  170 1    
    97   48  171 1    
    98   48  172 1    
    99   48  173 1    
   100   49   50 am   BACKBONE|DICT|INTERRES
   101   49  174 1    
   102   50   51 2    
   103   50   52 1    
   104   52   53 1    
   105   52   54 1    
   106   52  175 1    
   107   53  176 1    
   108   53  177 1    
   109   53  178 1    
   110   54   55 am   BACKBONE|DICT|INTERRES
   111   54  179 1    
   112   55   56 2    
   113   55   57 1    
   114   57   58 1    
   115   57   59 1    
   116   57  180 1    
   117   58  181 1    
   118   58  182 1    
   119   58  183 1    
   120   59   60 am   BACKBONE|DICT|INTERRES
   121   59  184 1    
   122   60   61 2    
   123   60   62 1    
   124   62   63 1    
   125   62   64 1    
   126   62  185 1    
   127   63  186 1    
   128   63  187 1    
   129   63  188 1    
   130   64   65 am   BACKBONE|DICT|INTERRES
   131   64  189 1    
   132   65   66 2    
   133   67   68 2    
   134   67   69 am   BACKBONE|DICT|INTERRES
   135   69   70 1    
   136   69  190 1    
   137   70   71 1    
   138   70   72 1    
   139   70  191 1    
   140   71  192 1    
   141   71  193 1    
   142   71  194 1    
   143   72   73 2    
   144   72   74 am   BACKBONE|DICT|INTERRES
   145   74   75 1    
   146   74  195 1    
   147   75   76 1    
   148   75   77 1    
   149   75  196 1    
   150   76  197 1    
   151   76  198 1    
   152   76  199 1    
   153   77   78 2    
   154   77   79 am   BACKBONE|DICT|INTERRES
   155   79   80 1    
   156   79  200 1    
   157   80   81 1    
   158   80   82 1    
   159   80  201 1    
   160   81  202 1    
   161   81  203 1    
   162   81  204 1    
   163   82   83 2    
   164   82   84 am   BACKBONE|DICT|INTERRES
   165   84   85 1    
   166   84  205 1    
   167   85   86 1    
   168   85   87 1    
   169   85  206 1    
   170   86  207 1    
   171   86  208 1    
   172   86  209 1    
   173   87   88 2    
   174   87   89 am   BACKBONE|DICT|INTERRES
   175   89   90 1    
   176   89  210 1    
   177   90   91 1    
   178   90   92 1    
   179   90  211 1    
   180   91  212 1    
   181   91  213 1    
   182   91  214 1    
   183   92   93 2    
   184   92   94 am   BACKBONE|DICT|INTERRES
   185   94   95 1    
   186   94  215 1    
   187   95   96 1    
   188   95   97 1    
   189   95  216 1    
   190   96  217 1    
   191   96  218 1    
   192   96  219 1    
   193   97   98 2    
   194   97   99 am   BACKBONE|DICT|INTERRES
   195   99  100 1    
   196   99  220 1    
   197  100  101 1    
   198  100  102 1    
   199  100  221 1    
   200  101  222 1    
   201  101  223 1    
   202  101  224 1    
   203  102  103 2    
   204  102  104 am   BACKBONE|DICT|INTERRES
   205  104  105 1    
   206  104  225 1    
   207  105  106 1    
   208  105  107 1    
   209  105  226 1    
   210  106  227 1    
   211  106  228 1    
   212  106  229 1    
   213  107  108 2    
   214  107  109 am   BACKBONE|DICT|INTERRES
   215  109  110 1    
   216  109  230 1    
   217  110  111 1    
   218  110  112 1    
   219  110  231 1    
   220  111  232 1    
   221  111  233 1    
   222  111  234 1    
   223  112  113 2    
   224  112  114 am   BACKBONE|DICT|INTERRES
   225  114  115 1    
   226  114  235 1    
   227  115  116 1    
   228  115  117 1    
   229  115  236 1    
   230  116  237 1    
   231  116  238 1    
   232  116  239 1    
   233  117  118 2    
   234  117  119 am   BACKBONE|DICT|INTERRES
   235  119  120 1    
   236  119  240 1    
   237  120  121 1    
   238  120  124 1    
   239  120  241 1    
   240  121  122 am   BACKBONE|DICT|INTERRES
   241  121  123 2    
   242  122  242 1    
   243  122  243 1    
   244  124  125 1    
   245  124  244 1    
   246  124  245 1    
   247  125  126 1    
   248  126  246 1    
   249  126  247 1    
@<TRIPOS>SUBSTRUCTURE
     1 UNK         1 GROUP             0       ****    0 ROOT    
