@<TRIPOS>MOLECULE
3R540
247   249    1
SMALL
USER_CHARGES


@<TRIPOS>ATOM
      1 CA         -4.4464  -14.6991  -44.1381 C.3       0 UNK        -0.1800 
      2 C          -3.7222  -13.8531  -45.1764 C.2       0 UNK         0.5000 
      3 O          -4.3048  -12.9133  -45.7186 O.2       0 UNK        -0.5000 
      4 N          -2.4599  -14.1922  -45.4603 N.am      1 UNK        -0.5000 
      5 CA         -1.5809  -13.4864  -46.3989 C.3       1 UNK         0.1400 
      6 C6         -0.3216  -14.3236  -46.7292 C.3       23 UNK        -0.0398 
      7 S7         -0.7519  -15.9148  -47.5058 S.3       23 UNK        -0.2404 
      8 C8          0.4449  -15.9958  -48.8713 C.3       23 UNK        -0.0205 
      9 C9          0.3150  -17.3097  -49.6243 C.ar      23 UNK        -0.0193 
     10 C10        -0.4776  -17.3866  -50.7712 C.ar      23 UNK        -0.1150 
     11 C11        -0.6045  -18.5923  -51.4647 C.ar      23 UNK        -0.0193 
     12 C12         0.0543  -19.7317  -50.9915 C.ar      23 UNK        -0.1150 
     13 C13         0.8591  -19.6722  -49.8480 C.ar      23 UNK        -0.0193 
     14 C14         0.9888  -18.4493  -49.1755 C.ar      23 UNK        -0.1150 
     15 C15         1.6029  -20.9321  -49.4004 C.3       23 UNK        -0.0205 
     16 S16         1.9410  -21.0220  -47.6051 S.3       23 UNK        -0.2404 
     17 C17         1.4467  -22.7278  -47.1898 C.3       23 UNK        -0.0398 
     18 CA         -0.0006  -22.9032  -46.6625 C.3       11 UNK         0.1400 
     19 N          -0.2082  -22.3764  -45.3063 N.am      11 UNK        -0.5000 
     20 C          -1.2483  -22.7398  -44.5378 C.2       10 UNK         0.5000 
     21 O          -2.1152  -23.5319  -44.9056 O.2       10 UNK        -0.5000 
     22 CA         -1.3701  -22.1141  -43.1386 C.3       10 UNK         0.1400 
     23 CB         -0.3709  -22.7547  -42.1639 C.3       10 UNK        -0.1800 
     24 N          -1.2146  -20.6616  -43.1392 N.am      10 UNK        -0.5000 
     25 C          -2.0411  -19.8047  -43.7561 C.2       9 UNK         0.5000 
     26 O          -3.0421  -20.1502  -44.3829 O.2       9 UNK        -0.5000 
     27 CA         -1.6595  -18.3121  -43.7072 C.3       9 UNK         0.1400 
     28 CB         -2.0901  -17.6721  -42.3793 C.3       9 UNK        -0.1800 
     29 N          -0.2293  -18.0892  -43.9157 N.am      9 UNK        -0.5000 
     30 C           0.4323  -18.4605  -45.0213 C.2       8 UNK         0.5000 
     31 O          -0.1053  -18.9901  -45.9921 O.2       8 UNK        -0.5000 
     32 CA          1.9570  -18.2684  -45.0015 C.3       8 UNK         0.1400 
     33 CB          2.3409  -16.7978  -45.2241 C.3       8 UNK        -0.1800 
     34 N           2.5389  -18.7548  -43.7510 N.am      8 UNK        -0.5000 
     35 C           2.5835  -20.0462  -43.3899 C.2       7 UNK         0.5000 
     36 O           2.1728  -20.9729  -44.0889 O.2       7 UNK        -0.5000 
     37 CA          3.1485  -20.3476  -41.9899 C.3       7 UNK         0.1400 
     38 CB          4.6823  -20.4192  -42.0282 C.3       7 UNK        -0.1800 
     39 N           2.7335  -19.3617  -40.9905 N.am      7 UNK        -0.5000 
     40 C           1.4700  -19.1875  -40.5769 C.2       6 UNK         0.5000 
     41 O           0.5214  -19.8605  -40.9748 O.2       6 UNK        -0.5000 
     42 CA          1.2174  -18.0354  -39.5888 C.3       6 UNK         0.1400 
     43 CB          1.4488  -18.5006  -38.1435 C.3       6 UNK        -0.1800 
     44 N           2.0441  -16.8573  -39.8614 N.am      6 UNK        -0.5000 
     45 C           1.9665  -16.1217  -40.9772 C.2       5 UNK         0.5000 
     46 O           1.2049  -16.3738  -41.9153 O.2       5 UNK        -0.5000 
     47 CA          2.9380  -14.9364  -41.0828 C.3       5 UNK         0.1400 
     48 CB          4.1266  -15.2891  -41.9902 C.3       5 UNK        -0.1800 
     49 N           2.2578  -13.7633  -41.6211 N.am      5 UNK        -0.5000 
     50 C           1.4614  -12.9522  -40.9133 C.2       4 UNK         0.5000 
     51 O           1.2558  -13.0953  -39.7065 O.2       4 UNK        -0.5000 
     52 CA          0.7652  -11.8017  -41.6745 C.3       4 UNK         0.1400 
     53 CB          0.6731  -10.5100  -40.8359 C.3       4 UNK        -0.1800 
     54 N           1.3229  -11.5213  -43.0042 N.am      4 UNK        -0.5000 
     55 C           2.5489  -11.0626  -43.3084 C.2       3 UNK         0.5000 
     56 O           3.4209  -10.8262  -42.4721 O.2       3 UNK        -0.5000 
     57 CA          2.8701  -10.8512  -44.8038 C.3       3 UNK         0.1400 
     58 CB          3.7010  -12.0298  -45.3369 C.3       3 UNK        -0.1800 
     59 N           1.6802  -10.7015  -45.6439 N.am      3 UNK        -0.5000 
     60 C           0.8349   -9.6613  -45.6112 C.2       2 UNK         0.5000 
     61 O           1.0274   -8.6468  -44.9404 O.2       2 UNK        -0.5000 
     62 CA         -0.4590   -9.7863  -46.4440 C.3       2 UNK         0.1400 
     63 CB         -0.3257   -9.0049  -47.7602 C.3       2 UNK        -0.1800 
     64 N          -0.8647  -11.1657  -46.7493 N.am      2 UNK        -0.5000 
     65 C          -1.1685  -12.1074  -45.8442 C.2       1 UNK         0.5000 
     66 O          -1.0752  -11.9370  -44.6259 O.2       1 UNK        -0.5000 
     67 C          -1.0796  -22.4185  -47.6557 C.2       11 UNK         0.5000 
     68 O          -1.4714  -23.1846  -48.5390 O.2       11 UNK        -0.5000 
     69 N          -1.5721  -21.1846  -47.4691 N.am      12 UNK        -0.5000 
     70 CA         -2.7049  -20.6321  -48.2067 C.3       12 UNK         0.1400 
     71 CB         -2.8331  -19.1288  -47.9285 C.3       12 UNK        -0.1800 
     72 C          -4.0121  -21.3726  -47.8785 C.2       12 UNK         0.5000 
     73 O          -4.7084  -21.7938  -48.7992 O.2       12 UNK        -0.5000 
     74 N          -4.2991  -21.5764  -46.5837 N.am      13 UNK        -0.5000 
     75 CA         -5.4675  -22.3198  -46.0990 C.3       13 UNK         0.1400 
     76 CB         -5.5515  -22.2111  -44.5693 C.3       13 UNK        -0.1800 
     77 C          -5.4786  -23.7968  -46.5388 C.2       13 UNK         0.5000 
     78 O          -6.5423  -24.3290  -46.8578 O.2       13 UNK        -0.5000 
     79 N          -4.2931  -24.4188  -46.5824 N.am      14 UNK        -0.5000 
     80 CA         -4.0722  -25.7719  -47.0949 C.3       14 UNK         0.1400 
     81 CB         -2.7046  -26.2700  -46.6012 C.3       14 UNK        -0.1800 
     82 C          -4.1476  -25.8720  -48.6326 C.2       14 UNK         0.5000 
     83 O          -4.2221  -26.9874  -49.1496 O.2       14 UNK        -0.5000 
     84 N          -4.1066  -24.7247  -49.3292 N.am      15 UNK        -0.5000 
     85 CA         -4.0614  -24.5636  -50.7847 C.3       15 UNK         0.1400 
     86 CB         -5.3908  -25.0076  -51.4295 C.3       15 UNK        -0.1800 
     87 C          -2.8239  -25.2419  -51.4057 C.2       15 UNK         0.5000 
     88 O          -2.9363  -25.9445  -52.4117 O.2       15 UNK        -0.5000 
     89 N          -1.6543  -25.0190  -50.7875 N.am      16 UNK        -0.5000 
     90 CA         -0.3736  -25.6409  -51.1462 C.3       16 UNK         0.1400 
     91 CB          0.6792  -25.2475  -50.1017 C.3       16 UNK        -0.1800 
     92 C           0.1268  -25.2982  -52.5645 C.2       16 UNK         0.5000 
     93 O           0.8800  -26.0773  -53.1484 O.2       16 UNK        -0.5000 
     94 N          -0.3268  -24.1593  -53.1030 N.am      17 UNK        -0.5000 
     95 CA         -0.0736  -23.7012  -54.4708 C.3       17 UNK         0.1400 
     96 CB         -0.1254  -22.1654  -54.4740 C.3       17 UNK        -0.1800 
     97 C          -1.0566  -24.2965  -55.5062 C.2       17 UNK         0.5000 
     98 O          -1.0804  -23.8293  -56.6445 O.2       17 UNK        -0.5000 
     99 N          -1.8701  -25.2802  -55.0891 N.am      18 UNK        -0.5000 
    100 CA        -2.9733  -25.9381  -55.8052 C.3       18 UNK         0.1400 
    101 CB        -2.5468  -26.4710  -57.1888 C.3       18 UNK        -0.1800 
    102 C         -4.2610  -25.0897  -55.8653 C.2       18 UNK         0.5000 
    103 O         -5.2585  -25.5357  -56.4340 O.2       18 UNK        -0.5000 
    104 N         -4.2360  -23.9093  -55.2408 N.am      19 UNK        -0.5000 
    105 CA        -5.3542  -23.0054  -55.0291 C.3       19 UNK         0.1400 
    106 CB        -5.6172  -22.1698  -56.2935 C.3       19 UNK        -0.1800 
    107 C         -4.9757  -22.1058  -53.8494 C.2       19 UNK         0.5000 
    108 O         -3.8104  -21.7166  -53.7365 O.2       19 UNK        -0.5000 
    109 N         -5.9558  -21.7677  -53.0039 N.am      20 UNK        -0.5000 
    110 CA        -5.7680  -20.8833  -51.8482 C.3       20 UNK         0.1400 
    111 CB        -7.0053  -20.9661  -50.9419 C.3       20 UNK        -0.1800 
    112 C         -5.4817  -19.4241  -52.2493 C.2       20 UNK         0.5000 
    113 O         -4.7767  -18.7156  -51.5320 O.2       20 UNK        -0.5000 
    114 N         -6.0099  -19.0220  -53.4120 N.am      21 UNK        -0.5000 
    115 CA        -5.7820  -17.7232  -54.0431 C.3       21 UNK         0.1400 
    116 CB        -7.0212  -17.3739  -54.8846 C.3       21 UNK        -0.1800 
    117 C         -4.5048  -17.6874  -54.9097 C.2       21 UNK         0.5000 
    118 O         -4.2184  -16.6395  -55.4906 O.2       21 UNK        -0.5000 
    119 N         -3.7743  -18.8118  -54.9947 N.am      22 UNK        -0.5000 
    120 CA        -2.6052  -19.0438  -55.8621 C.3       22 UNK         0.1400 
    121 C         -2.9587  -19.0895  -57.3824 C.2       22 UNK         0.5000 
    122 N         -1.9919  -19.3813  -58.2430 N.am      22 UNK        -0.7600 
    123 O         -4.0998  -18.9068  -57.8013 O.2       22 UNK        -0.5000 
    124 C124       -1.4125  -18.0884  -55.5393 C.3       23 UNK        -0.0398 
    125 S125       -0.3339  -18.6823  -54.1964 S.3       23 UNK        -0.2404 
    126 C126       -1.4264  -18.6516  -52.7420 C.3       23 UNK        -0.0205 
    127 H127       -3.8339  -15.5333  -43.7956 H         1 UNK         0.0600 
    128 H128       -4.7061  -14.0894  -43.2726 H         1 UNK         0.0600 
    129 H129       -5.3661  -15.1052  -44.5593 H         1 UNK         0.0600 
    130 H130       -2.0365  -14.9699  -44.9770 H         1 UNK         0.3000 
    131 H131       -2.1407  -13.3231  -47.3226 H         1 UNK         0.0600 
    132 H132        0.2567  -14.5271  -45.8260 H         1 UNK         0.0800 
    133 H133        0.3401  -13.7729  -47.4001 H         1 UNK         0.0800 
    134 H134        1.4584  -15.8914  -48.4820 H         1 UNK         0.0800 
    135 H135        0.2834  -15.1546  -49.5472 H         1 UNK         0.0800 
    136 H136       -0.9899  -16.5043  -51.1281 H         1 UNK         0.1150 
    137 H137       -0.0417  -20.6614  -51.5344 H         1 UNK         0.1150 
    138 H138        1.6060  -18.3762  -48.2924 H         1 UNK         0.1150 
    139 H139        1.0290  -21.8069  -49.7057 H         1 UNK         0.0800 
    140 H140        2.5513  -20.9858  -49.9358 H         1 UNK         0.0800 
    141 H141        1.6134  -23.3672  -48.0558 H         1 UNK         0.0800 
    142 H142        2.1448  -23.0915  -46.4346 H         1 UNK         0.0800 
    143 H143       -0.1446  -23.9830  -46.5851 H         1 UNK         0.0600 
    144 H144        0.4842  -21.7225  -44.9528 H         1 UNK         0.3000 
    145 H145       -2.3752  -22.3320  -42.7714 H         1 UNK         0.0600 
    146 H146       -0.5321  -22.4005  -41.1457 H         1 UNK         0.0600 
    147 H147       -0.4795  -23.8398  -42.1500 H         1 UNK         0.0600 
    148 H148        0.6602  -22.5316  -42.4369 H         1 UNK         0.0600 
    149 H149       -0.4418  -20.2901  -42.5947 H         1 UNK         0.3000 
    150 H150       -2.1915  -17.8082  -44.5170 H         1 UNK         0.0600 
    151 H151       -3.1641  -17.7814  -42.2243 H         1 UNK         0.0600 
    152 H152       -1.8639  -16.6057  -42.3630 H         1 UNK         0.0600 
    153 H153       -1.5867  -18.1322  -41.5288 H         1 UNK         0.0600 
    154 H154        0.2837  -17.6410  -43.1627 H         1 UNK         0.3000 
    155 H155        2.3861  -18.8482  -45.8186 H         1 UNK         0.0600 
    156 H156        3.4226  -16.6650  -45.2086 H         1 UNK         0.0600 
    157 H157        1.9071  -16.1417  -44.4698 H         1 UNK         0.0600 
    158 H158        1.9896  -16.4536  -46.1958 H         1 UNK         0.0600 
    159 H159        2.8489  -18.0573  -43.0921 H         1 UNK         0.3000 
    160 H160        2.7691  -21.3237  -41.6804 H         1 UNK         0.0600 
    161 H161        5.1252  -19.4617  -42.3051 H         1 UNK         0.0600 
    162 H162        5.0195  -21.1595  -42.7551 H         1 UNK         0.0600 
    163 H163        5.0877  -20.7094  -41.0588 H         1 UNK         0.0600 
    164 H164        3.4524  -18.7654  -40.6083 H         1 UNK         0.3000 
    165 H165        0.1708  -17.7397  -39.6880 H         1 UNK         0.0600 
    166 H166        2.4881  -18.7832  -37.9713 H         1 UNK         0.0600 
    167 H167        1.1907  -17.7170  -37.4309 H         1 UNK         0.0600 
    168 H168        0.8295  -19.3676  -37.9092 H         1 UNK         0.0600 
    169 H169        2.6962  -16.5881  -39.1387 H         1 UNK         0.3000 
    170 H170        3.3245  -14.6977  -40.0895 H         1 UNK         0.0600 
    171 H171        4.6582  -16.1659  -41.6184 H         1 UNK         0.0600 
    172 H172        3.8089  -15.5041  -43.0100 H         1 UNK         0.0600 
    173 H173        4.8438  -14.4690  -42.0321 H         1 UNK         0.0600 
    174 H174        2.3402  -13.6040  -42.6130 H         1 UNK         0.3000 
    175 H175       -0.2548  -12.1452  -41.8527 H         1 UNK         0.0600 
    176 H176        0.1660   -9.7183  -41.3876 H         1 UNK         0.0600 
    177 H177        0.1075  -10.6768  -39.9186 H         1 UNK         0.0600 
    178 H178        1.6581  -10.1416  -40.5485 H         1 UNK         0.0600 
    179 H179        0.6645  -11.6658  -43.7640 H         1 UNK         0.3000 
    180 H180        3.4664   -9.9403  -44.8882 H         1 UNK         0.0600 
    181 H181        4.0027  -11.8640  -46.3713 H         1 UNK         0.0600 
    182 H182        4.6126  -12.1624  -44.7524 H         1 UNK         0.0600 
    183 H183        3.1455  -12.9678  -45.2948 H         1 UNK         0.0600 
    184 H184        1.4525  -11.4768  -46.2470 H         1 UNK         0.3000 
    185 H185       -1.2607   -9.3324  -45.8578 H         1 UNK         0.0600 
    186 H186       -1.2652   -8.9980  -48.3131 H         1 UNK         0.0600 
    187 H187       -0.0545   -7.9649  -47.5729 H         1 UNK         0.0600 
    188 H188        0.4424   -9.4329  -48.4057 H         1 UNK         0.0600 
    189 H189       -0.9554  -11.3874  -47.7307 H         1 UNK         0.3000 
    190 H190       -1.1451  -20.5835  -46.7703 H         1 UNK         0.3000 
    191 H191       -2.5052  -20.7583  -49.2732 H         1 UNK         0.0600 
    192 H192       -3.6647  -18.6969  -48.4865 H         1 UNK         0.0600 
    193 H193       -1.9298  -18.6023  -48.2338 H         1 UNK         0.0600 
    194 H194       -2.9967  -18.9215  -46.8708 H         1 UNK         0.0600 
    195 H195       -3.6909  -21.1781  -45.8726 H         1 UNK         0.3000 
    196 H196       -6.3560  -21.8463  -46.5215 H         1 UNK         0.0600 
    197 H197       -6.4177  -22.7508  -44.1846 H         1 UNK         0.0600 
    198 H198       -5.6496  -21.1725  -44.2533 H         1 UNK         0.0600 
    199 H199       -4.6648  -22.6249  -44.0880 H         1 UNK         0.0600 
    200 H200       -3.4773  -23.9341  -46.2180 H         1 UNK         0.3000 
    201 H201       -4.8436  -26.4266  -46.6843 H         1 UNK         0.0600 
    202 H202       -2.6460  -26.2517  -45.5128 H         1 UNK         0.0600 
    203 H203       -1.8920  -25.6573  -46.9922 H         1 UNK         0.0600 
    204 H204       -2.5224  -27.2975  -46.9186 H         1 UNK         0.0600 
    205 H205       -4.0546  -23.8595  -48.8050 H         1 UNK         0.3000 
    206 H206       -3.9452  -23.4956  -50.9721 H         1 UNK         0.0600 
    207 H207       -6.2324  -24.4572  -51.0090 H         1 UNK         0.0600 
    208 H208       -5.3872  -24.8247  -52.5038 H         1 UNK         0.0600 
    209 H209       -5.5786  -26.0716  -51.2849 H         1 UNK         0.0600 
    210 H210       -1.6476  -24.4142  -49.9683 H         1 UNK         0.3000 
    211 H211       -0.5123  -26.7230  -51.1019 H         1 UNK         0.0600 
    212 H212        0.8698  -24.1750  -50.1233 H         1 UNK         0.0600 
    213 H213        1.6269  -25.7539  -50.2893 H         1 UNK         0.0600 
    214 H214        0.3594  -25.5156  -49.0945 H         1 UNK         0.0600 
    215 H215       -0.9453  -23.5888  -52.5455 H         1 UNK         0.3000 
    216 H216        0.9310  -24.0058  -54.7712 H         1 UNK         0.0600 
    217 H217        0.1007  -21.7603  -55.4610 H         1 UNK         0.0600 
    218 H218        0.6052  -21.7459  -53.7823 H         1 UNK         0.0600 
    219 H219       -1.1095  -21.7958  -54.1848 H         1 UNK         0.0600 
    220 H220       -1.8033  -25.5548  -54.1150 H         1 UNK         0.3000 
    221 H221       -3.2271  -26.8059  -55.1948 H         1 UNK         0.0600 
    222 H222       -2.3968  -25.6666  -57.9089 H         1 UNK         0.0600 
    223 H223       -1.6229  -27.0457  -57.1246 H         1 UNK         0.0600 
    224 H224       -3.3109  -27.1309  -57.6010 H         1 UNK         0.0600 
    225 H225       -3.3799  -23.6157  -54.7895 H         1 UNK         0.3000 
    226 H226       -6.2443  -23.5837  -54.7724 H         1 UNK         0.0600 
    227 H227       -6.4298  -21.4601  -56.1340 H         1 UNK         0.0600 
    228 H228       -4.7353  -21.5997  -56.5881 H         1 UNK         0.0600 
    229 H229       -5.9002  -22.8025  -57.1348 H         1 UNK         0.0600 
    230 H230       -6.8893  -22.1239  -53.1535 H         1 UNK         0.3000 
    231 H231       -4.9009  -21.2381  -51.2898 H         1 UNK         0.0600 
    232 H232       -6.8879  -20.3278  -50.0651 H         1 UNK         0.0600 
    233 H233       -7.1587  -21.9828  -50.5795 H         1 UNK         0.0600 
    234 H234       -7.9106  -20.6503  -51.4615 H         1 UNK         0.0600 
    235 H235       -6.5792  -19.6763  -53.9280 H         1 UNK         0.3000 
    236 H236       -5.6710  -16.9614  -53.2686 H         1 UNK         0.0600 
    237 H237       -7.1683  -18.0862  -55.6976 H         1 UNK         0.0600 
    238 H238       -7.9245  -17.3681  -54.2742 H         1 UNK         0.0600 
    239 H239       -6.9277  -16.3827  -55.3302 H         1 UNK         0.0600 
    240 H240       -4.0821  -19.6216  -54.4740 H         1 UNK         0.3000 
    241 H241       -2.2941  -20.0647  -55.6372 H         1 UNK         0.0600 
    242 H242       -2.2147  -19.4282  -59.2253 H         1 UNK         0.3800 
    243 H243       -1.0501  -19.5784  -57.9423 H         1 UNK         0.3800 
    244 H244       -1.7437  -17.0787  -55.3004 H         1 UNK         0.0800 
    245 H245       -0.7557  -17.9638  -56.4006 H         1 UNK         0.0800 
    246 H246       -2.0977  -17.7935  -52.8006 H         1 UNK         0.0800 
    247 H247       -2.0571  -19.5420  -52.7374 H         1 UNK         0.0800 
@<TRIPOS>BOND
     1    1    2 1    
     2    1  127 1    
     3    1  128 1    
     4    1  129 1    
     5    2    3 2    
     6    2    4 am   BACKBONE|DICT|INTERRES
     7    4    5 1    
     8    4  130 1    
     9    5    6 1    
    10    5   65 1    
    11    5  131 1    
    12    6    7 1    
    13    6  132 1    
    14    6  133 1    
    15    7    8 1    
    16    8    9 1    
    17    8  134 1    
    18    8  135 1    
    19    9   10 ar   
    20    9   14 ar   
    21   10   11 ar   
    22   10  136 1    
    23   11   12 ar   
    24   11  126 1    
    25   12   13 ar   
    26   12  137 1    
    27   13   14 ar   
    28   13   15 1    
    29   14  138 1    
    30   15   16 1    
    31   15  139 1    
    32   15  140 1    
    33   16   17 1    
    34   17   18 1    
    35   17  141 1    
    36   17  142 1    
    37   18   19 1    
    38   18   67 1    
    39   18  143 1    
    40   19   20 am   BACKBONE|DICT|INTERRES
    41   19  144 1    
    42   20   21 2    
    43   20   22 1    
    44   22   23 1    
    45   22   24 1    
    46   22  145 1    
    47   23  146 1    
    48   23  147 1    
    49   23  148 1    
    50   24   25 am   BACKBONE|DICT|INTERRES
    51   24  149 1    
    52   25   26 2    
    53   25   27 1    
    54   27   28 1    
    55   27   29 1    
    56   27  150 1    
    57   28  151 1    
    58   28  152 1    
    59   28  153 1    
    60   29   30 am   BACKBONE|DICT|INTERRES
    61   29  154 1    
    62   30   31 2    
    63   30   32 1    
    64   32   33 1    
    65   32   34 1    
    66   32  155 1    
    67   33  156 1    
    68   33  157 1    
    69   33  158 1    
    70   34   35 am   BACKBONE|DICT|INTERRES
    71   34  159 1    
    72   35   36 2    
    73   35   37 1    
    74   37   38 1    
    75   37   39 1    
    76   37  160 1    
    77   38  161 1    
    78   38  162 1    
    79   38  163 1    
    80   39   40 am   BACKBONE|DICT|INTERRES
    81   39  164 1    
    82   40   41 2    
    83   40   42 1    
    84   42   43 1    
    85   42   44 1    
    86   42  165 1    
    87   43  166 1    
    88   43  167 1    
    89   43  168 1    
    90   44   45 am   BACKBONE|DICT|INTERRES
    91   44  169 1    
    92   45   46 2    
    93   45   47 1    
    94   47   48 1    
    95   47   49 1    
    96   47  170 1    
    97   48  171 1    
    98   48  172 1    
    99   48  173 1    
   100   49   50 am   BACKBONE|DICT|INTERRES
   101   49  174 1    
   102   50   51 2    
   103   50   52 1    
   104   52   53 1    
   105   52   54 1    
   106   52  175 1    
   107   53  176 1    
   108   53  177 1    
   109   53  178 1    
   110   54   55 am   BACKBONE|DICT|INTERRES
   111   54  179 1    
   112   55   56 2    
   113   55   57 1    
   114   57   58 1    
   115   57   59 1    
   116   57  180 1    
   117   58  181 1    
   118   58  182 1    
   119   58  183 1    
   120   59   60 am   BACKBONE|DICT|INTERRES
   121   59  184 1    
   122   60   61 2    
   123   60   62 1    
   124   62   63 1    
   125   62   64 1    
   126   62  185 1    
   127   63  186 1    
   128   63  187 1    
   129   63  188 1    
   130   64   65 am   BACKBONE|DICT|INTERRES
   131   64  189 1    
   132   65   66 2    
   133   67   68 2    
   134   67   69 am   BACKBONE|DICT|INTERRES
   135   69   70 1    
   136   69  190 1    
   137   70   71 1    
   138   70   72 1    
   139   70  191 1    
   140   71  192 1    
   141   71  193 1    
   142   71  194 1    
   143   72   73 2    
   144   72   74 am   BACKBONE|DICT|INTERRES
   145   74   75 1    
   146   74  195 1    
   147   75   76 1    
   148   75   77 1    
   149   75  196 1    
   150   76  197 1    
   151   76  198 1    
   152   76  199 1    
   153   77   78 2    
   154   77   79 am   BACKBONE|DICT|INTERRES
   155   79   80 1    
   156   79  200 1    
   157   80   81 1    
   158   80   82 1    
   159   80  201 1    
   160   81  202 1    
   161   81  203 1    
   162   81  204 1    
   163   82   83 2    
   164   82   84 am   BACKBONE|DICT|INTERRES
   165   84   85 1    
   166   84  205 1    
   167   85   86 1    
   168   85   87 1    
   169   85  206 1    
   170   86  207 1    
   171   86  208 1    
   172   86  209 1    
   173   87   88 2    
   174   87   89 am   BACKBONE|DICT|INTERRES
   175   89   90 1    
   176   89  210 1    
   177   90   91 1    
   178   90   92 1    
   179   90  211 1    
   180   91  212 1    
   181   91  213 1    
   182   91  214 1    
   183   92   93 2    
   184   92   94 am   BACKBONE|DICT|INTERRES
   185   94   95 1    
   186   94  215 1    
   187   95   96 1    
   188   95   97 1    
   189   95  216 1    
   190   96  217 1    
   191   96  218 1    
   192   96  219 1    
   193   97   98 2    
   194   97   99 am   BACKBONE|DICT|INTERRES
   195   99  100 1    
   196   99  220 1    
   197  100  101 1    
   198  100  102 1    
   199  100  221 1    
   200  101  222 1    
   201  101  223 1    
   202  101  224 1    
   203  102  103 2    
   204  102  104 am   BACKBONE|DICT|INTERRES
   205  104  105 1    
   206  104  225 1    
   207  105  106 1    
   208  105  107 1    
   209  105  226 1    
   210  106  227 1    
   211  106  228 1    
   212  106  229 1    
   213  107  108 2    
   214  107  109 am   BACKBONE|DICT|INTERRES
   215  109  110 1    
   216  109  230 1    
   217  110  111 1    
   218  110  112 1    
   219  110  231 1    
   220  111  232 1    
   221  111  233 1    
   222  111  234 1    
   223  112  113 2    
   224  112  114 am   BACKBONE|DICT|INTERRES
   225  114  115 1    
   226  114  235 1    
   227  115  116 1    
   228  115  117 1    
   229  115  236 1    
   230  116  237 1    
   231  116  238 1    
   232  116  239 1    
   233  117  118 2    
   234  117  119 am   BACKBONE|DICT|INTERRES
   235  119  120 1    
   236  119  240 1    
   237  120  121 1    
   238  120  124 1    
   239  120  241 1    
   240  121  122 am   BACKBONE|DICT|INTERRES
   241  121  123 2    
   242  122  242 1    
   243  122  243 1    
   244  124  125 1    
   245  124  244 1    
   246  124  245 1    
   247  125  126 1    
   248  126  246 1    
   249  126  247 1    
@<TRIPOS>SUBSTRUCTURE
     1 UNK         1 GROUP             0       ****    0 ROOT    
