@<TRIPOS>MOLECULE
3R540
247   249    1
SMALL
USER_CHARGES


@<TRIPOS>ATOM
      1 CA         -4.1687  -13.2585  -51.5303 C.3       0 UNK        -0.1800 
      2 C          -3.0167  -14.0760  -52.1147 C.2       0 UNK         0.5000 
      3 O          -3.1867  -14.6792  -53.1717 O.2       0 UNK        -0.5000 
      4 N          -1.8264  -14.1146  -51.4985 N.am      1 UNK        -0.5000 
      5 CA         -1.4395  -13.5257  -50.2104 C.3       1 UNK         0.1400 
      6 C6          0.0949  -13.6251  -49.9470 C.3       23 UNK        -0.0398 
      7 S7          0.9910  -15.0484  -50.6762 S.3       23 UNK        -0.2404 
      8 C8          0.1577  -16.4739  -49.9198 C.3       23 UNK        -0.0205 
      9 C9          0.8620  -17.7733  -50.2686 C.ar      23 UNK        -0.0193 
     10 C10         0.6321  -18.3902  -51.5022 C.ar      23 UNK        -0.1150 
     11 C11         1.2607  -19.5983  -51.8176 C.ar      23 UNK        -0.0193 
     12 C12         2.1150  -20.1918  -50.8862 C.ar      23 UNK        -0.1150 
     13 C13         2.3296  -19.5990  -49.6394 C.ar      23 UNK        -0.0193 
     14 C14         1.7150  -18.3792  -49.3432 C.ar      23 UNK        -0.1150 
     15 C15         3.1714  -20.3112  -48.5898 C.3       23 UNK        -0.0205 
     16 S16         2.4471  -21.9161  -48.1079 S.3       23 UNK        -0.2404 
     17 C17         0.6942  -21.4674  -47.8705 C.3       23 UNK        -0.0398 
     18 CA         -0.0666  -22.4843  -46.9975 C.3       11 UNK         0.1400 
     19 N           0.3938  -22.4867  -45.6056 N.am      11 UNK        -0.5000 
     20 C           0.0566  -23.4164  -44.7021 C.2       10 UNK         0.5000 
     21 O          -0.6350  -24.3991  -44.9673 O.2       10 UNK        -0.5000 
     22 CA          0.5044  -23.1730  -43.2486 C.3       10 UNK         0.1400 
     23 CB          1.9607  -23.6094  -43.0324 C.3       10 UNK        -0.1800 
     24 N           0.3329  -21.7754  -42.8455 N.am      10 UNK        -0.5000 
     25 C          -0.8571  -21.1654  -42.7479 C.2       9 UNK         0.5000 
     26 O          -1.9302  -21.7455  -42.9103 O.2       9 UNK        -0.5000 
     27 CA         -0.8535  -19.6477  -42.4880 C.3       9 UNK         0.1400 
     28 CB         -0.7113  -19.3426  -40.9902 C.3       9 UNK        -0.1800 
     29 N           0.1928  -18.9514  -43.2368 N.am      9 UNK        -0.5000 
     30 C           0.2428  -18.8628  -44.5727 C.2       8 UNK         0.5000 
     31 O          -0.6384  -19.2883  -45.3150 O.2       8 UNK        -0.5000 
     32 CA          1.5106  -18.2485  -45.1904 C.3       8 UNK         0.1400 
     33 CB          1.3913  -16.7263  -45.3344 C.3       8 UNK        -0.1800 
     34 N           2.7165  -18.5843  -44.4362 N.am      8 UNK        -0.5000 
     35 C           3.2399  -19.8162  -44.3787 C.2       7 UNK         0.5000 
     36 O           2.7660  -20.7836  -44.9713 O.2       7 UNK        -0.5000 
     37 CA          4.4634  -20.0032  -43.4651 C.3       7 UNK         0.1400 
     38 CB          5.7402  -19.5028  -44.1565 C.3       7 UNK        -0.1800 
     39 N           4.3007  -19.3200  -42.1808 N.am      7 UNK        -0.5000 
     40 C           3.3967  -19.6681  -41.2541 C.2       6 UNK         0.5000 
     41 O           2.6438  -20.6353  -41.3660 O.2       6 UNK        -0.5000 
     42 CA          3.2808  -18.7553  -40.0180 C.3       6 UNK         0.1400 
     43 CB          4.2757  -19.1912  -38.9323 C.3       6 UNK        -0.1800 
     44 N           3.4727  -17.3298  -40.3088 N.am      6 UNK        -0.5000 
     45 C           2.7216  -16.6122  -41.1541 C.2       5 UNK         0.5000 
     46 O           1.8078  -17.0891  -41.8321 O.2       5 UNK        -0.5000 
     47 CA          3.0713  -15.1255  -41.2946 C.3       5 UNK         0.1400 
     48 CB          4.3536  -14.9361  -42.1224 C.3       5 UNK        -0.1800 
     49 N           1.9642  -14.4529  -41.9630 N.am      5 UNK        -0.5000 
     50 C           1.5567  -13.1990  -41.7497 C.2       4 UNK         0.5000 
     51 O           2.1075  -12.4303  -40.9604 O.2       4 UNK        -0.5000 
     52 CA          0.3390  -12.7069  -42.5580 C.3       4 UNK         0.1400 
     53 CB          0.7715  -11.6628  -43.5985 C.3       4 UNK        -0.1800 
     54 N          -0.3848  -13.7731  -43.2542 N.am      4 UNK        -0.5000 
     55 C          -1.2615  -14.6174  -42.6997 C.2       3 UNK         0.5000 
     56 O          -1.5305  -14.6189  -41.4979 O.2       3 UNK        -0.5000 
     57 CA         -1.9705  -15.5961  -43.6661 C.3       3 UNK         0.1400 
     58 CB         -2.9575  -16.5309  -42.9449 C.3       3 UNK        -0.1800 
     59 N          -2.6876  -14.9050  -44.7430 N.am      3 UNK        -0.5000 
     60 C          -2.1330  -14.2953  -45.7984 C.2       2 UNK         0.5000 
     61 O          -0.9167  -14.2592  -46.0034 O.2       2 UNK        -0.5000 
     62 CA         -3.0985  -13.5516  -46.7400 C.3       2 UNK         0.1400 
     63 CB         -3.5901  -12.2512  -46.0831 C.3       2 UNK        -0.1800 
     64 N          -2.4521  -13.2116  -48.0071 N.am      2 UNK        -0.5000 
     65 C          -2.2606  -14.0678  -49.0174 C.2       1 UNK         0.5000 
     66 O          -2.6983  -15.2195  -49.0277 O.2       1 UNK        -0.5000 
     67 C          -1.5900  -22.2638  -47.1223 C.2       11 UNK         0.5000 
     68 O          -2.1940  -22.7937  -48.0543 O.2       11 UNK        -0.5000 
     69 N          -2.1949  -21.5002  -46.2026 N.am      12 UNK        -0.5000 
     70 CA         -3.6423  -21.3020  -46.1127 C.3       12 UNK         0.1400 
     71 CB         -3.9574  -20.0737  -45.2465 C.3       12 UNK        -0.1800 
     72 C          -4.3627  -22.5560  -45.5938 C.2       12 UNK         0.5000 
     73 O          -5.4143  -22.9046  -46.1280 O.2       12 UNK        -0.5000 
     74 N          -3.7622  -23.2496  -44.6162 N.am      13 UNK        -0.5000 
     75 CA         -4.2247  -24.5477  -44.1149 C.3       13 UNK         0.1400 
     76 CB         -3.4337  -24.9262  -42.8539 C.3       13 UNK        -0.1800 
     77 C          -4.1363  -25.6593  -45.1808 C.2       13 UNK         0.5000 
     78 O          -5.0270  -26.5058  -45.2546 O.2       13 UNK        -0.5000 
     79 N          -3.0940  -25.6010  -46.0219 N.am      14 UNK        -0.5000 
     80 CA         -2.9104  -26.4429  -47.2083 C.3       14 UNK         0.1400 
     81 CB         -1.4283  -26.4038  -47.6134 C.3       14 UNK        -0.1800 
     82 C          -3.8044  -26.0356  -48.4019 C.2       14 UNK         0.5000 
     83 O          -3.8214  -26.7462  -49.4068 O.2       14 UNK        -0.5000 
     84 N          -4.5081  -24.9004  -48.2794 N.am      15 UNK        -0.5000 
     85 CA         -5.4274  -24.2724  -49.2338 C.3       15 UNK         0.1400 
     86 CB         -6.5789  -25.2214  -49.6219 C.3       15 UNK        -0.1800 
     87 C          -4.7574  -23.6376  -50.4689 C.2       15 UNK         0.5000 
     88 O          -5.4679  -23.1046  -51.3197 O.2       15 UNK        -0.5000 
     89 N          -3.4207  -23.6411  -50.5402 N.am      16 UNK        -0.5000 
     90 CA         -2.6394  -23.0490  -51.6276 C.3       16 UNK         0.1400 
     91 CB         -1.1762  -23.5005  -51.5075 C.3       16 UNK        -0.1800 
     92 C          -2.7365  -21.5144  -51.6451 C.2       16 UNK         0.5000 
     93 O          -2.9257  -20.9233  -52.7102 O.2       16 UNK        -0.5000 
     94 N          -2.6479  -20.9020  -50.4558 N.am      17 UNK        -0.5000 
     95 CA         -2.8192  -19.4587  -50.2765 C.3       17 UNK         0.1400 
     96 CB         -2.2297  -19.0238  -48.9272 C.3       17 UNK        -0.1800 
     97 C          -4.2949  -19.0366  -50.3911 C.2       17 UNK         0.5000 
     98 O          -4.5755  -17.9531  -50.8997 O.2       17 UNK        -0.5000 
     99 N          -5.2112  -19.9140  -49.9535 N.am      18 UNK        -0.5000 
    100 CA        -6.6602  -19.7064  -50.0181 C.3       18 UNK         0.1400 
    101 CB        -7.3710  -20.7612  -49.1565 C.3       18 UNK        -0.1800 
    102 C         -7.1921  -19.7300  -51.4631 C.2       18 UNK         0.5000 
    103 O         -8.0282  -18.8990  -51.8185 O.2       18 UNK        -0.5000 
    104 N         -6.6689  -20.6568  -52.2779 N.am      19 UNK        -0.5000 
    105 CA        -6.9428  -20.7624  -53.7125 C.3       19 UNK         0.1400 
    106 CB        -6.5357  -22.1652  -54.1910 C.3       19 UNK        -0.1800 
    107 C         -6.2204  -19.6902  -54.5525 C.2       19 UNK         0.5000 
    108 O         -6.5550  -19.5295  -55.7269 O.2       19 UNK        -0.5000 
    109 N         -5.2381  -19.0019  -53.9492 N.am      20 UNK        -0.5000 
    110 CA        -4.3365  -18.0160  -54.5525 C.3       20 UNK         0.1400 
    111 CB        -5.1123  -16.7607  -55.0023 C.3       20 UNK        -0.1800 
    112 C         -3.4765  -18.6343  -55.6740 C.2       20 UNK         0.5000 
    113 O         -3.2728  -18.0153  -56.7207 O.2       20 UNK        -0.5000 
    114 N         -2.9833  -19.8584  -55.4308 N.am      21 UNK        -0.5000 
    115 CA        -2.2475  -20.6892  -56.3906 C.3       21 UNK         0.1400 
    116 CB        -2.0104  -22.0714  -55.7619 C.3       21 UNK        -0.1800 
    117 C         -0.9135  -20.0794  -56.8652 C.2       21 UNK         0.5000 
    118 O         -0.4354  -20.4237  -57.9465 O.2       21 UNK        -0.5000 
    119 N         -0.3537  -19.1837  -56.0477 N.am      22 UNK        -0.5000 
    120 CA         0.8763  -18.4254  -56.3097 C.3       22 UNK         0.1400 
    121 C          0.6159  -17.0403  -56.9726 C.2       22 UNK         0.5000 
    122 N         -0.6206  -16.6548  -57.2700 N.am      22 UNK        -0.7600 
    123 O          1.5592  -16.3012  -57.2401 O.2       22 UNK        -0.5000 
    124 C124        1.7315  -18.2946  -55.0221 C.3       23 UNK        -0.0398 
    125 S125        2.2684  -19.9202  -54.3840 S.3       23 UNK        -0.2404 
    126 C126        0.9914  -20.2939  -53.1407 C.3       23 UNK        -0.0205 
    127 H127       -4.8873  -13.0093  -52.3110 H         1 UNK         0.0600 
    128 H128       -4.6935  -13.8336  -50.7667 H         1 UNK         0.0600 
    129 H129       -3.8253  -12.3217  -51.0924 H         1 UNK         0.0600 
    130 H130       -1.0954  -14.6679  -51.9227 H         1 UNK         0.3000 
    131 H131       -1.6719  -12.4614  -50.2833 H         1 UNK         0.0600 
    132 H132        0.5675  -12.7363  -50.3675 H         1 UNK         0.0800 
    133 H133        0.3287  -13.5805  -48.8809 H         1 UNK         0.0800 
    134 H134       -0.8691  -16.5272  -50.2813 H         1 UNK         0.0800 
    135 H135        0.1048  -16.3411  -48.8375 H         1 UNK         0.0800 
    136 H136       -0.0421  -17.9306  -52.2106 H         1 UNK         0.1150 
    137 H137        2.5859  -21.1374  -51.1164 H         1 UNK         0.1150 
    138 H138        1.8787  -17.9103  -48.3841 H         1 UNK         0.1150 
    139 H139        3.2849  -19.6949  -47.6970 H         1 UNK         0.0800 
    140 H140        4.1760  -20.4749  -48.9812 H         1 UNK         0.0800 
    141 H141        0.2452  -21.4015  -48.8636 H         1 UNK         0.0800 
    142 H142        0.6284  -20.4702  -47.4349 H         1 UNK         0.0800 
    143 H143        0.1330  -23.4776  -47.4035 H         1 UNK         0.0600 
    144 H144        1.0302  -21.7441  -45.3326 H         1 UNK         0.3000 
    145 H145       -0.1274  -23.7851  -42.6017 H         1 UNK         0.0600 
    146 H146        2.2592  -23.4818  -41.9917 H         1 UNK         0.0600 
    147 H147        2.0915  -24.6629  -43.2824 H         1 UNK         0.0600 
    148 H148        2.6535  -23.0389  -43.6499 H         1 UNK         0.0600 
    149 H149        1.1757  -21.2492  -42.6406 H         1 UNK         0.3000 
    150 H150       -1.8154  -19.2580  -42.8235 H         1 UNK         0.0600 
    151 H151        0.2106  -19.7538  -40.5808 H         1 UNK         0.0600 
    152 H152       -1.5396  -19.7734  -40.4266 H         1 UNK         0.0600 
    153 H153       -0.7108  -18.2688  -40.8019 H         1 UNK         0.0600 
    154 H154        0.9278  -18.5062  -42.6936 H         1 UNK         0.3000 
    155 H155        1.6163  -18.6684  -46.1910 H         1 UNK         0.0600 
    156 H156        1.2736  -16.2330  -44.3704 H         1 UNK         0.0600 
    157 H157        0.5292  -16.4682  -45.9495 H         1 UNK         0.0600 
    158 H158        2.2708  -16.3053  -45.8216 H         1 UNK         0.0600 
    159 H159        3.1218  -17.8539  -43.8710 H         1 UNK         0.3000 
    160 H160        4.5755  -21.0724  -43.2723 H         1 UNK         0.0600 
    161 H161        5.7026  -18.4302  -44.3509 H         1 UNK         0.0600 
    162 H162        5.8867  -20.0051  -45.1137 H         1 UNK         0.0600 
    163 H163        6.6218  -19.7028  -43.5475 H         1 UNK         0.0600 
    164 H164        4.8828  -18.5137  -42.0093 H         1 UNK         0.3000 
    165 H165        2.2719  -18.8740  -39.6186 H         1 UNK         0.0600 
    166 H166        4.1349  -18.6192  -38.0150 H         1 UNK         0.0600 
    167 H167        5.3089  -19.0596  -39.2560 H         1 UNK         0.0600 
    168 H168        4.1422  -20.2441  -38.6802 H         1 UNK         0.0600 
    169 H169        4.2114  -16.8662  -39.7994 H         1 UNK         0.3000 
    170 H170        3.2102  -14.7122  -40.2937 H         1 UNK         0.0600 
    171 H171        5.2069  -15.4214  -41.6481 H         1 UNK         0.0600 
    172 H172        4.2503  -15.3541  -43.1243 H         1 UNK         0.0600 
    173 H173        4.6010  -13.8795  -42.2266 H         1 UNK         0.0600 
    174 H174        1.4106  -15.0514  -42.5601 H         1 UNK         0.3000 
    175 H175       -0.3435  -12.2254  -41.8557 H         1 UNK         0.0600 
    176 H176        1.4528  -12.0893  -44.3350 H         1 UNK         0.0600 
    177 H177       -0.0887  -11.2590  -44.1324 H         1 UNK         0.0600 
    178 H178        1.2823  -10.8235  -43.1250 H         1 UNK         0.0600 
    179 H179       -0.2597  -13.8281  -44.2616 H         1 UNK         0.3000 
    180 H180       -1.1968  -16.2213  -44.1121 H         1 UNK         0.0600 
    181 H181       -3.8009  -15.9806  -42.5266 H         1 UNK         0.0600 
    182 H182       -2.4722  -17.0563  -42.1224 H         1 UNK         0.0600 
    183 H183       -3.3516  -17.2866  -43.6247 H         1 UNK         0.0600 
    184 H184       -3.6896  -14.8498  -44.6313 H         1 UNK         0.3000 
    185 H185       -3.9587  -14.1953  -46.9365 H         1 UNK         0.0600 
    186 H186       -4.1273  -12.4542  -45.1558 H         1 UNK         0.0600 
    187 H187       -2.7619  -11.5834  -45.8416 H         1 UNK         0.0600 
    188 H188       -4.2747  -11.7129  -46.7390 H         1 UNK         0.0600 
    189 H189       -2.0336  -12.2938  -48.0523 H         1 UNK         0.3000 
    190 H190       -1.6219  -20.9940  -45.5356 H         1 UNK         0.3000 
    191 H191       -4.0250  -21.1073  -47.1161 H         1 UNK         0.0600 
    192 H192       -5.0293  -19.8736  -45.2330 H         1 UNK         0.0600 
    193 H193       -3.4647  -19.1809  -45.6319 H         1 UNK         0.0600 
    194 H194       -3.6391  -20.2113  -44.2141 H         1 UNK         0.0600 
    195 H195       -2.9306  -22.8596  -44.1823 H         1 UNK         0.3000 
    196 H196       -5.2748  -24.4409  -43.8352 H         1 UNK         0.0600 
    197 H197       -2.3723  -25.0549  -43.0642 H         1 UNK         0.0600 
    198 H198       -3.5306  -24.1609  -42.0836 H         1 UNK         0.0600 
    199 H199       -3.7996  -25.8628  -42.4316 H         1 UNK         0.0600 
    200 H200       -2.3582  -24.9293  -45.8256 H         1 UNK         0.3000 
    201 H201       -3.1654  -27.4712  -46.9448 H         1 UNK         0.0600 
    202 H202       -1.1288  -25.4082  -47.9390 H         1 UNK         0.0600 
    203 H203       -1.2286  -27.0905  -48.4369 H         1 UNK         0.0600 
    204 H204       -0.7827  -26.6948  -46.7845 H         1 UNK         0.0600 
    205 H205       -4.4066  -24.3931  -47.4099 H         1 UNK         0.3000 
    206 H206       -5.8725  -23.4407  -48.6892 H         1 UNK         0.0600 
    207 H207       -7.0594  -25.6404  -48.7378 H         1 UNK         0.0600 
    208 H208       -7.3472  -24.6919  -50.1867 H         1 UNK         0.0600 
    209 H209       -6.2340  -26.0482  -50.2429 H         1 UNK         0.0600 
    210 H210       -2.9051  -23.9969  -49.7457 H         1 UNK         0.3000 
    211 H211       -3.0368  -23.4200  -52.5749 H         1 UNK         0.0600 
    212 H212       -0.5805  -23.1116  -52.3335 H         1 UNK         0.0600 
    213 H213       -1.0968  -24.5873  -51.5355 H         1 UNK         0.0600 
    214 H214       -0.7191  -23.1561  -50.5789 H         1 UNK         0.0600 
    215 H215       -2.5047  -21.4704  -49.6288 H         1 UNK         0.3000 
    216 H216       -2.2650  -18.9445  -51.0646 H         1 UNK         0.0600 
    217 H217       -2.7682  -19.4574  -48.0887 H         1 UNK         0.0600 
    218 H218       -2.2824  -17.9412  -48.8120 H         1 UNK         0.0600 
    219 H219       -1.1825  -19.3087  -48.8390 H         1 UNK         0.0600 
    220 H220       -4.8928  -20.7959  -49.5852 H         1 UNK         0.3000 
    221 H221       -6.8764  -18.7223  -49.5964 H         1 UNK         0.0600 
    222 H222       -6.9778  -20.7786  -48.1396 H         1 UNK         0.0600 
    223 H223       -7.2696  -21.7614  -49.5768 H         1 UNK         0.0600 
    224 H224       -8.4383  -20.5472  -49.0885 H         1 UNK         0.0600 
    225 H225       -6.0464  -21.3617  -51.8926 H         1 UNK         0.3000 
    226 H226       -8.0160  -20.6417  -53.8737 H         1 UNK         0.0600 
    227 H227       -5.4679  -22.3411  -54.0519 H         1 UNK         0.0600 
    228 H228       -7.0767  -22.9399  -53.6472 H         1 UNK         0.0600 
    229 H229       -6.7556  -22.2995  -55.2508 H         1 UNK         0.0600 
    230 H230       -5.0501  -19.2220  -52.9813 H         1 UNK         0.3000 
    231 H231       -3.6438  -17.7109  -53.7666 H         1 UNK         0.0600 
    232 H232       -5.7972  -16.9733  -55.8233 H         1 UNK         0.0600 
    233 H233       -4.4282  -15.9827  -55.3430 H         1 UNK         0.0600 
    234 H234       -5.6908  -16.3421  -54.1787 H         1 UNK         0.0600 
    235 H235       -3.1510  -20.2731  -54.5175 H         1 UNK         0.3000 
    236 H236       -2.8804  -20.8147  -57.2712 H         1 UNK         0.0600 
    237 H237       -2.9513  -22.5425  -55.4769 H         1 UNK         0.0600 
    238 H238       -1.5107  -22.7404  -56.4634 H         1 UNK         0.0600 
    239 H239       -1.3859  -22.0045  -54.8701 H         1 UNK         0.0600 
    240 H240       -0.8474  -18.9510  -55.2006 H         1 UNK         0.3000 
    241 H241        1.4748  -18.9778  -57.0360 H         1 UNK         0.0600 
    242 H242       -0.7641  -15.7577  -57.7053 H         1 UNK         0.3800 
    243 H243       -1.4214  -17.2480  -57.0838 H         1 UNK         0.3800 
    244 H244        1.1923  -17.7449  -54.2510 H         1 UNK         0.0800 
    245 H245        2.6362  -17.7185  -55.2230 H         1 UNK         0.0800 
    246 H246       -0.0006  -20.0372  -53.5114 H         1 UNK         0.0800 
    247 H247        0.9769  -21.3725  -52.9823 H         1 UNK         0.0800 
@<TRIPOS>BOND
     1    1    2 1    
     2    1  127 1    
     3    1  128 1    
     4    1  129 1    
     5    2    3 2    
     6    2    4 am   BACKBONE|DICT|INTERRES
     7    4    5 1    
     8    4  130 1    
     9    5    6 1    
    10    5   65 1    
    11    5  131 1    
    12    6    7 1    
    13    6  132 1    
    14    6  133 1    
    15    7    8 1    
    16    8    9 1    
    17    8  134 1    
    18    8  135 1    
    19    9   10 ar   
    20    9   14 ar   
    21   10   11 ar   
    22   10  136 1    
    23   11   12 ar   
    24   11  126 1    
    25   12   13 ar   
    26   12  137 1    
    27   13   14 ar   
    28   13   15 1    
    29   14  138 1    
    30   15   16 1    
    31   15  139 1    
    32   15  140 1    
    33   16   17 1    
    34   17   18 1    
    35   17  141 1    
    36   17  142 1    
    37   18   19 1    
    38   18   67 1    
    39   18  143 1    
    40   19   20 am   BACKBONE|DICT|INTERRES
    41   19  144 1    
    42   20   21 2    
    43   20   22 1    
    44   22   23 1    
    45   22   24 1    
    46   22  145 1    
    47   23  146 1    
    48   23  147 1    
    49   23  148 1    
    50   24   25 am   BACKBONE|DICT|INTERRES
    51   24  149 1    
    52   25   26 2    
    53   25   27 1    
    54   27   28 1    
    55   27   29 1    
    56   27  150 1    
    57   28  151 1    
    58   28  152 1    
    59   28  153 1    
    60   29   30 am   BACKBONE|DICT|INTERRES
    61   29  154 1    
    62   30   31 2    
    63   30   32 1    
    64   32   33 1    
    65   32   34 1    
    66   32  155 1    
    67   33  156 1    
    68   33  157 1    
    69   33  158 1    
    70   34   35 am   BACKBONE|DICT|INTERRES
    71   34  159 1    
    72   35   36 2    
    73   35   37 1    
    74   37   38 1    
    75   37   39 1    
    76   37  160 1    
    77   38  161 1    
    78   38  162 1    
    79   38  163 1    
    80   39   40 am   BACKBONE|DICT|INTERRES
    81   39  164 1    
    82   40   41 2    
    83   40   42 1    
    84   42   43 1    
    85   42   44 1    
    86   42  165 1    
    87   43  166 1    
    88   43  167 1    
    89   43  168 1    
    90   44   45 am   BACKBONE|DICT|INTERRES
    91   44  169 1    
    92   45   46 2    
    93   45   47 1    
    94   47   48 1    
    95   47   49 1    
    96   47  170 1    
    97   48  171 1    
    98   48  172 1    
    99   48  173 1    
   100   49   50 am   BACKBONE|DICT|INTERRES
   101   49  174 1    
   102   50   51 2    
   103   50   52 1    
   104   52   53 1    
   105   52   54 1    
   106   52  175 1    
   107   53  176 1    
   108   53  177 1    
   109   53  178 1    
   110   54   55 am   BACKBONE|DICT|INTERRES
   111   54  179 1    
   112   55   56 2    
   113   55   57 1    
   114   57   58 1    
   115   57   59 1    
   116   57  180 1    
   117   58  181 1    
   118   58  182 1    
   119   58  183 1    
   120   59   60 am   BACKBONE|DICT|INTERRES
   121   59  184 1    
   122   60   61 2    
   123   60   62 1    
   124   62   63 1    
   125   62   64 1    
   126   62  185 1    
   127   63  186 1    
   128   63  187 1    
   129   63  188 1    
   130   64   65 am   BACKBONE|DICT|INTERRES
   131   64  189 1    
   132   65   66 2    
   133   67   68 2    
   134   67   69 am   BACKBONE|DICT|INTERRES
   135   69   70 1    
   136   69  190 1    
   137   70   71 1    
   138   70   72 1    
   139   70  191 1    
   140   71  192 1    
   141   71  193 1    
   142   71  194 1    
   143   72   73 2    
   144   72   74 am   BACKBONE|DICT|INTERRES
   145   74   75 1    
   146   74  195 1    
   147   75   76 1    
   148   75   77 1    
   149   75  196 1    
   150   76  197 1    
   151   76  198 1    
   152   76  199 1    
   153   77   78 2    
   154   77   79 am   BACKBONE|DICT|INTERRES
   155   79   80 1    
   156   79  200 1    
   157   80   81 1    
   158   80   82 1    
   159   80  201 1    
   160   81  202 1    
   161   81  203 1    
   162   81  204 1    
   163   82   83 2    
   164   82   84 am   BACKBONE|DICT|INTERRES
   165   84   85 1    
   166   84  205 1    
   167   85   86 1    
   168   85   87 1    
   169   85  206 1    
   170   86  207 1    
   171   86  208 1    
   172   86  209 1    
   173   87   88 2    
   174   87   89 am   BACKBONE|DICT|INTERRES
   175   89   90 1    
   176   89  210 1    
   177   90   91 1    
   178   90   92 1    
   179   90  211 1    
   180   91  212 1    
   181   91  213 1    
   182   91  214 1    
   183   92   93 2    
   184   92   94 am   BACKBONE|DICT|INTERRES
   185   94   95 1    
   186   94  215 1    
   187   95   96 1    
   188   95   97 1    
   189   95  216 1    
   190   96  217 1    
   191   96  218 1    
   192   96  219 1    
   193   97   98 2    
   194   97   99 am   BACKBONE|DICT|INTERRES
   195   99  100 1    
   196   99  220 1    
   197  100  101 1    
   198  100  102 1    
   199  100  221 1    
   200  101  222 1    
   201  101  223 1    
   202  101  224 1    
   203  102  103 2    
   204  102  104 am   BACKBONE|DICT|INTERRES
   205  104  105 1    
   206  104  225 1    
   207  105  106 1    
   208  105  107 1    
   209  105  226 1    
   210  106  227 1    
   211  106  228 1    
   212  106  229 1    
   213  107  108 2    
   214  107  109 am   BACKBONE|DICT|INTERRES
   215  109  110 1    
   216  109  230 1    
   217  110  111 1    
   218  110  112 1    
   219  110  231 1    
   220  111  232 1    
   221  111  233 1    
   222  111  234 1    
   223  112  113 2    
   224  112  114 am   BACKBONE|DICT|INTERRES
   225  114  115 1    
   226  114  235 1    
   227  115  116 1    
   228  115  117 1    
   229  115  236 1    
   230  116  237 1    
   231  116  238 1    
   232  116  239 1    
   233  117  118 2    
   234  117  119 am   BACKBONE|DICT|INTERRES
   235  119  120 1    
   236  119  240 1    
   237  120  121 1    
   238  120  124 1    
   239  120  241 1    
   240  121  122 am   BACKBONE|DICT|INTERRES
   241  121  123 2    
   242  122  242 1    
   243  122  243 1    
   244  124  125 1    
   245  124  244 1    
   246  124  245 1    
   247  125  126 1    
   248  126  246 1    
   249  126  247 1    
@<TRIPOS>SUBSTRUCTURE
     1 UNK         1 GROUP             0       ****    0 ROOT    
