@<TRIPOS>MOLECULE
3R540
247   249    1
SMALL
USER_CHARGES


@<TRIPOS>ATOM
      1 CA          1.3636   -9.9574  -51.3357 C.3       0 UNK        -0.1800 
      2 C           2.4889  -10.6004  -50.5376 C.2       0 UNK         0.5000 
      3 O           3.6538  -10.2509  -50.7282 O.2       0 UNK        -0.5000 
      4 N           2.1451  -11.5366  -49.6440 N.am      1 UNK        -0.5000 
      5 CA          3.0933  -12.2782  -48.8008 C.3       1 UNK         0.1400 
      6 C6          2.4683  -13.5743  -48.2293 C.3       23 UNK        -0.0398 
      7 S7          1.9740  -14.7660  -49.5198 S.3       23 UNK        -0.2404 
      8 C8          0.1597  -14.7484  -49.3689 C.3       23 UNK        -0.0205 
      9 C9         -0.4599  -15.9541  -50.0592 C.ar      23 UNK        -0.0193 
     10 C10        -0.5787  -15.9837  -51.4520 C.ar      23 UNK        -0.1150 
     11 C11        -1.1443  -17.0902  -52.0923 C.ar      23 UNK        -0.0193 
     12 C12        -1.5973  -18.1706  -51.3296 C.ar      23 UNK        -0.1150 
     13 C13        -1.4973  -18.1466  -49.9361 C.ar      23 UNK        -0.0193 
     14 C14        -0.9243  -17.0379  -49.3065 C.ar      23 UNK        -0.1150 
     15 C15        -2.0399  -19.3012  -49.1102 C.3       23 UNK        -0.0205 
     16 S16        -0.8380  -20.6549  -48.9546 S.3       23 UNK        -0.2404 
     17 C17        -1.7953  -21.7775  -47.8868 C.3       23 UNK        -0.0398 
     18 CA         -0.9409  -22.9176  -47.2837 C.3       11 UNK         0.1400 
     19 N           0.0435  -22.4557  -46.3008 N.am      11 UNK        -0.5000 
     20 C           0.9694  -23.2369  -45.7240 C.2       10 UNK         0.5000 
     21 O           1.1466  -24.4187  -46.0204 O.2       10 UNK        -0.5000 
     22 CA          1.7985  -22.6168  -44.5841 C.3       10 UNK         0.1400 
     23 CB          2.9529  -21.7665  -45.1349 C.3       10 UNK        -0.1800 
     24 N           0.9833  -21.8202  -43.6652 N.am      10 UNK        -0.5000 
     25 C           0.0059  -22.3179  -42.8936 C.2       9 UNK         0.5000 
     26 O          -0.2765  -23.5151  -42.8383 O.2       9 UNK        -0.5000 
     27 CA         -0.8286  -21.3075  -42.0835 C.3       9 UNK         0.1400 
     28 CB         -0.1047  -20.9008  -40.7916 C.3       9 UNK        -0.1800 
     29 N          -1.1735  -20.1136  -42.8568 N.am      9 UNK        -0.5000 
     30 C          -1.9530  -20.1236  -43.9480 C.2       8 UNK         0.5000 
     31 O          -2.5090  -21.1319  -44.3825 O.2       8 UNK        -0.5000 
     32 CA         -2.0944  -18.7998  -44.7189 C.3       8 UNK         0.1400 
     33 CB         -3.1535  -17.8989  -44.0680 C.3       8 UNK        -0.1800 
     34 N          -0.8281  -18.0762  -44.8437 N.am      8 UNK        -0.5000 
     35 C           0.2607  -18.5546  -45.4628 C.2       7 UNK         0.5000 
     36 O           0.2939  -19.6442  -46.0281 O.2       7 UNK        -0.5000 
     37 CA          1.5458  -17.7132  -45.3842 C.3       7 UNK         0.1400 
     38 CB          1.5122  -16.5523  -46.3826 C.3       7 UNK        -0.1800 
     39 N           1.7913  -17.1969  -44.0405 N.am      7 UNK        -0.5000 
     40 C           2.0331  -17.9640  -42.9689 C.2       6 UNK         0.5000 
     41 O           2.1238  -19.1908  -43.0098 O.2       6 UNK        -0.5000 
     42 CA          2.1420  -17.2387  -41.6185 C.3       6 UNK         0.1400 
     43 CB          3.5484  -16.6536  -41.4217 C.3       6 UNK        -0.1800 
     44 N           1.1430  -16.1771  -41.4952 N.am      6 UNK        -0.5000 
     45 C          -0.1733  -16.3937  -41.3631 C.2       5 UNK         0.5000 
     46 O          -0.6793  -17.5144  -41.2938 O.2       5 UNK        -0.5000 
     47 CA         -1.0754  -15.1459  -41.3455 C.3       5 UNK         0.1400 
     48 CB         -1.0976  -14.5099  -39.9476 C.3       5 UNK        -0.1800 
     49 N          -0.6683  -14.1420  -42.3316 N.am      5 UNK        -0.5000 
     50 C          -0.7485  -14.3171  -43.6578 C.2       4 UNK         0.5000 
     51 O          -1.1876  -15.3365  -44.1855 O.2       4 UNK        -0.5000 
     52 CA         -0.2137  -13.1853  -44.5513 C.3       4 UNK         0.1400 
     53 CB         -1.3078  -12.1436  -44.8238 C.3       4 UNK        -0.1800 
     54 N           0.9734  -12.5123  -44.0227 N.am      4 UNK        -0.5000 
     55 C           2.1481  -13.0976  -43.7554 C.2       3 UNK         0.5000 
     56 O           2.3336  -14.3137  -43.8293 O.2       3 UNK        -0.5000 
     57 CA          3.3071  -12.1459  -43.3950 C.3       3 UNK         0.1400 
     58 CB          4.6055  -12.8957  -43.0498 C.3       3 UNK        -0.1800 
     59 N           3.5708  -11.2363  -44.5098 N.am      3 UNK        -0.5000 
     60 C           2.8938  -10.1163  -44.7885 C.2       2 UNK         0.5000 
     61 O           2.0094   -9.6619  -44.0615 O.2       2 UNK        -0.5000 
     62 CA          3.1934   -9.4375  -46.1389 C.3       2 UNK         0.1400 
     63 CB          4.5922   -8.7908  -46.1632 C.3       2 UNK        -0.1800 
     64 N           2.9729  -10.3336  -47.2840 N.am      2 UNK        -0.5000 
     65 C           3.6613  -11.4300  -47.6412 C.2       1 UNK         0.5000 
     66 O           4.6828  -11.8124  -47.0682 O.2       1 UNK        -0.5000 
     67 C          -1.8510  -24.0093  -46.6913 C.2       11 UNK         0.5000 
     68 O          -1.9973  -25.0595  -47.3120 O.2       11 UNK        -0.5000 
     69 N          -2.4048  -23.7738  -45.4928 N.am      12 UNK        -0.5000 
     70 CA         -3.2663  -24.7206  -44.7808 C.3       12 UNK         0.1400 
     71 CB         -3.8071  -24.0708  -43.4988 C.3       12 UNK        -0.1800 
     72 C          -2.5685  -26.0574  -44.4678 C.2       12 UNK         0.5000 
     73 O          -3.1712  -27.1128  -44.6647 O.2       12 UNK        -0.5000 
     74 N          -1.2968  -25.9947  -44.0476 N.am      13 UNK        -0.5000 
     75 CA         -0.4367  -27.1583  -43.8156 C.3       13 UNK         0.1400 
     76 CB          0.8685  -26.6999  -43.1481 C.3       13 UNK        -0.1800 
     77 C          -0.1394  -27.9631  -45.0978 C.2       13 UNK         0.5000 
     78 O          -0.0301  -29.1880  -45.0341 O.2       13 UNK        -0.5000 
     79 N          -0.0441  -27.2677  -46.2383 N.am      14 UNK        -0.5000 
     80 CA          0.1375  -27.8476  -47.5710 C.3       14 UNK         0.1400 
     81 CB          0.8338  -26.8071  -48.4644 C.3       14 UNK        -0.1800 
     82 C          -1.1803  -28.3259  -48.2202 C.2       14 UNK         0.5000 
     83 O          -1.1317  -28.8969  -49.3105 O.2       14 UNK        -0.5000 
     84 N          -2.3234  -28.0729  -47.5634 N.am      15 UNK        -0.5000 
     85 CA         -3.6975  -28.3074  -48.0254 C.3       15 UNK         0.1400 
     86 CB         -3.9721  -29.8121  -48.2292 C.3       15 UNK        -0.1800 
     87 C          -4.0865  -27.4440  -49.2479 C.2       15 UNK         0.5000 
     88 O          -4.9112  -27.8581  -50.0651 O.2       15 UNK        -0.5000 
     89 N          -3.4942  -26.2492  -49.3364 N.am      16 UNK        -0.5000 
     90 CA         -3.7871  -25.2020  -50.3089 C.3       16 UNK         0.1400 
     91 CB         -2.4476  -24.6018  -50.7706 C.3       16 UNK        -0.1800 
     92 C          -4.6835  -24.1250  -49.6672 C.2       16 UNK         0.5000 
     93 O          -4.9313  -24.1594  -48.4586 O.2       16 UNK        -0.5000 
     94 N          -5.1438  -23.1703  -50.4816 N.am      17 UNK        -0.5000 
     95 CA         -5.9556  -22.0350  -50.0541 C.3       17 UNK         0.1400 
     96 CB         -7.4447  -22.3641  -50.2490 C.3       17 UNK        -0.1800 
     97 C          -5.5595  -20.7962  -50.8649 C.2       17 UNK         0.5000 
     98 O          -5.1735  -20.9241  -52.0304 O.2       17 UNK        -0.5000 
     99 N          -5.6825  -19.6185  -50.2400 N.am      18 UNK        -0.5000 
    100 CA        -5.4380  -18.3169  -50.8625 C.3       18 UNK         0.1400 
    101 CB        -5.4835  -17.2249  -49.7838 C.3       18 UNK        -0.1800 
    102 C         -6.4406  -18.0225  -51.9929 C.2       18 UNK         0.5000 
    103 O         -7.5639  -18.5320  -51.9708 O.2       18 UNK        -0.5000 
    104 N         -5.9933  -17.2370  -52.9796 N.am      19 UNK        -0.5000 
    105 CA        -6.6338  -16.9201  -54.2635 C.3       19 UNK         0.1400 
    106 CB        -8.0240  -16.2803  -54.0851 C.3       19 UNK        -0.1800 
    107 C         -6.6764  -18.1182  -55.2327 C.2       19 UNK         0.5000 
    108 O         -6.3343  -17.9538  -56.4033 O.2       19 UNK        -0.5000 
    109 N         -7.0525  -19.3014  -54.7302 N.am      20 UNK        -0.5000 
    110 CA        -7.0934  -20.5650  -55.4646 C.3       20 UNK         0.1400 
    111 CB        -7.7994  -21.6289  -54.6093 C.3       20 UNK        -0.1800 
    112 C         -5.6932  -21.0389  -55.8919 C.2       20 UNK         0.5000 
    113 O         -5.4785  -21.3216  -57.0714 O.2       20 UNK        -0.5000 
    114 N         -4.7547  -21.0807  -54.9353 N.am      21 UNK        -0.5000 
    115 CA        -3.3600  -21.4685  -55.1674 C.3       21 UNK         0.1400 
    116 CB        -2.7139  -21.8361  -53.8246 C.3       21 UNK        -0.1800 
    117 C         -2.5307  -20.3850  -55.8830 C.2       21 UNK         0.5000 
    118 O         -1.4521  -20.6906  -56.3928 O.2       21 UNK        -0.5000 
    119 N         -3.0352  -19.1454  -55.9019 N.am      22 UNK        -0.5000 
    120 CA        -2.3916  -17.9837  -56.5346 C.3       22 UNK         0.1400 
    121 C         -2.5016  -17.9534  -58.0881 C.2       22 UNK         0.5000 
    122 N         -3.2999  -18.8067  -58.7193 N.am      22 UNK        -0.7600 
    123 O         -1.8425  -17.1432  -58.7339 O.2       22 UNK        -0.5000 
    124 C124       -2.8776  -16.6405  -55.9257 C.3       23 UNK        -0.0398 
    125 S125       -2.9441  -16.5738  -54.0993 S.3       23 UNK        -0.2404 
    126 C126       -1.2810  -17.1159  -53.6051 C.3       23 UNK        -0.0205 
    127 H127        0.3895  -10.3668  -51.0666 H         1 UNK         0.0600 
    128 H128        1.5184  -10.1226  -52.4019 H         1 UNK         0.0600 
    129 H129        1.3423   -8.8826  -51.1557 H         1 UNK         0.0600 
    130 H130        1.1736  -11.7929  -49.5459 H         1 UNK         0.3000 
    131 H131        3.9440  -12.5650  -49.4231 H         1 UNK         0.0600 
    132 H132        3.1908  -14.0884  -47.5927 H         1 UNK         0.0800 
    133 H133        1.6179  -13.3416  -47.5864 H         1 UNK         0.0800 
    134 H134       -0.1260  -14.7375  -48.3163 H         1 UNK         0.0800 
    135 H135       -0.2333  -13.8297  -49.8063 H         1 UNK         0.0800 
    136 H136       -0.2277  -15.1447  -52.0365 H         1 UNK         0.1150 
    137 H137       -2.0419  -19.0250  -51.8202 H         1 UNK         0.1150 
    138 H138       -0.8477  -17.0184  -48.2287 H         1 UNK         0.1150 
    139 H139       -2.3201  -18.9467  -48.1178 H         1 UNK         0.0800 
    140 H140       -2.9500  -19.6862  -49.5694 H         1 UNK         0.0800 
    141 H141       -2.6067  -22.1808  -48.4952 H         1 UNK         0.0800 
    142 H142       -2.2685  -21.1999  -47.0919 H         1 UNK         0.0800 
    143 H143       -0.3811  -23.3819  -48.0984 H         1 UNK         0.0600 
    144 H144        0.0144  -21.4675  -46.0575 H         1 UNK         0.3000 
    145 H145        2.2329  -23.4376  -44.0097 H         1 UNK         0.0600 
    146 H146        3.5722  -21.3734  -44.3284 H         1 UNK         0.0600 
    147 H147        3.5987  -22.3608  -45.7823 H         1 UNK         0.0600 
    148 H148        2.5918  -20.9215  -45.7203 H         1 UNK         0.0600 
    149 H149        1.1843  -20.8257  -43.6212 H         1 UNK         0.3000 
    150 H150       -1.7616  -21.8005  -41.8032 H         1 UNK         0.0600 
    151 H151        0.1284  -21.7760  -40.1839 H         1 UNK         0.0600 
    152 H152       -0.7234  -20.2387  -40.1856 H         1 UNK         0.0600 
    153 H153        0.8331  -20.3851  -40.9968 H         1 UNK         0.0600 
    154 H154       -0.7806  -19.2336  -42.5419 H         1 UNK         0.3000 
    155 H155       -2.4351  -19.0432  -45.7263 H         1 UNK         0.0600 
    156 H156       -2.8467  -17.5692  -43.0750 H         1 UNK         0.0600 
    157 H157       -3.3399  -17.0114  -44.6728 H         1 UNK         0.0600 
    158 H158       -4.1034  -18.4246  -43.9622 H         1 UNK         0.0600 
    159 H159       -0.8006  -17.1420  -44.4424 H         1 UNK         0.3000 
    160 H160        2.3853  -18.3595  -45.6483 H         1 UNK         0.0600 
    161 H161        2.4242  -15.9596  -46.3209 H         1 UNK         0.0600 
    162 H162        0.6664  -15.8888  -46.2059 H         1 UNK         0.0600 
    163 H163        1.4356  -16.9267  -47.4036 H         1 UNK         0.0600 
    164 H164        1.7836  -16.1875  -43.9259 H         1 UNK         0.3000 
    165 H165        1.9638  -17.9706  -40.8277 H         1 UNK         0.0600 
    166 H166        3.6384  -16.1556  -40.4563 H         1 UNK         0.0600 
    167 H167        4.3030  -17.4404  -41.4537 H         1 UNK         0.0600 
    168 H168        3.7983  -15.9308  -42.1984 H         1 UNK         0.0600 
    169 H169        1.4712  -15.2291  -41.6062 H         1 UNK         0.3000 
    170 H170       -2.0905  -15.4677  -41.5884 H         1 UNK         0.0600 
    171 H171       -0.1142  -14.1396  -39.6556 H         1 UNK         0.0600 
    172 H172       -1.7971  -13.6747  -39.9058 H         1 UNK         0.0600 
    173 H173       -1.4126  -15.2341  -39.1950 H         1 UNK         0.0600 
    174 H174       -0.2900  -13.2748  -41.9799 H         1 UNK         0.3000 
    175 H175        0.0675  -13.6332  -45.5061 H         1 UNK         0.0600 
    176 H176       -0.9695  -11.3945  -45.5400 H         1 UNK         0.0600 
    177 H177       -1.6064  -11.6256  -43.9116 H         1 UNK         0.0600 
    178 H178       -2.1991  -12.6130  -45.2426 H         1 UNK         0.0600 
    179 H179        0.9273  -11.5028  -43.9454 H         1 UNK         0.3000 
    180 H180        3.0062  -11.5703  -42.5173 H         1 UNK         0.0600 
    181 H181        4.9526  -13.5078  -43.8835 H         1 UNK         0.0600 
    182 H182        4.4598  -13.5545  -42.1932 H         1 UNK         0.0600 
    183 H183        5.4040  -12.2005  -42.7906 H         1 UNK         0.0600 
    184 H184        4.2213  -11.5653  -45.2179 H         1 UNK         0.3000 
    185 H185        2.4664   -8.6317  -46.2525 H         1 UNK         0.0600 
    186 H186        5.3900   -9.5185  -46.0142 H         1 UNK         0.0600 
    187 H187        4.7741   -8.2849  -47.1113 H         1 UNK         0.0600 
    188 H188        4.6855   -8.0445  -45.3734 H         1 UNK         0.0600 
    189 H189        2.1453  -10.1284  -47.8259 H         1 UNK         0.3000 
    190 H190       -2.2620  -22.8699  -45.0483 H         1 UNK         0.3000 
    191 H191       -4.1149  -24.9386  -45.4328 H         1 UNK         0.0600 
    192 H192       -4.3781  -23.1702  -43.7247 H         1 UNK         0.0600 
    193 H193       -4.4714  -24.7520  -42.9657 H         1 UNK         0.0600 
    194 H194       -3.0032  -23.7946  -42.8165 H         1 UNK         0.0600 
    195 H195       -0.8882  -25.0824  -43.8644 H         1 UNK         0.3000 
    196 H196       -0.9569  -27.8232  -43.1232 H         1 UNK         0.0600 
    197 H197        1.5199  -27.5490  -42.9375 H         1 UNK         0.0600 
    198 H198        0.6713  -26.1978  -42.2007 H         1 UNK         0.0600 
    199 H199        1.4236  -26.0086  -43.7828 H         1 UNK         0.0600 
    200 H200       -0.1162  -26.2574  -46.1973 H         1 UNK         0.3000 
    201 H201        0.7937  -28.7166  -47.4918 H         1 UNK         0.0600 
    202 H202        1.7813  -26.4862  -48.0312 H         1 UNK         0.0600 
    203 H203        0.2155  -25.9206  -48.6078 H         1 UNK         0.0600 
    204 H204        1.0510  -27.2176  -49.4512 H         1 UNK         0.0600 
    205 H205       -2.2492  -27.5792  -46.6827 H         1 UNK         0.3000 
    206 H206       -4.3407  -27.9693  -47.2118 H         1 UNK         0.0600 
    207 H207       -3.6873  -30.3874  -47.3483 H         1 UNK         0.0600 
    208 H208       -5.0328  -29.9944  -48.4050 H         1 UNK         0.0600 
    209 H209       -3.4278  -30.2136  -49.0841 H         1 UNK         0.0600 
    210 H210       -2.8935  -25.9569  -48.5666 H         1 UNK         0.3000 
    211 H211       -4.3095  -25.6169  -51.1731 H         1 UNK         0.0600 
    212 H212       -1.8878  -24.1734  -49.9399 H         1 UNK         0.0600 
    213 H213       -2.5935  -23.8112  -51.5043 H         1 UNK         0.0600 
    214 H214       -1.8186  -25.3614  -51.2353 H         1 UNK         0.0600 
    215 H215       -4.8682  -23.1473  -51.4546 H         1 UNK         0.3000 
    216 H216       -5.7707  -21.8194  -48.9993 H         1 UNK         0.0600 
    217 H217       -8.0743  -21.5222  -49.9583 H         1 UNK         0.0600 
    218 H218       -7.7417  -23.2182  -49.6403 H         1 UNK         0.0600 
    219 H219       -7.6710  -22.5997  -51.2895 H         1 UNK         0.0600 
    220 H220       -6.0572  -19.5989  -49.3032 H         1 UNK         0.3000 
    221 H221       -4.4361  -18.3369  -51.2943 H         1 UNK         0.0600 
    222 H222       -6.4626  -17.1718  -49.3061 H         1 UNK         0.0600 
    223 H223       -4.7384  -17.4051  -49.0085 H         1 UNK         0.0600 
    224 H224       -5.2722  -16.2439  -50.2113 H         1 UNK         0.0600 
    225 H225       -5.0445  -16.8919  -52.9045 H         1 UNK         0.3000 
    226 H226       -5.9949  -16.1671  -54.7273 H         1 UNK         0.0600 
    227 H227       -7.9810  -15.4258  -53.4097 H         1 UNK         0.0600 
    228 H228       -8.4071  -15.9206  -55.0407 H         1 UNK         0.0600 
    229 H229       -8.7562  -16.9848  -53.6906 H         1 UNK         0.0600 
    230 H230       -7.3164  -19.3279  -53.7501 H         1 UNK         0.3000 
    231 H231       -7.6844  -20.4091  -56.3695 H         1 UNK         0.0600 
    232 H232       -7.2784  -21.8018  -53.6671 H         1 UNK         0.0600 
    233 H233       -7.8514  -22.5825  -55.1361 H         1 UNK         0.0600 
    234 H234       -8.8214  -21.3307  -54.3750 H         1 UNK         0.0600 
    235 H235       -5.0081  -20.8641  -53.9746 H         1 UNK         0.3000 
    236 H236       -3.3504  -22.3580  -55.8009 H         1 UNK         0.0600 
    237 H237       -3.2757  -22.6295  -53.3345 H         1 UNK         0.0600 
    238 H238       -1.6930  -22.1945  -53.9620 H         1 UNK         0.0600 
    239 H239       -2.6754  -20.9818  -53.1481 H         1 UNK         0.0600 
    240 H240       -3.9345  -18.9845  -55.4751 H         1 UNK         0.3000 
    241 H241       -1.3223  -18.0580  -56.3303 H         1 UNK         0.0600 
    242 H242       -3.8562  -19.4695  -58.2002 H         1 UNK         0.3800 
    243 H243       -3.3604  -18.7801  -59.7251 H         1 UNK         0.3800 
    244 H244       -2.2398  -15.8231  -56.2665 H         1 UNK         0.0800 
    245 H245       -3.8797  -16.4085  -56.2904 H         1 UNK         0.0800 
    246 H246       -0.5322  -16.4721  -54.0691 H         1 UNK         0.0800 
    247 H247       -1.0938  -18.1279  -53.9659 H         1 UNK         0.0800 
@<TRIPOS>BOND
     1    1    2 1    
     2    1  127 1    
     3    1  128 1    
     4    1  129 1    
     5    2    3 2    
     6    2    4 am   BACKBONE|DICT|INTERRES
     7    4    5 1    
     8    4  130 1    
     9    5    6 1    
    10    5   65 1    
    11    5  131 1    
    12    6    7 1    
    13    6  132 1    
    14    6  133 1    
    15    7    8 1    
    16    8    9 1    
    17    8  134 1    
    18    8  135 1    
    19    9   10 ar   
    20    9   14 ar   
    21   10   11 ar   
    22   10  136 1    
    23   11   12 ar   
    24   11  126 1    
    25   12   13 ar   
    26   12  137 1    
    27   13   14 ar   
    28   13   15 1    
    29   14  138 1    
    30   15   16 1    
    31   15  139 1    
    32   15  140 1    
    33   16   17 1    
    34   17   18 1    
    35   17  141 1    
    36   17  142 1    
    37   18   19 1    
    38   18   67 1    
    39   18  143 1    
    40   19   20 am   BACKBONE|DICT|INTERRES
    41   19  144 1    
    42   20   21 2    
    43   20   22 1    
    44   22   23 1    
    45   22   24 1    
    46   22  145 1    
    47   23  146 1    
    48   23  147 1    
    49   23  148 1    
    50   24   25 am   BACKBONE|DICT|INTERRES
    51   24  149 1    
    52   25   26 2    
    53   25   27 1    
    54   27   28 1    
    55   27   29 1    
    56   27  150 1    
    57   28  151 1    
    58   28  152 1    
    59   28  153 1    
    60   29   30 am   BACKBONE|DICT|INTERRES
    61   29  154 1    
    62   30   31 2    
    63   30   32 1    
    64   32   33 1    
    65   32   34 1    
    66   32  155 1    
    67   33  156 1    
    68   33  157 1    
    69   33  158 1    
    70   34   35 am   BACKBONE|DICT|INTERRES
    71   34  159 1    
    72   35   36 2    
    73   35   37 1    
    74   37   38 1    
    75   37   39 1    
    76   37  160 1    
    77   38  161 1    
    78   38  162 1    
    79   38  163 1    
    80   39   40 am   BACKBONE|DICT|INTERRES
    81   39  164 1    
    82   40   41 2    
    83   40   42 1    
    84   42   43 1    
    85   42   44 1    
    86   42  165 1    
    87   43  166 1    
    88   43  167 1    
    89   43  168 1    
    90   44   45 am   BACKBONE|DICT|INTERRES
    91   44  169 1    
    92   45   46 2    
    93   45   47 1    
    94   47   48 1    
    95   47   49 1    
    96   47  170 1    
    97   48  171 1    
    98   48  172 1    
    99   48  173 1    
   100   49   50 am   BACKBONE|DICT|INTERRES
   101   49  174 1    
   102   50   51 2    
   103   50   52 1    
   104   52   53 1    
   105   52   54 1    
   106   52  175 1    
   107   53  176 1    
   108   53  177 1    
   109   53  178 1    
   110   54   55 am   BACKBONE|DICT|INTERRES
   111   54  179 1    
   112   55   56 2    
   113   55   57 1    
   114   57   58 1    
   115   57   59 1    
   116   57  180 1    
   117   58  181 1    
   118   58  182 1    
   119   58  183 1    
   120   59   60 am   BACKBONE|DICT|INTERRES
   121   59  184 1    
   122   60   61 2    
   123   60   62 1    
   124   62   63 1    
   125   62   64 1    
   126   62  185 1    
   127   63  186 1    
   128   63  187 1    
   129   63  188 1    
   130   64   65 am   BACKBONE|DICT|INTERRES
   131   64  189 1    
   132   65   66 2    
   133   67   68 2    
   134   67   69 am   BACKBONE|DICT|INTERRES
   135   69   70 1    
   136   69  190 1    
   137   70   71 1    
   138   70   72 1    
   139   70  191 1    
   140   71  192 1    
   141   71  193 1    
   142   71  194 1    
   143   72   73 2    
   144   72   74 am   BACKBONE|DICT|INTERRES
   145   74   75 1    
   146   74  195 1    
   147   75   76 1    
   148   75   77 1    
   149   75  196 1    
   150   76  197 1    
   151   76  198 1    
   152   76  199 1    
   153   77   78 2    
   154   77   79 am   BACKBONE|DICT|INTERRES
   155   79   80 1    
   156   79  200 1    
   157   80   81 1    
   158   80   82 1    
   159   80  201 1    
   160   81  202 1    
   161   81  203 1    
   162   81  204 1    
   163   82   83 2    
   164   82   84 am   BACKBONE|DICT|INTERRES
   165   84   85 1    
   166   84  205 1    
   167   85   86 1    
   168   85   87 1    
   169   85  206 1    
   170   86  207 1    
   171   86  208 1    
   172   86  209 1    
   173   87   88 2    
   174   87   89 am   BACKBONE|DICT|INTERRES
   175   89   90 1    
   176   89  210 1    
   177   90   91 1    
   178   90   92 1    
   179   90  211 1    
   180   91  212 1    
   181   91  213 1    
   182   91  214 1    
   183   92   93 2    
   184   92   94 am   BACKBONE|DICT|INTERRES
   185   94   95 1    
   186   94  215 1    
   187   95   96 1    
   188   95   97 1    
   189   95  216 1    
   190   96  217 1    
   191   96  218 1    
   192   96  219 1    
   193   97   98 2    
   194   97   99 am   BACKBONE|DICT|INTERRES
   195   99  100 1    
   196   99  220 1    
   197  100  101 1    
   198  100  102 1    
   199  100  221 1    
   200  101  222 1    
   201  101  223 1    
   202  101  224 1    
   203  102  103 2    
   204  102  104 am   BACKBONE|DICT|INTERRES
   205  104  105 1    
   206  104  225 1    
   207  105  106 1    
   208  105  107 1    
   209  105  226 1    
   210  106  227 1    
   211  106  228 1    
   212  106  229 1    
   213  107  108 2    
   214  107  109 am   BACKBONE|DICT|INTERRES
   215  109  110 1    
   216  109  230 1    
   217  110  111 1    
   218  110  112 1    
   219  110  231 1    
   220  111  232 1    
   221  111  233 1    
   222  111  234 1    
   223  112  113 2    
   224  112  114 am   BACKBONE|DICT|INTERRES
   225  114  115 1    
   226  114  235 1    
   227  115  116 1    
   228  115  117 1    
   229  115  236 1    
   230  116  237 1    
   231  116  238 1    
   232  116  239 1    
   233  117  118 2    
   234  117  119 am   BACKBONE|DICT|INTERRES
   235  119  120 1    
   236  119  240 1    
   237  120  121 1    
   238  120  124 1    
   239  120  241 1    
   240  121  122 am   BACKBONE|DICT|INTERRES
   241  121  123 2    
   242  122  242 1    
   243  122  243 1    
   244  124  125 1    
   245  124  244 1    
   246  124  245 1    
   247  125  126 1    
   248  126  246 1    
   249  126  247 1    
@<TRIPOS>SUBSTRUCTURE
     1 UNK         1 GROUP             0       ****    0 ROOT    
