@<TRIPOS>MOLECULE
3R540
247   249    1
SMALL
USER_CHARGES


@<TRIPOS>ATOM
      1 CA          6.4031  -23.5017  -51.9801 C.3       0 UNK        -0.1800 
      2 C           5.6584  -22.7899  -50.8596 C.2       0 UNK         0.5000 
      3 O           5.3245  -23.4162  -49.8549 O.2       0 UNK        -0.5000 
      4 N           5.3943  -21.4892  -51.0353 N.am      1 UNK        -0.5000 
      5 CA          4.6862  -20.6211  -50.0882 C.3       1 UNK         0.1400 
      6 C6          4.4663  -19.1941  -50.6533 C.3       23 UNK        -0.0398 
      7 S7          3.7089  -19.1700  -52.3125 S.3       23 UNK        -0.2404 
      8 C8          3.0706  -17.4679  -52.3874 C.3       23 UNK        -0.0205 
      9 C9          1.7601  -17.3154  -51.6305 C.ar      23 UNK        -0.0193 
     10 C10         0.5730  -17.7847  -52.1980 C.ar      23 UNK        -0.1150 
     11 C11        -0.6432  -17.6325  -51.5293 C.ar      23 UNK        -0.0193 
     12 C12        -0.6670  -17.0061  -50.2801 C.ar      23 UNK        -0.1150 
     13 C13         0.5112  -16.5217  -49.7047 C.ar      23 UNK        -0.0193 
     14 C14         1.7236  -16.6840  -50.3833 C.ar      23 UNK        -0.1150 
     15 C15         0.4687  -15.7836  -48.3726 C.3       23 UNK        -0.0205 
     16 S16        -0.1302  -16.8160  -46.9981 S.3       23 UNK        -0.2404 
     17 C17         1.2047  -18.0499  -46.8422 C.3       23 UNK        -0.0398 
     18 CA          0.7112  -19.5030  -46.6526 C.3       11 UNK         0.1400 
     19 N          -0.1826  -19.6485  -45.5016 N.am      11 UNK        -0.5000 
     20 C          -0.5209  -20.8253  -44.9592 C.2       10 UNK         0.5000 
     21 O          -0.0651  -21.9081  -45.3308 O.2       10 UNK        -0.5000 
     22 CA         -1.5897  -20.7801  -43.8576 C.3       10 UNK         0.1400 
     23 CB         -0.9797  -20.3317  -42.5203 C.3       10 UNK        -0.1800 
     24 N          -2.7108  -19.9058  -44.2156 N.am      10 UNK        -0.5000 
     25 C          -3.6414  -20.2230  -45.1295 C.2       9 UNK         0.5000 
     26 O          -3.5962  -21.2498  -45.8045 O.2       9 UNK        -0.5000 
     27 CA         -4.8234  -19.2549  -45.3309 C.3       9 UNK         0.1400 
     28 CB         -6.0244  -19.6977  -44.4822 C.3       9 UNK        -0.1800 
     29 N          -4.4901  -17.8739  -44.9972 N.am      9 UNK        -0.5000 
     30 C          -3.8149  -17.0427  -45.8005 C.2       8 UNK         0.5000 
     31 O          -3.5118  -17.3203  -46.9604 O.2       8 UNK        -0.5000 
     32 CA         -3.4062  -15.6731  -45.2179 C.3       8 UNK         0.1400 
     33 CB         -4.2796  -14.5563  -45.8083 C.3       8 UNK        -0.1800 
     34 N          -3.4558  -15.5846  -43.7540 N.am      8 UNK        -0.5000 
     35 C          -2.7408  -16.3205  -42.8946 C.2       7 UNK         0.5000 
     36 O          -1.9783  -17.2198  -43.2503 O.2       7 UNK        -0.5000 
     37 CA         -2.9330  -16.0059  -41.3955 C.3       7 UNK         0.1400 
     38 CB         -2.1733  -16.9902  -40.4875 C.3       7 UNK        -0.1800 
     39 N          -2.5199  -14.6435  -41.0573 N.am      7 UNK        -0.5000 
     40 C          -3.1826  -13.5151  -41.3488 C.2       6 UNK         0.5000 
     41 O          -4.2673  -13.4977  -41.9333 O.2       6 UNK        -0.5000 
     42 CA         -2.5298  -12.1838  -40.9215 C.3       6 UNK         0.1400 
     43 CB         -3.2393  -11.6119  -39.6843 C.3       6 UNK        -0.1800 
     44 N          -1.0967  -12.3000  -40.6324 N.am      6 UNK        -0.5000 
     45 C          -0.1393  -12.4715  -41.5545 C.2       5 UNK         0.5000 
     46 O          -0.3675  -12.5202  -42.7638 O.2       5 UNK        -0.5000 
     47 CA          1.3061  -12.6506  -41.0495 C.3       5 UNK         0.1400 
     48 CB          1.4916  -12.3528  -39.5472 C.3       5 UNK        -0.1800 
     49 N           1.7242  -14.0260  -41.3111 N.am      5 UNK        -0.5000 
     50 C           2.4139  -14.4286  -42.3836 C.2       4 UNK         0.5000 
     51 O           2.8720  -13.6699  -43.2431 O.2       4 UNK        -0.5000 
     52 CA          2.6172  -15.9431  -42.5200 C.3       4 UNK         0.1400 
     53 CB          1.3798  -16.6091  -43.1501 C.3       4 UNK        -0.1800 
     54 N           3.7952  -16.1856  -43.3447 N.am      4 UNK        -0.5000 
     55 C           4.5209  -17.3058  -43.3393 C.2       3 UNK         0.5000 
     56 O           4.2625  -18.2877  -42.6383 O.2       3 UNK        -0.5000 
     57 CA          5.7610  -17.3288  -44.2511 C.3       3 UNK         0.1400 
     58 CB          7.0338  -17.0232  -43.4464 C.3       3 UNK        -0.1800 
     59 N           5.8966  -18.6390  -44.8847 N.am      3 UNK        -0.5000 
     60 C           5.1301  -19.0521  -45.8993 C.2       2 UNK         0.5000 
     61 O           4.3364  -18.3210  -46.4962 O.2       2 UNK        -0.5000 
     62 CA          5.2447  -20.5372  -46.2832 C.3       2 UNK         0.1400 
     63 CB          4.4536  -21.4110  -45.2963 C.3       2 UNK        -0.1800 
     64 N           4.7350  -20.7598  -47.6360 N.am      2 UNK        -0.5000 
     65 C           5.4426  -20.5260  -48.7462 C.2       1 UNK         0.5000 
     66 O           6.6380  -20.2192  -48.7449 O.2       1 UNK        -0.5000 
     67 C           0.0889  -20.0991  -47.9322 C.2       11 UNK         0.5000 
     68 O           0.7996  -20.7375  -48.7082 O.2       11 UNK        -0.5000 
     69 N          -1.2345  -19.9428  -48.0851 N.am      12 UNK        -0.5000 
     70 CA         -2.0204  -20.4933  -49.1847 C.3       12 UNK         0.1400 
     71 CB         -3.4257  -19.8901  -49.1536 C.3       12 UNK        -0.1800 
     72 C          -2.1069  -22.0254  -49.1634 C.2       12 UNK         0.5000 
     73 O          -2.0666  -22.6427  -50.2268 O.2       12 UNK        -0.5000 
     74 N          -2.2205  -22.6199  -47.9687 N.am      13 UNK        -0.5000 
     75 CA         -2.2048  -24.0687  -47.7673 C.3       13 UNK         0.1400 
     76 CB         -2.5656  -24.3976  -46.3115 C.3       13 UNK        -0.1800 
     77 C          -0.8527  -24.6894  -48.1579 C.2       13 UNK         0.5000 
     78 O          -0.8319  -25.7207  -48.8294 O.2       13 UNK        -0.5000 
     79 N           0.2453  -24.0168  -47.7847 N.am      14 UNK        -0.5000 
     80 CA          1.6103  -24.3775  -48.1730 C.3       14 UNK         0.1400 
     81 CB          2.6024  -23.5401  -47.3576 C.3       14 UNK        -0.1800 
     82 C           1.8591  -24.2199  -49.6865 C.2       14 UNK         0.5000 
     83 O           2.4832  -25.0894  -50.2944 O.2       14 UNK        -0.5000 
     84 N           1.3132  -23.1456  -50.2750 N.am      15 UNK        -0.5000 
     85 CA          1.3355  -22.8628  -51.7135 C.3       15 UNK         0.1400 
     86 CB          0.8752  -21.4134  -51.9360 C.3       15 UNK        -0.1800 
     87 C           0.4652  -23.8188  -52.5592 C.2       15 UNK         0.5000 
     88 O           0.5764  -23.7980  -53.7853 O.2       15 UNK        -0.5000 
     89 N          -0.3967  -24.6082  -51.8997 N.am      16 UNK        -0.5000 
     90 CA         -1.3988  -25.5217  -52.4601 C.3       16 UNK         0.1400 
     91 CB         -0.7458  -26.6219  -53.3226 C.3       16 UNK        -0.1800 
     92 C          -2.5571  -24.7936  -53.1768 C.2       16 UNK         0.5000 
     93 O          -3.2274  -25.3856  -54.0243 O.2       16 UNK        -0.5000 
     94 N          -2.7964  -23.5321  -52.7961 N.am      17 UNK        -0.5000 
     95 CA         -3.9395  -22.7236  -53.2188 C.3       17 UNK         0.1400 
     96 CB         -3.5370  -21.2427  -53.1940 C.3       17 UNK        -0.1800 
     97 C          -5.1680  -22.9570  -52.3203 C.2       17 UNK         0.5000 
     98 O          -6.2830  -22.6468  -52.7370 O.2       17 UNK        -0.5000 
     99 N          -4.9450  -23.4812  -51.1032 N.am      18 UNK        -0.5000 
    100 CA        -5.9504  -23.9182  -50.1234 C.3       18 UNK         0.1400 
    101 CB        -6.6606  -25.1899  -50.6308 C.3       18 UNK        -0.1800 
    102 C         -6.9439  -22.8139  -49.6969 C.2       18 UNK         0.5000 
    103 O         -8.1011  -23.1071  -49.3929 O.2       18 UNK        -0.5000 
    104 N         -6.4632  -21.5622  -49.6932 N.am      19 UNK        -0.5000 
    105 CA        -7.1839  -20.3258  -49.3674 C.3       19 UNK         0.1400 
    106 CB        -7.6865  -20.3493  -47.9084 C.3       19 UNK        -0.1800 
    107 C         -8.2982  -19.9591  -50.3756 C.2       19 UNK         0.5000 
    108 O         -9.1888  -19.1787  -50.0352 O.2       19 UNK        -0.5000 
    109 N         -8.2432  -20.5138  -51.5970 N.am      20 UNK        -0.5000 
    110 CA        -9.2518  -20.3108  -52.6426 C.3       20 UNK         0.1400 
    111 CB        -9.1602  -21.4630  -53.6550 C.3       20 UNK        -0.1800 
    112 C         -9.1432  -18.9538  -53.3681 C.2       20 UNK         0.5000 
    113 O        -10.0953  -18.5594  -54.0435 O.2       20 UNK        -0.5000 
    114 N         -7.9995  -18.2728  -53.2362 N.am      21 UNK        -0.5000 
    115 CA        -7.7141  -16.9784  -53.8465 C.3       21 UNK         0.1400 
    116 CB        -6.9986  -17.1879  -55.1973 C.3       21 UNK        -0.1800 
    117 C         -6.9141  -16.1525  -52.8311 C.2       21 UNK         0.5000 
    118 O         -7.5139  -15.5300  -51.9532 O.2       21 UNK        -0.5000 
    119 N         -5.5816  -16.1913  -52.9408 N.am      22 UNK        -0.5000 
    120 CA        -4.6359  -15.7127  -51.9220 C.3       22 UNK         0.1400 
    121 C         -4.7025  -16.5248  -50.5956 C.2       22 UNK         0.5000 
    122 N         -4.1296  -16.0077  -49.5162 N.am      22 UNK        -0.7600 
    123 O         -5.2351  -17.6305  -50.5469 O.2       22 UNK        -0.5000 
    124 C124       -3.1863  -15.6257  -52.4804 C.3       23 UNK        -0.0398 
    125 S125       -2.6189  -17.0860  -53.4305 S.3       23 UNK        -0.2404 
    126 C126       -1.9208  -18.1743  -52.1486 C.3       23 UNK        -0.0205 
    127 H127        6.6241  -22.8312  -52.8111 H         1 UNK         0.0600 
    128 H128        5.8035  -24.3286  -52.3608 H         1 UNK         0.0600 
    129 H129        7.3449  -23.9045  -51.6078 H         1 UNK         0.0600 
    130 H130        5.7018  -21.0334  -51.8823 H         1 UNK         0.3000 
    131 H131        3.7067  -21.0716  -49.9103 H         1 UNK         0.0600 
    132 H132        3.8337  -18.6251  -49.9700 H         1 UNK         0.0800 
    133 H133        5.4119  -18.6519  -50.7188 H         1 UNK         0.0800 
    134 H134        2.9108  -17.2009  -53.4330 H         1 UNK         0.0800 
    135 H135        3.8235  -16.7743  -52.0097 H         1 UNK         0.0800 
    136 H136        0.5970  -18.2723  -53.1625 H         1 UNK         0.1150 
    137 H137       -1.6016  -16.8934  -49.7505 H         1 UNK         0.1150 
    138 H138        2.6379  -16.3066  -49.9476 H         1 UNK         0.1150 
    139 H139        1.4511  -15.3856  -48.1140 H         1 UNK         0.0800 
    140 H140       -0.1928  -14.9222  -48.4726 H         1 UNK         0.0800 
    141 H141        1.8091  -17.7629  -45.9815 H         1 UNK         0.0800 
    142 H142        1.8754  -17.9909  -47.7008 H         1 UNK         0.0800 
    143 H143        1.5976  -20.1035  -46.4415 H         1 UNK         0.0600 
    144 H144       -0.6116  -18.8031  -45.1499 H         1 UNK         0.3000 
    145 H145       -1.9752  -21.7937  -43.7261 H         1 UNK         0.0600 
    146 H146       -1.7292  -20.3202  -41.7291 H         1 UNK         0.0600 
    147 H147       -0.1875  -21.0131  -42.2078 H         1 UNK         0.0600 
    148 H148       -0.5438  -19.3344  -42.5838 H         1 UNK         0.0600 
    149 H149       -2.7415  -19.0005  -43.7593 H         1 UNK         0.3000 
    150 H150       -5.1160  -19.3008  -46.3814 H         1 UNK         0.0600 
    151 H151       -6.3086  -20.7253  -44.7130 H         1 UNK         0.0600 
    152 H152       -6.8950  -19.0705  -44.6749 H         1 UNK         0.0600 
    153 H153       -5.8040  -19.6503  -43.4150 H         1 UNK         0.0600 
    154 H154       -4.7214  -17.5564  -44.0682 H         1 UNK         0.3000 
    155 H155       -2.3732  -15.4924  -45.5192 H         1 UNK         0.0600 
    156 H156       -4.2354  -14.5571  -46.8980 H         1 UNK         0.0600 
    157 H157       -3.9446  -13.5747  -45.4725 H         1 UNK         0.0600 
    158 H158       -5.3255  -14.6712  -45.5213 H         1 UNK         0.0600 
    159 H159       -4.0293  -14.8440  -43.3620 H         1 UNK         0.3000 
    160 H160       -3.9980  -16.1094  -41.1779 H         1 UNK         0.0600 
    161 H161       -2.3709  -16.7884  -39.4346 H         1 UNK         0.0600 
    162 H162       -1.0953  -16.9359  -40.6429 H         1 UNK         0.0600 
    163 H163       -2.4811  -18.0185  -40.6814 H         1 UNK         0.0600 
    164 H164       -1.6320  -14.5522  -40.5886 H         1 UNK         0.3000 
    165 H165       -2.6593  -11.4787  -41.7453 H         1 UNK         0.0600 
    166 H166       -2.8353  -10.6363  -39.4134 H         1 UNK         0.0600 
    167 H167       -4.3058  -11.4792  -39.8712 H         1 UNK         0.0600 
    168 H168       -3.1370  -12.2706  -38.8209 H         1 UNK         0.0600 
    169 H169       -0.8294  -12.2633  -39.6591 H         1 UNK         0.3000 
    170 H170        1.9304  -11.9490  -41.6067 H         1 UNK         0.0600 
    171 H171        1.1795  -11.3362  -39.3040 H         1 UNK         0.0600 
    172 H172        0.9284  -13.0407  -38.9153 H         1 UNK         0.0600 
    173 H173        2.5414  -12.4374  -39.2652 H         1 UNK         0.0600 
    174 H174        1.3837  -14.7238  -40.6657 H         1 UNK         0.3000 
    175 H175        2.7873  -16.3582  -41.5241 H         1 UNK         0.0600 
    176 H176        1.1588  -16.1954  -44.1346 H         1 UNK         0.0600 
    177 H177        1.5125  -17.6855  -43.2603 H         1 UNK         0.0600 
    178 H178        0.4986  -16.4555  -42.5279 H         1 UNK         0.0600 
    179 H179        4.0745  -15.3912  -43.9076 H         1 UNK         0.3000 
    180 H180        5.6519  -16.5674  -45.0270 H         1 UNK         0.0600 
    181 H181        7.9151  -17.0207  -44.0881 H         1 UNK         0.0600 
    182 H182        7.1965  -17.7557  -42.6546 H         1 UNK         0.0600 
    183 H183        6.9712  -16.0408  -42.9767 H         1 UNK         0.0600 
    184 H184        6.4922  -19.3041  -44.4134 H         1 UNK         0.3000 
    185 H185        6.2964  -20.8286  -46.2371 H         1 UNK         0.0600 
    186 H186        4.7948  -21.2556  -44.2719 H         1 UNK         0.0600 
    187 H187        3.3863  -21.1904  -45.3189 H         1 UNK         0.0600 
    188 H188        4.5857  -22.4696  -45.5185 H         1 UNK         0.0600 
    189 H189        3.7518  -20.9679  -47.7160 H         1 UNK         0.3000 
    190 H190       -1.7340  -19.3865  -47.4060 H         1 UNK         0.3000 
    191 H191       -1.5360  -20.1964  -50.1151 H         1 UNK         0.0600 
    192 H192       -3.3758  -18.8049  -49.1011 H         1 UNK         0.0600 
    193 H193       -3.9804  -20.1445  -50.0558 H         1 UNK         0.0600 
    194 H194       -4.0038  -20.2377  -48.2983 H         1 UNK         0.0600 
    195 H195       -2.3487  -22.0467  -47.1410 H         1 UNK         0.3000 
    196 H196       -2.9691  -24.5070  -48.4120 H         1 UNK         0.0600 
    197 H197       -2.5606  -25.4748  -46.1411 H         1 UNK         0.0600 
    198 H198       -3.5627  -24.0340  -46.0626 H         1 UNK         0.0600 
    199 H199       -1.8623  -23.9497  -45.6092 H         1 UNK         0.0600 
    200 H200        0.1339  -23.1861  -47.2159 H         1 UNK         0.3000 
    201 H201        1.7665  -25.4282  -47.9198 H         1 UNK         0.0600 
    202 H202        2.4907  -23.7304  -46.2901 H         1 UNK         0.0600 
    203 H203        2.4542  -22.4742  -47.5227 H         1 UNK         0.0600 
    204 H204        3.6322  -23.7782  -47.6272 H         1 UNK         0.0600 
    205 H205        0.8700  -22.4440  -49.6897 H         1 UNK         0.3000 
    206 H206        2.3674  -22.9546  -52.0585 H         1 UNK         0.0600 
    207 H207        1.4320  -20.7164  -51.3111 H         1 UNK         0.0600 
    208 H208        1.0255  -21.1098  -52.9726 H         1 UNK         0.0600 
    209 H209       -0.1832  -21.2880  -51.7110 H         1 UNK         0.0600 
    210 H210       -0.4131  -24.5242  -50.8919 H         1 UNK         0.3000 
    211 H211       -1.8525  -26.0155  -51.5997 H         1 UNK         0.0600 
    212 H212       -0.3512  -26.2262  -54.2585 H         1 UNK         0.0600 
    213 H213       -1.4689  -27.3972  -53.5782 H         1 UNK         0.0600 
    214 H214        0.0725  -27.1064  -52.7898 H         1 UNK         0.0600 
    215 H215       -2.2305  -23.1483  -52.0442 H         1 UNK         0.3000 
    216 H216       -4.2177  -22.9871  -54.2413 H         1 UNK         0.0600 
    217 H217       -4.3632  -20.6026  -53.5069 H         1 UNK         0.0600 
    218 H218       -2.7037  -21.0522  -53.8704 H         1 UNK         0.0600 
    219 H219       -3.2373  -20.9292  -52.1948 H         1 UNK         0.0600 
    220 H220       -3.9797  -23.6353  -50.8418 H         1 UNK         0.3000 
    221 H221       -5.3997  -24.1868  -49.2210 H         1 UNK         0.0600 
    222 H222       -7.2784  -24.9838  -51.5055 H         1 UNK         0.0600 
    223 H223       -5.9403  -25.9612  -50.9037 H         1 UNK         0.0600 
    224 H224       -7.3095  -25.6123  -49.8628 H         1 UNK         0.0600 
    225 H225       -5.5072  -21.4402  -49.9899 H         1 UNK         0.3000 
    226 H226       -6.4454  -19.5296  -49.4318 H         1 UNK         0.0600 
    227 H227       -6.9059  -20.6860  -47.2275 H         1 UNK         0.0600 
    228 H228       -7.9941  -19.3541  -47.5856 H         1 UNK         0.0600 
    229 H229       -8.5440  -21.0113  -47.7853 H         1 UNK         0.0600 
    230 H230       -7.4997  -21.1690  -51.8124 H         1 UNK         0.3000 
    231 H231      -10.2395  -20.3528  -52.1787 H         1 UNK         0.0600 
    232 H232       -8.2137  -21.4467  -54.1965 H         1 UNK         0.0600 
    233 H233       -9.9601  -21.3993  -54.3936 H         1 UNK         0.0600 
    234 H234       -9.2490  -22.4316  -53.1623 H         1 UNK         0.0600 
    235 H235       -7.2889  -18.6393  -52.6179 H         1 UNK         0.3000 
    236 H236       -8.6428  -16.4336  -54.0296 H         1 UNK         0.0600 
    237 H237       -7.6630  -17.6687  -55.9155 H         1 UNK         0.0600 
    238 H238       -6.6909  -16.2357  -55.6313 H         1 UNK         0.0600 
    239 H239       -6.1122  -17.8162  -55.1015 H         1 UNK         0.0600 
    240 H240       -5.1708  -16.7433  -53.6795 H         1 UNK         0.3000 
    241 H241       -4.9454  -14.6983  -51.6631 H         1 UNK         0.0600 
    242 H242       -3.7009  -15.0970  -49.5297 H         1 UNK         0.3800 
    243 H243       -4.1056  -16.5526  -48.6599 H         1 UNK         0.3800 
    244 H244       -3.1364  -14.7787  -53.1656 H         1 UNK         0.0800 
    245 H245       -2.4670  -15.3884  -51.6964 H         1 UNK         0.0800 
    246 H246       -2.6721  -18.3642  -51.3852 H         1 UNK         0.0800 
    247 H247       -1.6999  -19.1395  -52.6033 H         1 UNK         0.0800 
@<TRIPOS>BOND
     1    1    2 1    
     2    1  127 1    
     3    1  128 1    
     4    1  129 1    
     5    2    3 2    
     6    2    4 am   BACKBONE|DICT|INTERRES
     7    4    5 1    
     8    4  130 1    
     9    5    6 1    
    10    5   65 1    
    11    5  131 1    
    12    6    7 1    
    13    6  132 1    
    14    6  133 1    
    15    7    8 1    
    16    8    9 1    
    17    8  134 1    
    18    8  135 1    
    19    9   10 ar   
    20    9   14 ar   
    21   10   11 ar   
    22   10  136 1    
    23   11   12 ar   
    24   11  126 1    
    25   12   13 ar   
    26   12  137 1    
    27   13   14 ar   
    28   13   15 1    
    29   14  138 1    
    30   15   16 1    
    31   15  139 1    
    32   15  140 1    
    33   16   17 1    
    34   17   18 1    
    35   17  141 1    
    36   17  142 1    
    37   18   19 1    
    38   18   67 1    
    39   18  143 1    
    40   19   20 am   BACKBONE|DICT|INTERRES
    41   19  144 1    
    42   20   21 2    
    43   20   22 1    
    44   22   23 1    
    45   22   24 1    
    46   22  145 1    
    47   23  146 1    
    48   23  147 1    
    49   23  148 1    
    50   24   25 am   BACKBONE|DICT|INTERRES
    51   24  149 1    
    52   25   26 2    
    53   25   27 1    
    54   27   28 1    
    55   27   29 1    
    56   27  150 1    
    57   28  151 1    
    58   28  152 1    
    59   28  153 1    
    60   29   30 am   BACKBONE|DICT|INTERRES
    61   29  154 1    
    62   30   31 2    
    63   30   32 1    
    64   32   33 1    
    65   32   34 1    
    66   32  155 1    
    67   33  156 1    
    68   33  157 1    
    69   33  158 1    
    70   34   35 am   BACKBONE|DICT|INTERRES
    71   34  159 1    
    72   35   36 2    
    73   35   37 1    
    74   37   38 1    
    75   37   39 1    
    76   37  160 1    
    77   38  161 1    
    78   38  162 1    
    79   38  163 1    
    80   39   40 am   BACKBONE|DICT|INTERRES
    81   39  164 1    
    82   40   41 2    
    83   40   42 1    
    84   42   43 1    
    85   42   44 1    
    86   42  165 1    
    87   43  166 1    
    88   43  167 1    
    89   43  168 1    
    90   44   45 am   BACKBONE|DICT|INTERRES
    91   44  169 1    
    92   45   46 2    
    93   45   47 1    
    94   47   48 1    
    95   47   49 1    
    96   47  170 1    
    97   48  171 1    
    98   48  172 1    
    99   48  173 1    
   100   49   50 am   BACKBONE|DICT|INTERRES
   101   49  174 1    
   102   50   51 2    
   103   50   52 1    
   104   52   53 1    
   105   52   54 1    
   106   52  175 1    
   107   53  176 1    
   108   53  177 1    
   109   53  178 1    
   110   54   55 am   BACKBONE|DICT|INTERRES
   111   54  179 1    
   112   55   56 2    
   113   55   57 1    
   114   57   58 1    
   115   57   59 1    
   116   57  180 1    
   117   58  181 1    
   118   58  182 1    
   119   58  183 1    
   120   59   60 am   BACKBONE|DICT|INTERRES
   121   59  184 1    
   122   60   61 2    
   123   60   62 1    
   124   62   63 1    
   125   62   64 1    
   126   62  185 1    
   127   63  186 1    
   128   63  187 1    
   129   63  188 1    
   130   64   65 am   BACKBONE|DICT|INTERRES
   131   64  189 1    
   132   65   66 2    
   133   67   68 2    
   134   67   69 am   BACKBONE|DICT|INTERRES
   135   69   70 1    
   136   69  190 1    
   137   70   71 1    
   138   70   72 1    
   139   70  191 1    
   140   71  192 1    
   141   71  193 1    
   142   71  194 1    
   143   72   73 2    
   144   72   74 am   BACKBONE|DICT|INTERRES
   145   74   75 1    
   146   74  195 1    
   147   75   76 1    
   148   75   77 1    
   149   75  196 1    
   150   76  197 1    
   151   76  198 1    
   152   76  199 1    
   153   77   78 2    
   154   77   79 am   BACKBONE|DICT|INTERRES
   155   79   80 1    
   156   79  200 1    
   157   80   81 1    
   158   80   82 1    
   159   80  201 1    
   160   81  202 1    
   161   81  203 1    
   162   81  204 1    
   163   82   83 2    
   164   82   84 am   BACKBONE|DICT|INTERRES
   165   84   85 1    
   166   84  205 1    
   167   85   86 1    
   168   85   87 1    
   169   85  206 1    
   170   86  207 1    
   171   86  208 1    
   172   86  209 1    
   173   87   88 2    
   174   87   89 am   BACKBONE|DICT|INTERRES
   175   89   90 1    
   176   89  210 1    
   177   90   91 1    
   178   90   92 1    
   179   90  211 1    
   180   91  212 1    
   181   91  213 1    
   182   91  214 1    
   183   92   93 2    
   184   92   94 am   BACKBONE|DICT|INTERRES
   185   94   95 1    
   186   94  215 1    
   187   95   96 1    
   188   95   97 1    
   189   95  216 1    
   190   96  217 1    
   191   96  218 1    
   192   96  219 1    
   193   97   98 2    
   194   97   99 am   BACKBONE|DICT|INTERRES
   195   99  100 1    
   196   99  220 1    
   197  100  101 1    
   198  100  102 1    
   199  100  221 1    
   200  101  222 1    
   201  101  223 1    
   202  101  224 1    
   203  102  103 2    
   204  102  104 am   BACKBONE|DICT|INTERRES
   205  104  105 1    
   206  104  225 1    
   207  105  106 1    
   208  105  107 1    
   209  105  226 1    
   210  106  227 1    
   211  106  228 1    
   212  106  229 1    
   213  107  108 2    
   214  107  109 am   BACKBONE|DICT|INTERRES
   215  109  110 1    
   216  109  230 1    
   217  110  111 1    
   218  110  112 1    
   219  110  231 1    
   220  111  232 1    
   221  111  233 1    
   222  111  234 1    
   223  112  113 2    
   224  112  114 am   BACKBONE|DICT|INTERRES
   225  114  115 1    
   226  114  235 1    
   227  115  116 1    
   228  115  117 1    
   229  115  236 1    
   230  116  237 1    
   231  116  238 1    
   232  116  239 1    
   233  117  118 2    
   234  117  119 am   BACKBONE|DICT|INTERRES
   235  119  120 1    
   236  119  240 1    
   237  120  121 1    
   238  120  124 1    
   239  120  241 1    
   240  121  122 am   BACKBONE|DICT|INTERRES
   241  121  123 2    
   242  122  242 1    
   243  122  243 1    
   244  124  125 1    
   245  124  244 1    
   246  124  245 1    
   247  125  126 1    
   248  126  246 1    
   249  126  247 1    
@<TRIPOS>SUBSTRUCTURE
     1 UNK         1 GROUP             0       ****    0 ROOT    
