@<TRIPOS>MOLECULE
3R540
247   249    1
SMALL
USER_CHARGES


@<TRIPOS>ATOM
      1 CA          0.6786  -14.6967  -51.9551 C.3       0 UNK        -0.1800 
      2 C           0.0084  -13.6739  -51.0401 C.2       0 UNK         0.5000 
      3 O          -0.6407  -12.7536  -51.5328 O.2       0 UNK        -0.5000 
      4 N           0.1307  -13.7842  -49.7117 N.am      1 UNK        -0.5000 
      5 CA          0.9403  -14.7647  -48.9828 C.3       1 UNK         0.1400 
      6 C6          0.3645  -15.0337  -47.5712 C.3       23 UNK        -0.0398 
      7 S7         -1.0252  -16.2028  -47.6610 S.3       23 UNK        -0.2404 
      8 C8         -2.4658  -15.0937  -47.6317 C.3       23 UNK        -0.0205 
      9 C9         -3.7345  -15.8661  -47.9549 C.ar      23 UNK        -0.0193 
     10 C10        -4.4717  -15.5767  -49.1070 C.ar      23 UNK        -0.1150 
     11 C11        -5.6178  -16.3144  -49.4176 C.ar      23 UNK        -0.0193 
     12 C12        -6.0059  -17.3673  -48.5810 C.ar      23 UNK        -0.1150 
     13 C13        -5.2772  -17.6648  -47.4250 C.ar      23 UNK        -0.0193 
     14 C14        -4.1618  -16.8883  -47.1041 C.ar      23 UNK        -0.1150 
     15 C15        -5.7043  -18.8090  -46.5149 C.3       23 UNK        -0.0205 
     16 S16        -4.9532  -20.4015  -46.9943 S.3       23 UNK        -0.2404 
     17 C17        -3.2630  -20.2517  -46.3229 C.3       23 UNK        -0.0398 
     18 CA         -2.2133  -21.0616  -47.1211 C.3       11 UNK         0.1400 
     19 N          -0.9403  -20.3448  -47.2459 N.am      11 UNK        -0.5000 
     20 C           0.0671  -20.7356  -48.0397 C.2       10 UNK         0.5000 
     21 O           0.0122  -21.7218  -48.7701 O.2       10 UNK        -0.5000 
     22 CA          1.3774  -19.9333  -47.9791 C.3       10 UNK         0.1400 
     23 CB          1.4253  -18.8893  -49.1041 C.3       10 UNK        -0.1800 
     24 N           1.6190  -19.2862  -46.6881 N.am      10 UNK        -0.5000 
     25 C           1.7699  -19.9270  -45.5195 C.2       9 UNK         0.5000 
     26 O           1.6496  -21.1484  -45.3995 O.2       9 UNK        -0.5000 
     27 CA          2.1034  -19.0693  -44.2836 C.3       9 UNK         0.1400 
     28 CB          2.2429  -17.5633  -44.5975 C.3       9 UNK        -0.1800 
     29 N           1.0677  -19.2658  -43.2698 N.am      9 UNK        -0.5000 
     30 C           1.1675  -20.0852  -42.2120 C.2       8 UNK         0.5000 
     31 O           2.1918  -20.7112  -41.9368 O.2       8 UNK        -0.5000 
     32 CA         -0.0675  -20.2442  -41.2972 C.3       8 UNK         0.1400 
     33 CB          0.2683  -19.9343  -39.8292 C.3       8 UNK        -0.1800 
     34 N          -1.1870  -19.3949  -41.7020 N.am      8 UNK        -0.5000 
     35 C          -2.2532  -19.8032  -42.4020 C.2       7 UNK         0.5000 
     36 O          -2.4405  -20.9662  -42.7555 O.2       7 UNK        -0.5000 
     37 CA         -3.2705  -18.7168  -42.8081 C.3       7 UNK         0.1400 
     38 CB         -4.3709  -18.5880  -41.7452 C.3       7 UNK        -0.1800 
     39 N          -2.6694  -17.4018  -43.0339 N.am      7 UNK        -0.5000 
     40 C          -1.6749  -17.1268  -43.8888 C.2       6 UNK         0.5000 
     41 O          -1.1753  -17.9608  -44.6462 O.2       6 UNK        -0.5000 
     42 CA         -1.1154  -15.6920  -43.8572 C.3       6 UNK         0.1400 
     43 CB         -2.1900  -14.6343  -43.5313 C.3       6 UNK        -0.1800 
     44 N           0.0377  -15.5207  -42.9659 N.am      6 UNK        -0.5000 
     45 C           0.1546  -15.8534  -41.6677 C.2       5 UNK         0.5000 
     46 O          -0.6593  -16.5449  -41.0549 O.2       5 UNK        -0.5000 
     47 CA          1.3763  -15.2968  -40.9013 C.3       5 UNK         0.1400 
     48 CB          2.3990  -16.4002  -40.5891 C.3       5 UNK        -0.1800 
     49 N           2.0570  -14.2009  -41.5938 N.am      5 UNK        -0.5000 
     50 C           1.5428  -12.9812  -41.8095 C.2       4 UNK         0.5000 
     51 O           0.4583  -12.6119  -41.3583 O.2       4 UNK        -0.5000 
     52 CA          2.3593  -12.0159  -42.6940 C.3       4 UNK         0.1400 
     53 CB          2.9118  -10.8532  -41.8541 C.3       4 UNK        -0.1800 
     54 N           3.4717  -12.6389  -43.4208 N.am      4 UNK        -0.5000 
     55 C           3.3644  -13.5567  -44.3901 C.2       3 UNK         0.5000 
     56 O           2.2965  -14.0573  -44.7580 O.2       3 UNK        -0.5000 
     57 CA          4.6868  -14.0215  -45.0118 C.3       3 UNK         0.1400 
     58 CB          5.3631  -15.0930  -44.1391 C.3       3 UNK        -0.1800 
     59 N           4.4252  -14.5622  -46.3390 N.am      3 UNK        -0.5000 
     60 C           5.2565  -14.4836  -47.3844 C.2       2 UNK         0.5000 
     61 O           6.3788  -13.9792  -47.3249 O.2       2 UNK        -0.5000 
     62 CA          4.7676  -15.0681  -48.7257 C.3       2 UNK         0.1400 
     63 CB          5.4606  -16.4112  -49.0062 C.3       2 UNK        -0.1800 
     64 N           3.3183  -15.2709  -48.8009 N.am      2 UNK        -0.5000 
     65 C           2.4052  -14.2958  -48.8970 C.2       1 UNK         0.5000 
     66 O           2.6796  -13.0937  -48.9039 O.2       1 UNK        -0.5000 
     67 C          -2.0304  -22.4761  -46.5334 C.2       11 UNK         0.5000 
     68 O          -2.6580  -23.4192  -47.0159 O.2       11 UNK        -0.5000 
     69 N          -1.1443  -22.6061  -45.5352 N.am      12 UNK        -0.5000 
     70 CA         -0.8002  -23.8814  -44.9087 C.3       12 UNK         0.1400 
     71 CB         -0.0771  -23.6324  -43.5771 C.3       12 UNK        -0.1800 
     72 C           0.0459  -24.7658  -45.8380 C.2       12 UNK         0.5000 
     73 O          -0.1909  -25.9720  -45.9024 O.2       12 UNK        -0.5000 
     74 N           0.9836  -24.1471  -46.5705 N.am      13 UNK        -0.5000 
     75 CA          1.8256  -24.8097  -47.5705 C.3       13 UNK         0.1400 
     76 CB          2.9245  -23.8421  -48.0346 C.3       13 UNK        -0.1800 
     77 C           1.0164  -25.3365  -48.7720 C.2       13 UNK         0.5000 
     78 O           1.2726  -26.4439  -49.2452 O.2       13 UNK        -0.5000 
     79 N           0.0351  -24.5428  -49.2189 N.am      14 UNK        -0.5000 
     80 CA         -0.9063  -24.8752  -50.2872 C.3       14 UNK         0.1400 
     81 CB         -1.5811  -23.5767  -50.7504 C.3       14 UNK        -0.1800 
     82 C          -1.9902  -25.8866  -49.8714 C.2       14 UNK         0.5000 
     83 O          -2.6655  -26.4252  -50.7474 O.2       14 UNK        -0.5000 
     84 N          -2.1808  -26.0819  -48.5580 N.am      15 UNK        -0.5000 
     85 CA         -3.2723  -26.8338  -47.9284 C.3       15 UNK         0.1400 
     86 CB         -3.1573  -28.3416  -48.2339 C.3       15 UNK        -0.1800 
     87 C          -4.6536  -26.2374  -48.2802 C.2       15 UNK         0.5000 
     88 O          -5.5846  -26.9676  -48.6239 O.2       15 UNK        -0.5000 
     89 N          -4.7327  -24.9010  -48.2059 N.am      16 UNK        -0.5000 
     90 CA         -5.8839  -24.0389  -48.4893 C.3       16 UNK         0.1400 
     91 CB         -7.0465  -24.3327  -47.5189 C.3       16 UNK        -0.1800 
     92 C          -6.3338  -24.0109  -49.9669 C.2       16 UNK         0.5000 
     93 O          -7.4330  -23.5309  -50.2501 O.2       16 UNK        -0.5000 
     94 N          -5.4884  -24.4858  -50.8940 N.am      17 UNK        -0.5000 
     95 CA         -5.7090  -24.3830  -52.3364 C.3       17 UNK         0.1400 
     96 CB         -4.7895  -25.3706  -53.0724 C.3       17 UNK        -0.1800 
     97 C          -5.4607  -22.9371  -52.7982 C.2       17 UNK         0.5000 
     98 O          -4.3040  -22.5191  -52.8803 O.2       17 UNK        -0.5000 
     99 N          -6.5452  -22.1965  -53.0661 N.am      18 UNK        -0.5000 
    100 CA        -6.5601  -20.7588  -53.3659 C.3       18 UNK         0.1400 
    101 CB        -7.9996  -20.3223  -53.6751 C.3       18 UNK        -0.1800 
    102 C         -5.6124  -20.3202  -54.4980 C.2       18 UNK         0.5000 
    103 O         -4.9999  -19.2579  -54.3999 O.2       18 UNK        -0.5000 
    104 N         -5.4727  -21.1687  -55.5255 N.am      19 UNK        -0.5000 
    105 CA        -4.5876  -20.9593  -56.6733 C.3       19 UNK         0.1400 
    106 CB        -4.8384  -22.0723  -57.7023 C.3       19 UNK        -0.1800 
    107 C         -3.0893  -20.8894  -56.3115 C.2       19 UNK         0.5000 
    108 O         -2.3281  -20.2520  -57.0406 O.2       19 UNK        -0.5000 
    109 N         -2.6966  -21.5358  -55.2061 N.am      20 UNK        -0.5000 
    110 CA        -1.3378  -21.5138  -54.6698 C.3       20 UNK         0.1400 
    111 CB        -0.9109  -22.9485  -54.3230 C.3       20 UNK        -0.1800 
    112 C         -1.2355  -20.5912  -53.4433 C.2       20 UNK         0.5000 
    113 O         -0.2469  -19.8681  -53.3185 O.2       20 UNK        -0.5000 
    114 N         -2.2522  -20.6212  -52.5692 N.am      21 UNK        -0.5000 
    115 CA        -2.3168  -19.8555  -51.3236 C.3       21 UNK         0.1400 
    116 CB        -3.5708  -20.2673  -50.5367 C.3       21 UNK        -0.1800 
    117 C         -2.3287  -18.3349  -51.5405 C.2       21 UNK         0.5000 
    118 O         -1.5710  -17.6193  -50.8872 O.2       21 UNK        -0.5000 
    119 N         -3.1962  -17.8787  -52.4501 N.am      22 UNK        -0.5000 
    120 CA        -3.4808  -16.4563  -52.6831 C.3       22 UNK         0.1400 
    121 C         -2.5197  -15.7766  -53.7028 C.2       22 UNK         0.5000 
    122 N         -1.5051  -16.4583  -54.2223 N.am      22 UNK        -0.7600 
    123 O         -2.6955  -14.6067  -54.0308 O.2       22 UNK        -0.5000 
    124 C124       -4.9689  -16.2161  -53.0583 C.3       23 UNK        -0.0398 
    125 S125       -6.1822  -17.1074  -52.0154 S.3       23 UNK        -0.2404 
    126 C126       -6.4601  -15.9583  -50.6342 C.3       23 UNK        -0.0205 
    127 H127        1.7539  -14.7357  -51.7836 H         1 UNK         0.0600 
    128 H128        0.5185  -14.4347  -53.0012 H         1 UNK         0.0600 
    129 H129        0.2579  -15.6896  -51.7951 H         1 UNK         0.0600 
    130 H130       -0.2847  -13.0660  -49.1376 H         1 UNK         0.3000 
    131 H131        0.9377  -15.7071  -49.5338 H         1 UNK         0.0600 
    132 H132        0.0628  -14.1103  -47.0734 H         1 UNK         0.0800 
    133 H133        1.1075  -15.4942  -46.9182 H         1 UNK         0.0800 
    134 H134       -2.3174  -14.2872  -48.3505 H         1 UNK         0.0800 
    135 H135       -2.5564  -14.6300  -46.6493 H         1 UNK         0.0800 
    136 H136       -4.1570  -14.7742  -49.7588 H         1 UNK         0.1150 
    137 H137       -6.8816  -17.9510  -48.8279 H         1 UNK         0.1150 
    138 H138       -3.6012  -17.0925  -46.2042 H         1 UNK         0.1150 
    139 H139       -5.4592  -18.5823  -45.4764 H         1 UNK         0.0800 
    140 H140       -6.7896  -18.9141  -46.5502 H         1 UNK         0.0800 
    141 H141       -3.2804  -20.5502  -45.2757 H         1 UNK         0.0800 
    142 H142       -2.9877  -19.2002  -46.3240 H         1 UNK         0.0800 
    143 H143       -2.5782  -21.1998  -48.1380 H         1 UNK         0.0600 
    144 H144       -0.8145  -19.5244  -46.6676 H         1 UNK         0.3000 
    145 H145        2.1947  -20.6376  -48.1435 H         1 UNK         0.0600 
    146 H146        2.3796  -18.3639  -49.1187 H         1 UNK         0.0600 
    147 H147        1.3026  -19.3635  -50.0792 H         1 UNK         0.0600 
    148 H148        0.6289  -18.1533  -49.0050 H         1 UNK         0.0600 
    149 H149        1.6913  -18.2809  -46.6928 H         1 UNK         0.3000 
    150 H150        3.0690  -19.4162  -43.9110 H         1 UNK         0.0600 
    151 H151        3.0506  -17.3807  -45.3074 H         1 UNK         0.0600 
    152 H152        2.4828  -16.9958  -43.7017 H         1 UNK         0.0600 
    153 H153        1.3297  -17.1399  -45.0138 H         1 UNK         0.0600 
    154 H154        0.1687  -18.8463  -43.4796 H         1 UNK         0.3000 
    155 H155       -0.3572  -21.2948  -41.3489 H         1 UNK         0.0600 
    156 H156        0.4954  -18.8800  -39.6819 H         1 UNK         0.0600 
    157 H157        1.1265  -20.5119  -39.4834 H         1 UNK         0.0600 
    158 H158       -0.5700  -20.1837  -39.1785 H         1 UNK         0.0600 
    159 H159       -1.1121  -18.4094  -41.4621 H         1 UNK         0.3000 
    160 H160       -3.7425  -19.0223  -43.7400 H         1 UNK         0.0600 
    161 H161       -3.9693  -18.2446  -40.7909 H         1 UNK         0.0600 
    162 H162       -4.8592  -19.5477  -41.5703 H         1 UNK         0.0600 
    163 H163       -5.1426  -17.8847  -42.0587 H         1 UNK         0.0600 
    164 H164       -2.9709  -16.6638  -42.4143 H         1 UNK         0.3000 
    165 H165       -0.7495  -15.4837  -44.8613 H         1 UNK         0.0600 
    166 H166       -2.5156  -14.6827  -42.4917 H         1 UNK         0.0600 
    167 H167       -1.8061  -13.6289  -43.7053 H         1 UNK         0.0600 
    168 H168       -3.0710  -14.7565  -44.1631 H         1 UNK         0.0600 
    169 H169        0.8022  -14.9940  -43.3715 H         1 UNK         0.3000 
    170 H170        1.0038  -14.9077  -39.9515 H         1 UNK         0.0600 
    171 H171        1.9501  -17.1897  -39.9889 H         1 UNK         0.0600 
    172 H172        2.7985  -16.8614  -41.4907 H         1 UNK         0.0600 
    173 H173        3.2389  -16.0064  -40.0165 H         1 UNK         0.0600 
    174 H174        2.9598  -14.4085  -41.9928 H         1 UNK         0.3000 
    175 H175        1.6697  -11.6051  -43.4342 H         1 UNK         0.0600 
    176 H176        3.6249  -11.2016  -41.1059 H         1 UNK         0.0600 
    177 H177        3.4143  -10.1164  -42.4812 H         1 UNK         0.0600 
    178 H178        2.1105  -10.3336  -41.3267 H         1 UNK         0.0600 
    179 H179        4.3933  -12.3078  -43.1729 H         1 UNK         0.3000 
    180 H180        5.3433  -13.1523  -45.0928 H         1 UNK         0.0600 
    181 H181        6.3124  -15.4097  -44.5715 H         1 UNK         0.0600 
    182 H182        4.7374  -15.9784  -44.0275 H         1 UNK         0.0600 
    183 H183        5.5756  -14.7119  -43.1397 H         1 UNK         0.0600 
    184 H184        3.4921  -14.9264  -46.4682 H         1 UNK         0.3000 
    185 H185        5.0548  -14.3647  -49.5103 H         1 UNK         0.0600 
    186 H186        5.1850  -16.8016  -49.9862 H         1 UNK         0.0600 
    187 H187        6.5460  -16.3016  -48.9969 H         1 UNK         0.0600 
    188 H188        5.2008  -17.1623  -48.2589 H         1 UNK         0.0600 
    189 H189        3.0138  -16.2325  -48.8141 H         1 UNK         0.3000 
    190 H190       -0.6192  -21.7974  -45.2321 H         1 UNK         0.3000 
    191 H191       -1.7269  -24.4175  -44.6919 H         1 UNK         0.0600 
    192 H192        0.1962  -24.5742  -43.0997 H         1 UNK         0.0600 
    193 H193       -0.7185  -23.0934  -42.8813 H         1 UNK         0.0600 
    194 H194        0.8380  -23.0550  -43.7100 H         1 UNK         0.0600 
    195 H195        1.1211  -23.1531  -46.4369 H         1 UNK         0.3000 
    196 H196        2.3056  -25.6646  -47.0896 H         1 UNK         0.0600 
    197 H197        2.5086  -22.9817  -48.5584 H         1 UNK         0.0600 
    198 H198        3.5096  -23.4728  -47.1921 H         1 UNK         0.0600 
    199 H199        3.6143  -24.3379  -48.7186 H         1 UNK         0.0600 
    200 H200       -0.0522  -23.6083  -48.8273 H         1 UNK         0.3000 
    201 H201       -0.3541  -25.3023  -51.1266 H         1 UNK         0.0600 
    202 H202       -2.0908  -23.0820  -49.9238 H         1 UNK         0.0600 
    203 H203       -2.3274  -23.7675  -51.5199 H         1 UNK         0.0600 
    204 H204       -0.8539  -22.8777  -51.1629 H         1 UNK         0.0600 
    205 H205       -1.5811  -25.5742  -47.9219 H         1 UNK         0.3000 
    206 H206       -3.1486  -26.7056  -46.8520 H         1 UNK         0.0600 
    207 H207       -2.1715  -28.7223  -47.9664 H         1 UNK         0.0600 
    208 H208       -3.8912  -28.9110  -47.6626 H         1 UNK         0.0600 
    209 H209       -3.3262  -28.5590  -49.2888 H         1 UNK         0.0600 
    210 H210       -3.9043  -24.4039  -47.8797 H         1 UNK         0.3000 
    211 H211       -5.5385  -23.0268  -48.2788 H         1 UNK         0.0600 
    212 H212       -7.8330  -23.5829  -47.6107 H         1 UNK         0.0600 
    213 H213       -6.7078  -24.3170  -46.4829 H         1 UNK         0.0600 
    214 H214       -7.4996  -25.3055  -47.7111 H         1 UNK         0.0600 
    215 H215       -4.6066  -24.8793  -50.5971 H         1 UNK         0.3000 
    216 H216       -6.7417  -24.6602  -52.5585 H         1 UNK         0.0600 
    217 H217       -3.7349  -25.1464  -52.9117 H         1 UNK         0.0600 
    218 H218       -4.9683  -25.3401  -54.1477 H         1 UNK         0.0600 
    219 H219       -4.9654  -26.3941  -52.7409 H         1 UNK         0.0600 
    220 H220       -7.4509  -22.6251  -52.9387 H         1 UNK         0.3000 
    221 H221       -6.2469  -20.2386  -52.4610 H         1 UNK         0.0600 
    222 H222       -8.6613  -20.5189  -52.8313 H         1 UNK         0.0600 
    223 H223       -8.4002  -20.8417  -54.5464 H         1 UNK         0.0600 
    224 H224       -8.0471  -19.2515  -53.8788 H         1 UNK         0.0600 
    225 H225       -6.0036  -22.0269  -55.5115 H         1 UNK         0.3000 
    226 H226       -4.8567  -20.0041  -57.1289 H         1 UNK         0.0600 
    227 H227       -4.6119  -23.0572  -57.2917 H         1 UNK         0.0600 
    228 H228       -5.8764  -22.0764  -58.0352 H         1 UNK         0.0600 
    229 H229       -4.2156  -21.9345  -58.5872 H         1 UNK         0.0600 
    230 H230       -3.3971  -21.9987  -54.6380 H         1 UNK         0.3000 
    231 H231       -0.6368  -21.1355  -55.4167 H         1 UNK         0.0600 
    232 H232       -1.6409  -23.4431  -53.6839 H         1 UNK         0.0600 
    233 H233        0.0498  -22.9631  -53.8064 H         1 UNK         0.0600 
    234 H234       -0.8045  -23.5505  -55.2254 H         1 UNK         0.0600 
    235 H235       -3.0183  -21.2706  -52.7322 H         1 UNK         0.3000 
    236 H236       -1.4366  -20.1071  -50.7287 H         1 UNK         0.0600 
    237 H237       -3.5727  -21.3301  -50.3004 H         1 UNK         0.0600 
    238 H238       -3.6359  -19.7131  -49.6000 H         1 UNK         0.0600 
    239 H239       -4.4814  -20.0529  -51.0926 H         1 UNK         0.0600 
    240 H240       -3.7633  -18.5299  -52.9831 H         1 UNK         0.3000 
    241 H241       -3.3109  -15.9280  -51.7441 H         1 UNK         0.0600 
    242 H242       -0.8930  -16.0121  -54.8862 H         1 UNK         0.3800 
    243 H243       -1.3387  -17.4127  -53.9423 H         1 UNK         0.3800 
    244 H244       -5.1433  -16.5363  -54.0868 H         1 UNK         0.0800 
    245 H245       -5.1994  -15.1499  -53.0393 H         1 UNK         0.0800 
    246 H246       -6.2753  -14.9304  -50.9488 H         1 UNK         0.0800 
    247 H247       -7.5146  -16.0005  -50.3580 H         1 UNK         0.0800 
@<TRIPOS>BOND
     1    1    2 1    
     2    1  127 1    
     3    1  128 1    
     4    1  129 1    
     5    2    3 2    
     6    2    4 am   BACKBONE|DICT|INTERRES
     7    4    5 1    
     8    4  130 1    
     9    5    6 1    
    10    5   65 1    
    11    5  131 1    
    12    6    7 1    
    13    6  132 1    
    14    6  133 1    
    15    7    8 1    
    16    8    9 1    
    17    8  134 1    
    18    8  135 1    
    19    9   10 ar   
    20    9   14 ar   
    21   10   11 ar   
    22   10  136 1    
    23   11   12 ar   
    24   11  126 1    
    25   12   13 ar   
    26   12  137 1    
    27   13   14 ar   
    28   13   15 1    
    29   14  138 1    
    30   15   16 1    
    31   15  139 1    
    32   15  140 1    
    33   16   17 1    
    34   17   18 1    
    35   17  141 1    
    36   17  142 1    
    37   18   19 1    
    38   18   67 1    
    39   18  143 1    
    40   19   20 am   BACKBONE|DICT|INTERRES
    41   19  144 1    
    42   20   21 2    
    43   20   22 1    
    44   22   23 1    
    45   22   24 1    
    46   22  145 1    
    47   23  146 1    
    48   23  147 1    
    49   23  148 1    
    50   24   25 am   BACKBONE|DICT|INTERRES
    51   24  149 1    
    52   25   26 2    
    53   25   27 1    
    54   27   28 1    
    55   27   29 1    
    56   27  150 1    
    57   28  151 1    
    58   28  152 1    
    59   28  153 1    
    60   29   30 am   BACKBONE|DICT|INTERRES
    61   29  154 1    
    62   30   31 2    
    63   30   32 1    
    64   32   33 1    
    65   32   34 1    
    66   32  155 1    
    67   33  156 1    
    68   33  157 1    
    69   33  158 1    
    70   34   35 am   BACKBONE|DICT|INTERRES
    71   34  159 1    
    72   35   36 2    
    73   35   37 1    
    74   37   38 1    
    75   37   39 1    
    76   37  160 1    
    77   38  161 1    
    78   38  162 1    
    79   38  163 1    
    80   39   40 am   BACKBONE|DICT|INTERRES
    81   39  164 1    
    82   40   41 2    
    83   40   42 1    
    84   42   43 1    
    85   42   44 1    
    86   42  165 1    
    87   43  166 1    
    88   43  167 1    
    89   43  168 1    
    90   44   45 am   BACKBONE|DICT|INTERRES
    91   44  169 1    
    92   45   46 2    
    93   45   47 1    
    94   47   48 1    
    95   47   49 1    
    96   47  170 1    
    97   48  171 1    
    98   48  172 1    
    99   48  173 1    
   100   49   50 am   BACKBONE|DICT|INTERRES
   101   49  174 1    
   102   50   51 2    
   103   50   52 1    
   104   52   53 1    
   105   52   54 1    
   106   52  175 1    
   107   53  176 1    
   108   53  177 1    
   109   53  178 1    
   110   54   55 am   BACKBONE|DICT|INTERRES
   111   54  179 1    
   112   55   56 2    
   113   55   57 1    
   114   57   58 1    
   115   57   59 1    
   116   57  180 1    
   117   58  181 1    
   118   58  182 1    
   119   58  183 1    
   120   59   60 am   BACKBONE|DICT|INTERRES
   121   59  184 1    
   122   60   61 2    
   123   60   62 1    
   124   62   63 1    
   125   62   64 1    
   126   62  185 1    
   127   63  186 1    
   128   63  187 1    
   129   63  188 1    
   130   64   65 am   BACKBONE|DICT|INTERRES
   131   64  189 1    
   132   65   66 2    
   133   67   68 2    
   134   67   69 am   BACKBONE|DICT|INTERRES
   135   69   70 1    
   136   69  190 1    
   137   70   71 1    
   138   70   72 1    
   139   70  191 1    
   140   71  192 1    
   141   71  193 1    
   142   71  194 1    
   143   72   73 2    
   144   72   74 am   BACKBONE|DICT|INTERRES
   145   74   75 1    
   146   74  195 1    
   147   75   76 1    
   148   75   77 1    
   149   75  196 1    
   150   76  197 1    
   151   76  198 1    
   152   76  199 1    
   153   77   78 2    
   154   77   79 am   BACKBONE|DICT|INTERRES
   155   79   80 1    
   156   79  200 1    
   157   80   81 1    
   158   80   82 1    
   159   80  201 1    
   160   81  202 1    
   161   81  203 1    
   162   81  204 1    
   163   82   83 2    
   164   82   84 am   BACKBONE|DICT|INTERRES
   165   84   85 1    
   166   84  205 1    
   167   85   86 1    
   168   85   87 1    
   169   85  206 1    
   170   86  207 1    
   171   86  208 1    
   172   86  209 1    
   173   87   88 2    
   174   87   89 am   BACKBONE|DICT|INTERRES
   175   89   90 1    
   176   89  210 1    
   177   90   91 1    
   178   90   92 1    
   179   90  211 1    
   180   91  212 1    
   181   91  213 1    
   182   91  214 1    
   183   92   93 2    
   184   92   94 am   BACKBONE|DICT|INTERRES
   185   94   95 1    
   186   94  215 1    
   187   95   96 1    
   188   95   97 1    
   189   95  216 1    
   190   96  217 1    
   191   96  218 1    
   192   96  219 1    
   193   97   98 2    
   194   97   99 am   BACKBONE|DICT|INTERRES
   195   99  100 1    
   196   99  220 1    
   197  100  101 1    
   198  100  102 1    
   199  100  221 1    
   200  101  222 1    
   201  101  223 1    
   202  101  224 1    
   203  102  103 2    
   204  102  104 am   BACKBONE|DICT|INTERRES
   205  104  105 1    
   206  104  225 1    
   207  105  106 1    
   208  105  107 1    
   209  105  226 1    
   210  106  227 1    
   211  106  228 1    
   212  106  229 1    
   213  107  108 2    
   214  107  109 am   BACKBONE|DICT|INTERRES
   215  109  110 1    
   216  109  230 1    
   217  110  111 1    
   218  110  112 1    
   219  110  231 1    
   220  111  232 1    
   221  111  233 1    
   222  111  234 1    
   223  112  113 2    
   224  112  114 am   BACKBONE|DICT|INTERRES
   225  114  115 1    
   226  114  235 1    
   227  115  116 1    
   228  115  117 1    
   229  115  236 1    
   230  116  237 1    
   231  116  238 1    
   232  116  239 1    
   233  117  118 2    
   234  117  119 am   BACKBONE|DICT|INTERRES
   235  119  120 1    
   236  119  240 1    
   237  120  121 1    
   238  120  124 1    
   239  120  241 1    
   240  121  122 am   BACKBONE|DICT|INTERRES
   241  121  123 2    
   242  122  242 1    
   243  122  243 1    
   244  124  125 1    
   245  124  244 1    
   246  124  245 1    
   247  125  126 1    
   248  126  246 1    
   249  126  247 1    
@<TRIPOS>SUBSTRUCTURE
     1 UNK         1 GROUP             0       ****    0 ROOT    
