@<TRIPOS>MOLECULE
3R540
247   249    1
SMALL
USER_CHARGES


@<TRIPOS>ATOM
      1 CA          3.4503   -9.5826  -50.0110 C.3       0 UNK        -0.1800 
      2 C           3.3815  -10.8625  -49.1900 C.2       0 UNK         0.5000 
      3 O           3.6441  -10.8340  -47.9889 O.2       0 UNK        -0.5000 
      4 N           3.0364  -11.9826  -49.8361 N.am      1 UNK        -0.5000 
      5 CA          2.8633  -13.3022  -49.2156 C.3       1 UNK         0.1400 
      6 C6          2.9116  -14.4410  -50.2660 C.3       23 UNK        -0.0398 
      7 S7          1.7656  -14.1982  -51.6741 S.3       23 UNK        -0.2404 
      8 C8          0.9584  -15.8230  -51.8111 C.3       23 UNK        -0.0205 
      9 C9          0.0018  -16.1056  -50.6628 C.ar      23 UNK        -0.0193 
     10 C10        -1.2375  -15.4630  -50.6055 C.ar      23 UNK        -0.1150 
     11 C11        -2.1518  -15.7682  -49.5940 C.ar      23 UNK        -0.0193 
     12 C12        -1.8081  -16.7169  -48.6270 C.ar      23 UNK        -0.1150 
     13 C13        -0.5670  -17.3604  -48.6610 C.ar      23 UNK        -0.0193 
     14 C14         0.3375  -17.0403  -49.6804 C.ar      23 UNK        -0.1150 
     15 C15        -0.2313  -18.3569  -47.5558 C.3       23 UNK        -0.0205 
     16 S16         0.9851  -19.6457  -47.9996 S.3       23 UNK        -0.2404 
     17 C17         1.1766  -20.4857  -46.3889 C.3       23 UNK        -0.0398 
     18 CA          0.4126  -21.8261  -46.2744 C.3       11 UNK         0.1400 
     19 N           0.7878  -22.5456  -45.0531 N.am      11 UNK        -0.5000 
     20 C           0.4403  -23.8101  -44.7742 C.2       10 UNK         0.5000 
     21 O          -0.2202  -24.5209  -45.5296 O.2       10 UNK        -0.5000 
     22 CA          0.8518  -24.3480  -43.3923 C.3       10 UNK         0.1400 
     23 CB          2.3221  -24.7915  -43.3959 C.3       10 UNK        -0.1800 
     24 N           0.6395  -23.3817  -42.3126 N.am      10 UNK        -0.5000 
     25 C          -0.5387  -22.8462  -41.9705 C.2       9 UNK         0.5000 
     26 O          -1.5897  -23.0930  -42.5612 O.2       9 UNK        -0.5000 
     27 CA         -0.5572  -21.8422  -40.8040 C.3       9 UNK         0.1400 
     28 CB         -0.7501  -22.5582  -39.4545 C.3       9 UNK        -0.1800 
     29 N           0.5832  -20.9169  -40.7722 N.am      9 UNK        -0.5000 
     30 C           1.8750  -21.1596  -40.4976 C.2       8 UNK         0.5000 
     31 O           2.3183  -22.2844  -40.2633 O.2       8 UNK        -0.5000 
     32 CA          2.8509  -19.9629  -40.5219 C.3       8 UNK         0.1400 
     33 CB          3.9050  -20.1507  -41.6251 C.3       8 UNK        -0.1800 
     34 N           2.1791  -18.6745  -40.7144 N.am      8 UNK        -0.5000 
     35 C           1.5350  -18.0011  -39.7479 C.2       7 UNK         0.5000 
     36 O           1.5234  -18.3577  -38.5693 O.2       7 UNK        -0.5000 
     37 CA          0.7432  -16.7388  -40.1548 C.3       7 UNK         0.1400 
     38 CB          1.5270  -15.4716  -39.7812 C.3       7 UNK        -0.1800 
     39 N           0.3913  -16.6740  -41.5751 N.am      7 UNK        -0.5000 
     40 C          -0.3625  -17.5606  -42.2405 C.2       6 UNK         0.5000 
     41 O          -0.8993  -18.5347  -41.7138 O.2       6 UNK        -0.5000 
     42 CA         -0.4689  -17.3730  -43.7649 C.3       6 UNK         0.1400 
     43 CB         -1.7169  -16.5622  -44.1377 C.3       6 UNK        -0.1800 
     44 N           0.7182  -16.7436  -44.3513 N.am      6 UNK        -0.5000 
     45 C           1.9444  -17.2881  -44.3656 C.2       5 UNK         0.5000 
     46 O           2.2088  -18.3742  -43.8520 O.2       5 UNK        -0.5000 
     47 CA          3.0580  -16.4802  -45.0506 C.3       5 UNK         0.1400 
     48 CB          3.1687  -16.8559  -46.5362 C.3       5 UNK        -0.1800 
     49 N           2.8375  -15.0396  -44.9187 N.am      5 UNK        -0.5000 
     50 C           3.1397  -14.3479  -43.8112 C.2       4 UNK         0.5000 
     51 O           3.6743  -14.8457  -42.8198 O.2       4 UNK        -0.5000 
     52 CA          2.7614  -12.8573  -43.7945 C.3       4 UNK         0.1400 
     53 CB          3.7110  -12.0471  -44.6886 C.3       4 UNK        -0.1800 
     54 N           1.3797  -12.5990  -44.1988 N.am      4 UNK        -0.5000 
     55 C           0.2796  -13.0593  -43.5901 C.2       3 UNK         0.5000 
     56 O           0.3035  -13.8319  -42.6325 O.2       3 UNK        -0.5000 
     57 CA         -1.0825  -12.6063  -44.1563 C.3       3 UNK         0.1400 
     58 CB         -1.4523  -11.1914  -43.6709 C.3       3 UNK        -0.1800 
     59 N          -1.1882  -12.7377  -45.6165 N.am      3 UNK        -0.5000 
     60 C          -0.5421  -12.0445  -46.5634 C.2       2 UNK         0.5000 
     61 O           0.2016  -11.0870  -46.3377 O.2       2 UNK        -0.5000 
     62 CA         -0.7256  -12.5399  -48.0085 C.3       2 UNK         0.1400 
     63 CB         -1.6690  -11.6143  -48.7904 C.3       2 UNK        -0.1800 
     64 N           0.5501  -12.6318  -48.7157 N.am      2 UNK        -0.5000 
     65 C           1.5944  -13.3853  -48.3402 C.2       1 UNK         0.5000 
     66 O           1.5948  -14.1085  -47.3420 O.2       1 UNK        -0.5000 
     67 C          -1.1135  -21.6163  -46.3623 C.2       11 UNK         0.5000 
     68 O          -1.6859  -21.7747  -47.4405 O.2       11 UNK        -0.5000 
     69 N          -1.7431  -21.2772  -45.2276 N.am      12 UNK        -0.5000 
     70 CA         -3.1865  -21.0662  -45.1206 C.3       12 UNK         0.1400 
     71 CB         -3.5164  -20.4069  -43.7727 C.3       12 UNK        -0.1800 
     72 C          -3.9734  -22.3741  -45.3106 C.2       12 UNK         0.5000 
     73 O          -4.9595  -22.3851  -46.0469 O.2       12 UNK        -0.5000 
     74 N          -3.4898  -23.4598  -44.6904 N.am      13 UNK        -0.5000 
     75 CA         -4.0265  -24.8148  -44.8280 C.3       13 UNK         0.1400 
     76 CB         -3.3293  -25.7410  -43.8201 C.3       13 UNK        -0.1800 
     77 C          -3.8935  -25.3674  -46.2599 C.2       13 UNK         0.5000 
     78 O          -4.8192  -26.0136  -46.7516 O.2       13 UNK        -0.5000 
     79 N          -2.7595  -25.0768  -46.9116 N.am      14 UNK        -0.5000 
     80 CA         -2.4823  -25.4303  -48.3042 C.3       14 UNK         0.1400 
     81 CB         -0.9636  -25.3832  -48.5366 C.3       14 UNK        -0.1800 
     82 C          -3.1944  -24.5262  -49.3284 C.2       14 UNK         0.5000 
     83 O          -3.1783  -24.8587  -50.5122 O.2       14 UNK        -0.5000 
     84 N          -3.7585  -23.3927  -48.8807 N.am      15 UNK        -0.5000 
     85 CA         -4.3561  -22.3150  -49.6816 C.3       15 UNK         0.1400 
     86 CB         -5.6795  -22.7832  -50.3162 C.3       15 UNK        -0.1800 
     87 C          -3.3624  -21.7385  -50.7141 C.2       15 UNK         0.5000 
     88 O          -3.7191  -21.5103  -51.8740 O.2       15 UNK        -0.5000 
     89 N          -2.1076  -21.5799  -50.2714 N.am      16 UNK        -0.5000 
     90 CA         -0.8822  -21.2999  -51.0262 C.3       16 UNK         0.1400 
     91 CB         -0.9433  -19.9456  -51.7542 C.3       16 UNK        -0.1800 
     92 C          -0.4752  -22.4379  -51.9828 C.2       16 UNK         0.5000 
     93 O           0.6610  -22.9069  -51.9071 O.2       16 UNK        -0.5000 
     94 N          -1.3982  -22.8701  -52.8490 N.am      17 UNK        -0.5000 
     95 CA         -1.2079  -23.9325  -53.8319 C.3       17 UNK         0.1400 
     96 CB         -0.3428  -23.4334  -55.0087 C.3       17 UNK        -0.1800 
     97 C          -2.5682  -24.5011  -54.2708 C.2       17 UNK         0.5000 
     98 O          -2.8657  -24.5380  -55.4665 O.2       17 UNK        -0.5000 
     99 N          -3.3738  -24.9297  -53.2884 N.am      18 UNK        -0.5000 
    100 CA        -4.6576  -25.6260  -53.4136 C.3       18 UNK         0.1400 
    101 CB        -4.4234  -27.0827  -53.8713 C.3       18 UNK        -0.1800 
    102 C         -5.6689  -24.8570  -54.2847 C.2       18 UNK         0.5000 
    103 O         -6.2386  -23.8682  -53.8210 O.2       18 UNK        -0.5000 
    104 N         -5.8426  -25.3004  -55.5379 N.am      19 UNK        -0.5000 
    105 CA        -6.7101  -24.7093  -56.5596 C.3       19 UNK         0.1400 
    106 CB        -6.6792  -25.6035  -57.8088 C.3       19 UNK        -0.1800 
    107 C         -6.3663  -23.2515  -56.9295 C.2       19 UNK         0.5000 
    108 O         -7.2189  -22.5618  -57.4903 O.2       19 UNK        -0.5000 
    109 N         -5.1496  -22.7959  -56.5927 N.am      20 UNK        -0.5000 
    110 CA        -4.7328  -21.3956  -56.6803 C.3       20 UNK         0.1400 
    111 CB        -3.2376  -21.2884  -56.3502 C.3       20 UNK        -0.1800 
    112 C         -5.5411  -20.4609  -55.7584 C.2       20 UNK         0.5000 
    113 O         -5.7071  -19.2897  -56.1005 O.2       20 UNK        -0.5000 
    114 N         -6.0261  -20.9884  -54.6208 N.am      21 UNK        -0.5000 
    115 CA        -6.8743  -20.3239  -53.6251 C.3       21 UNK         0.1400 
    116 CB        -8.3081  -20.1782  -54.1740 C.3       21 UNK        -0.1800 
    117 C         -6.2799  -18.9890  -53.1276 C.2       21 UNK         0.5000 
    118 O         -6.9337  -17.9479  -53.2100 O.2       21 UNK        -0.5000 
    119 N         -5.0211  -19.0466  -52.6741 N.am      22 UNK        -0.5000 
    120 CA        -4.1642  -17.9068  -52.2966 C.3       22 UNK         0.1400 
    121 C         -3.5968  -17.0984  -53.5137 C.2       22 UNK         0.5000 
    122 N         -4.0524  -17.3012  -54.7440 N.am      22 UNK        -0.7600 
    123 O         -2.6562  -16.3254  -53.3670 O.2       22 UNK        -0.5000 
    124 C124       -4.7436  -17.0921  -51.0829 C.3       23 UNK        -0.0398 
    125 S125       -4.5129  -15.2762  -51.0238 S.3       23 UNK        -0.2404 
    126 C126       -3.4998  -15.0598  -49.5237 C.3       23 UNK        -0.0205 
    127 H127        3.2020   -9.7581  -51.0580 H         1 UNK         0.0600 
    128 H128        2.7517   -8.8457  -49.6147 H         1 UNK         0.0600 
    129 H129        4.4545   -9.1612  -49.9656 H         1 UNK         0.0600 
    130 H130        2.8418  -11.9473  -50.8273 H         1 UNK         0.3000 
    131 H131        3.7072  -13.4566  -48.5394 H         1 UNK         0.0600 
    132 H132        2.7325  -15.4067  -49.7910 H         1 UNK         0.0800 
    133 H133        3.9202  -14.5053  -50.6761 H         1 UNK         0.0800 
    134 H134        1.7195  -16.6013  -51.8854 H         1 UNK         0.0800 
    135 H135        0.3997  -15.8573  -52.7478 H         1 UNK         0.0800 
    136 H136       -1.4994  -14.7380  -51.3634 H         1 UNK         0.1150 
    137 H137       -2.5074  -16.9502  -47.8364 H         1 UNK         0.1150 
    138 H138        1.3027  -17.5232  -49.7210 H         1 UNK         0.1150 
    139 H139        0.1478  -17.7889  -46.7112 H         1 UNK         0.0800 
    140 H140       -1.1464  -18.8452  -47.2195 H         1 UNK         0.0800 
    141 H141        2.2442  -20.6613  -46.2493 H         1 UNK         0.0800 
    142 H142        0.8823  -19.8129  -45.5847 H         1 UNK         0.0800 
    143 H143        0.7035  -22.4525  -47.1206 H         1 UNK         0.0600 
    144 H144        1.3260  -22.0359  -44.3681 H         1 UNK         0.3000 
    145 H145        0.2315  -25.2213  -43.1807 H         1 UNK         0.0600 
    146 H146        2.5937  -25.2598  -42.4496 H         1 UNK         0.0600 
    147 H147        2.5083  -25.5218  -44.1845 H         1 UNK         0.0600 
    148 H148        2.9975  -23.9507  -43.5587 H         1 UNK         0.0600 
    149 H149        1.4417  -23.1391  -41.7385 H         1 UNK         0.3000 
    150 H150       -1.4332  -21.2104  -40.9598 H         1 UNK         0.0600 
    151 H151       -1.6705  -23.1434  -39.4554 H         1 UNK         0.0600 
    152 H152       -0.8209  -21.8423  -38.6356 H         1 UNK         0.0600 
    153 H153        0.0683  -23.2435  -39.2325 H         1 UNK         0.0600 
    154 H154        0.3303  -19.9598  -40.9962 H         1 UNK         0.3000 
    155 H155        3.3701  -19.9462  -39.5614 H         1 UNK         0.0600 
    156 H156        4.5240  -21.0264  -41.4263 H         1 UNK         0.0600 
    157 H157        4.5717  -19.2906  -41.6895 H         1 UNK         0.0600 
    158 H158        3.4457  -20.2956  -42.6030 H         1 UNK         0.0600 
    159 H159        2.1385  -18.3300  -41.6665 H         1 UNK         0.3000 
    160 H160       -0.1889  -16.7454  -39.5864 H         1 UNK         0.0600 
    161 H161        2.4563  -15.3946  -40.3468 H         1 UNK         0.0600 
    162 H162        0.9411  -14.5731  -39.9761 H         1 UNK         0.0600 
    163 H163        1.7848  -15.4666  -38.7214 H         1 UNK         0.0600 
    164 H164        0.7419  -15.8707  -42.0842 H         1 UNK         0.3000 
    165 H165       -0.5702  -18.3660  -44.2069 H         1 UNK         0.0600 
    166 H166       -2.6229  -17.0555  -43.7846 H         1 UNK         0.0600 
    167 H167       -1.6948  -15.5708  -43.6892 H         1 UNK         0.0600 
    168 H168       -1.8093  -16.4464  -45.2178 H         1 UNK         0.0600 
    169 H169        0.5983  -15.8330  -44.7689 H         1 UNK         0.3000 
    170 H170        4.0030  -16.7430  -44.5700 H         1 UNK         0.0600 
    171 H171        3.3822  -17.9190  -46.6540 H         1 UNK         0.0600 
    172 H172        2.2476  -16.6470  -47.0797 H         1 UNK         0.0600 
    173 H173        3.9741  -16.3059  -47.0230 H         1 UNK         0.0600 
    174 H174        2.3937  -14.5703  -45.7057 H         1 UNK         0.3000 
    175 H175        2.8728  -12.4997  -42.7689 H         1 UNK         0.0600 
    176 H176        3.6251  -12.3435  -45.7345 H         1 UNK         0.0600 
    177 H177        3.4993  -10.9795  -44.6265 H         1 UNK         0.0600 
    178 H178        4.7499  -12.1916  -44.3899 H         1 UNK         0.0600 
    179 H179        1.2425  -11.9834  -44.9955 H         1 UNK         0.3000 
    180 H180       -1.8343  -13.2810  -43.7465 H         1 UNK         0.0600 
    181 H181       -1.5016  -11.1588  -42.5819 H         1 UNK         0.0600 
    182 H182       -0.7231  -10.4431  -43.9817 H         1 UNK         0.0600 
    183 H183       -2.4281  -10.8872  -44.0495 H         1 UNK         0.0600 
    184 H184       -1.7632  -13.5100  -45.9220 H         1 UNK         0.3000 
    185 H185       -1.1577  -13.5418  -47.9869 H         1 UNK         0.0600 
    186 H186       -2.6449  -11.5530  -48.3071 H         1 UNK         0.0600 
    187 H187       -1.2715  -10.6008  -48.8585 H         1 UNK         0.0600 
    188 H188       -1.8304  -11.9804  -49.8046 H         1 UNK         0.0600 
    189 H189        0.6575  -12.0487  -49.5314 H         1 UNK         0.3000 
    190 H190       -1.2147  -21.2327  -44.3697 H         1 UNK         0.3000 
    191 H191       -3.4853  -20.3780  -45.9144 H         1 UNK         0.0600 
    192 H192       -4.5813  -20.1827  -43.7012 H         1 UNK         0.0600 
    193 H193       -2.9782  -19.4679  -43.6494 H         1 UNK         0.0600 
    194 H194       -3.2617  -21.0492  -42.9300 H         1 UNK         0.0600 
    195 H195       -2.6976  -23.3486  -44.0619 H         1 UNK         0.3000 
    196 H196       -5.0897  -24.7799  -44.5818 H         1 UNK         0.0600 
    197 H197       -3.7249  -26.7555  -43.8818 H         1 UNK         0.0600 
    198 H198       -3.4792  -25.3940  -42.7975 H         1 UNK         0.0600 
    199 H199       -2.2549  -25.7945  -43.9994 H         1 UNK         0.0600 
    200 H200       -2.0133  -24.6044  -46.4105 H         1 UNK         0.3000 
    201 H201       -2.8221  -26.4531  -48.4797 H         1 UNK         0.0600 
    202 H202       -0.4402  -26.0643  -47.8655 H         1 UNK         0.0600 
    203 H203       -0.5651  -24.3806  -48.3760 H         1 UNK         0.0600 
    204 H204       -0.7109  -25.6762  -49.5566 H         1 UNK         0.0600 
    205 H205       -3.6879  -23.2018  -47.8900 H         1 UNK         0.3000 
    206 H206       -4.5853  -21.5062  -48.9864 H         1 UNK         0.0600 
    207 H207       -6.3443  -23.2154  -49.5684 H         1 UNK         0.0600 
    208 H208       -6.2066  -21.9462  -50.7722 H         1 UNK         0.0600 
    209 H209       -5.5152  -23.5309  -51.0922 H         1 UNK         0.0600 
    210 H210       -1.9511  -21.7768  -49.2843 H         1 UNK         0.3000 
    211 H211       -0.0948  -21.2280  -50.2754 H         1 UNK         0.0600 
    212 H212       -1.6618  -19.9525  -52.5737 H         1 UNK         0.0600 
    213 H213        0.0283  -19.6926  -52.1797 H         1 UNK         0.0600 
    214 H214       -1.2115  -19.1440  -51.0667 H         1 UNK         0.0600 
    215 H215       -2.3257  -22.4558  -52.7978 H         1 UNK         0.3000 
    216 H216       -0.6787  -24.7577  -53.3510 H         1 UNK         0.0600 
    217 H217        0.6605  -23.1648  -54.6786 H         1 UNK         0.0600 
    218 H218       -0.7790  -22.5572  -55.4867 H         1 UNK         0.0600 
    219 H219       -0.2307  -24.2054  -55.7709 H         1 UNK         0.0600 
    220 H220       -3.0743  -24.8050  -52.3222 H         1 UNK         0.3000 
    221 H221       -5.0883  -25.6642  -52.4121 H         1 UNK         0.0600 
    222 H222       -3.9076  -27.1393  -54.8305 H         1 UNK         0.0600 
    223 H223       -3.8174  -27.6219  -53.1431 H         1 UNK         0.0600 
    224 H224       -5.3662  -27.6233  -53.9650 H         1 UNK         0.0600 
    225 H225       -5.2877  -26.0905  -55.8331 H         1 UNK         0.3000 
    226 H226       -7.7273  -24.7074  -56.1632 H         1 UNK         0.0600 
    227 H227       -7.0100  -26.6165  -57.5784 H         1 UNK         0.0600 
    228 H228       -7.3411  -25.2165  -58.5847 H         1 UNK         0.0600 
    229 H229       -5.6762  -25.6646  -58.2331 H         1 UNK         0.0600 
    230 H230       -4.4911  -23.4422  -56.1700 H         1 UNK         0.3000 
    231 H231       -4.8840  -21.0638  -57.7095 H         1 UNK         0.0600 
    232 H232       -3.0345  -21.5823  -55.3198 H         1 UNK         0.0600 
    233 H233       -2.6416  -21.9214  -57.0077 H         1 UNK         0.0600 
    234 H234       -2.8827  -20.2642  -56.4731 H         1 UNK         0.0600 
    235 H235       -5.8446  -21.9697  -54.4337 H         1 UNK         0.3000 
    236 H236       -6.9184  -20.9888  -52.7629 H         1 UNK         0.0600 
    237 H237       -8.7133  -21.1450  -54.4729 H         1 UNK         0.0600 
    238 H238       -8.9769  -19.7651  -53.4181 H         1 UNK         0.0600 
    239 H239       -8.3440  -19.5185  -55.0417 H         1 UNK         0.0600 
    240 H240       -4.5670  -19.9557  -52.6365 H         1 UNK         0.3000 
    241 H241       -3.2702  -18.3870  -51.9049 H         1 UNK         0.0600 
    242 H242       -3.6400  -16.7834  -55.5028 H         1 UNK         0.3800 
    243 H243       -4.7978  -17.9594  -54.9413 H         1 UNK         0.3800 
    244 H244       -4.3581  -17.5253  -50.1594 H         1 UNK         0.0800 
    245 H245       -5.8203  -17.2356  -51.0051 H         1 UNK         0.0800 
    246 H246       -3.3294  -13.9939  -49.3738 H         1 UNK         0.0800 
    247 H247       -4.0746  -15.4003  -48.6612 H         1 UNK         0.0800 
@<TRIPOS>BOND
     1    1    2 1    
     2    1  127 1    
     3    1  128 1    
     4    1  129 1    
     5    2    3 2    
     6    2    4 am   BACKBONE|DICT|INTERRES
     7    4    5 1    
     8    4  130 1    
     9    5    6 1    
    10    5   65 1    
    11    5  131 1    
    12    6    7 1    
    13    6  132 1    
    14    6  133 1    
    15    7    8 1    
    16    8    9 1    
    17    8  134 1    
    18    8  135 1    
    19    9   10 ar   
    20    9   14 ar   
    21   10   11 ar   
    22   10  136 1    
    23   11   12 ar   
    24   11  126 1    
    25   12   13 ar   
    26   12  137 1    
    27   13   14 ar   
    28   13   15 1    
    29   14  138 1    
    30   15   16 1    
    31   15  139 1    
    32   15  140 1    
    33   16   17 1    
    34   17   18 1    
    35   17  141 1    
    36   17  142 1    
    37   18   19 1    
    38   18   67 1    
    39   18  143 1    
    40   19   20 am   BACKBONE|DICT|INTERRES
    41   19  144 1    
    42   20   21 2    
    43   20   22 1    
    44   22   23 1    
    45   22   24 1    
    46   22  145 1    
    47   23  146 1    
    48   23  147 1    
    49   23  148 1    
    50   24   25 am   BACKBONE|DICT|INTERRES
    51   24  149 1    
    52   25   26 2    
    53   25   27 1    
    54   27   28 1    
    55   27   29 1    
    56   27  150 1    
    57   28  151 1    
    58   28  152 1    
    59   28  153 1    
    60   29   30 am   BACKBONE|DICT|INTERRES
    61   29  154 1    
    62   30   31 2    
    63   30   32 1    
    64   32   33 1    
    65   32   34 1    
    66   32  155 1    
    67   33  156 1    
    68   33  157 1    
    69   33  158 1    
    70   34   35 am   BACKBONE|DICT|INTERRES
    71   34  159 1    
    72   35   36 2    
    73   35   37 1    
    74   37   38 1    
    75   37   39 1    
    76   37  160 1    
    77   38  161 1    
    78   38  162 1    
    79   38  163 1    
    80   39   40 am   BACKBONE|DICT|INTERRES
    81   39  164 1    
    82   40   41 2    
    83   40   42 1    
    84   42   43 1    
    85   42   44 1    
    86   42  165 1    
    87   43  166 1    
    88   43  167 1    
    89   43  168 1    
    90   44   45 am   BACKBONE|DICT|INTERRES
    91   44  169 1    
    92   45   46 2    
    93   45   47 1    
    94   47   48 1    
    95   47   49 1    
    96   47  170 1    
    97   48  171 1    
    98   48  172 1    
    99   48  173 1    
   100   49   50 am   BACKBONE|DICT|INTERRES
   101   49  174 1    
   102   50   51 2    
   103   50   52 1    
   104   52   53 1    
   105   52   54 1    
   106   52  175 1    
   107   53  176 1    
   108   53  177 1    
   109   53  178 1    
   110   54   55 am   BACKBONE|DICT|INTERRES
   111   54  179 1    
   112   55   56 2    
   113   55   57 1    
   114   57   58 1    
   115   57   59 1    
   116   57  180 1    
   117   58  181 1    
   118   58  182 1    
   119   58  183 1    
   120   59   60 am   BACKBONE|DICT|INTERRES
   121   59  184 1    
   122   60   61 2    
   123   60   62 1    
   124   62   63 1    
   125   62   64 1    
   126   62  185 1    
   127   63  186 1    
   128   63  187 1    
   129   63  188 1    
   130   64   65 am   BACKBONE|DICT|INTERRES
   131   64  189 1    
   132   65   66 2    
   133   67   68 2    
   134   67   69 am   BACKBONE|DICT|INTERRES
   135   69   70 1    
   136   69  190 1    
   137   70   71 1    
   138   70   72 1    
   139   70  191 1    
   140   71  192 1    
   141   71  193 1    
   142   71  194 1    
   143   72   73 2    
   144   72   74 am   BACKBONE|DICT|INTERRES
   145   74   75 1    
   146   74  195 1    
   147   75   76 1    
   148   75   77 1    
   149   75  196 1    
   150   76  197 1    
   151   76  198 1    
   152   76  199 1    
   153   77   78 2    
   154   77   79 am   BACKBONE|DICT|INTERRES
   155   79   80 1    
   156   79  200 1    
   157   80   81 1    
   158   80   82 1    
   159   80  201 1    
   160   81  202 1    
   161   81  203 1    
   162   81  204 1    
   163   82   83 2    
   164   82   84 am   BACKBONE|DICT|INTERRES
   165   84   85 1    
   166   84  205 1    
   167   85   86 1    
   168   85   87 1    
   169   85  206 1    
   170   86  207 1    
   171   86  208 1    
   172   86  209 1    
   173   87   88 2    
   174   87   89 am   BACKBONE|DICT|INTERRES
   175   89   90 1    
   176   89  210 1    
   177   90   91 1    
   178   90   92 1    
   179   90  211 1    
   180   91  212 1    
   181   91  213 1    
   182   91  214 1    
   183   92   93 2    
   184   92   94 am   BACKBONE|DICT|INTERRES
   185   94   95 1    
   186   94  215 1    
   187   95   96 1    
   188   95   97 1    
   189   95  216 1    
   190   96  217 1    
   191   96  218 1    
   192   96  219 1    
   193   97   98 2    
   194   97   99 am   BACKBONE|DICT|INTERRES
   195   99  100 1    
   196   99  220 1    
   197  100  101 1    
   198  100  102 1    
   199  100  221 1    
   200  101  222 1    
   201  101  223 1    
   202  101  224 1    
   203  102  103 2    
   204  102  104 am   BACKBONE|DICT|INTERRES
   205  104  105 1    
   206  104  225 1    
   207  105  106 1    
   208  105  107 1    
   209  105  226 1    
   210  106  227 1    
   211  106  228 1    
   212  106  229 1    
   213  107  108 2    
   214  107  109 am   BACKBONE|DICT|INTERRES
   215  109  110 1    
   216  109  230 1    
   217  110  111 1    
   218  110  112 1    
   219  110  231 1    
   220  111  232 1    
   221  111  233 1    
   222  111  234 1    
   223  112  113 2    
   224  112  114 am   BACKBONE|DICT|INTERRES
   225  114  115 1    
   226  114  235 1    
   227  115  116 1    
   228  115  117 1    
   229  115  236 1    
   230  116  237 1    
   231  116  238 1    
   232  116  239 1    
   233  117  118 2    
   234  117  119 am   BACKBONE|DICT|INTERRES
   235  119  120 1    
   236  119  240 1    
   237  120  121 1    
   238  120  124 1    
   239  120  241 1    
   240  121  122 am   BACKBONE|DICT|INTERRES
   241  121  123 2    
   242  122  242 1    
   243  122  243 1    
   244  124  125 1    
   245  124  244 1    
   246  124  245 1    
   247  125  126 1    
   248  126  246 1    
   249  126  247 1    
@<TRIPOS>SUBSTRUCTURE
     1 UNK         1 GROUP             0       ****    0 ROOT    
