@<TRIPOS>MOLECULE
3R540
247   249    1
SMALL
USER_CHARGES


@<TRIPOS>ATOM
      1 CA          4.5530  -12.4168  -49.3909 C.3       0 UNK        -0.1800 
      2 C           4.6871  -13.4121  -48.2471 C.2       0 UNK         0.5000 
      3 O           5.5743  -13.2646  -47.4066 O.2       0 UNK        -0.5000 
      4 N           3.8120  -14.4241  -48.2174 N.am      1 UNK        -0.5000 
      5 CA          3.7351  -15.4596  -47.1797 C.3       1 UNK         0.1400 
      6 C6          2.8058  -16.6274  -47.5995 C.3       23 UNK        -0.0398 
      7 S7          1.1598  -16.0947  -48.1899 S.3       23 UNK        -0.2404 
      8 C8          0.3751  -17.6939  -48.5643 C.3       23 UNK        -0.0205 
      9 C9          1.0195  -18.4307  -49.7293 C.ar      23 UNK        -0.0193 
     10 C10         1.1386  -17.8166  -50.9767 C.ar      23 UNK        -0.1150 
     11 C11         1.6736  -18.5056  -52.0666 C.ar      23 UNK        -0.0193 
     12 C12         2.0932  -19.8298  -51.9027 C.ar      23 UNK        -0.1150 
     13 C13         1.9790  -20.4586  -50.6583 C.ar      23 UNK        -0.0193 
     14 C14         1.4466  -19.7503  -49.5778 C.ar      23 UNK        -0.1150 
     15 C15         2.4402  -21.8969  -50.4725 C.3       23 UNK        -0.0205 
     16 S16         1.1551  -23.1130  -50.9153 S.3       23 UNK        -0.2404 
     17 C17        -0.1067  -22.8858  -49.6143 C.3       23 UNK        -0.0398 
     18 CA          0.0025  -23.9156  -48.4646 C.3       11 UNK         0.1400 
     19 N           1.2927  -23.8728  -47.7682 N.am      11 UNK        -0.5000 
     20 C           1.6844  -24.7648  -46.8482 C.2       10 UNK         0.5000 
     21 O           1.0109  -25.7432  -46.5246 O.2       10 UNK        -0.5000 
     22 CA          3.0196  -24.4988  -46.1263 C.3       10 UNK         0.1400 
     23 CB          4.1578  -25.2537  -46.8283 C.3       10 UNK        -0.1800 
     24 N           3.3991  -23.0861  -45.9851 N.am      10 UNK        -0.5000 
     25 C           2.6538  -22.1114  -45.4439 C.2       9 UNK         0.5000 
     26 O           1.4726  -22.2540  -45.1211 O.2       9 UNK        -0.5000 
     27 CA          3.3518  -20.7492  -45.2633 C.3       9 UNK         0.1400 
     28 CB          3.5785  -20.0476  -46.6088 C.3       9 UNK        -0.1800 
     29 N           2.6043  -19.8463  -44.3881 N.am      9 UNK        -0.5000 
     30 C           2.5394  -19.9511  -43.0580 C.2       8 UNK         0.5000 
     31 O           3.1254  -20.8236  -42.4148 O.2       8 UNK        -0.5000 
     32 CA          1.7045  -18.8983  -42.3044 C.3       8 UNK         0.1400 
     33 CB          2.4896  -17.5821  -42.1543 C.3       8 UNK        -0.1800 
     34 N           0.3525  -18.6540  -42.8280 N.am      8 UNK        -0.5000 
     35 C          -0.0310  -18.0816  -43.9780 C.2       7 UNK         0.5000 
     36 O           0.7356  -17.7496  -44.8851 O.2       7 UNK        -0.5000 
     37 CA         -1.5404  -17.8187  -44.1080 C.3       7 UNK         0.1400 
     38 CB         -2.0176  -16.7723  -43.0815 C.3       7 UNK        -0.1800 
     39 N          -1.8770  -17.3628  -45.4561 N.am      7 UNK        -0.5000 
     40 C          -3.0712  -17.5407  -46.0378 C.2       6 UNK         0.5000 
     41 O          -3.9950  -18.1560  -45.5036 O.2       6 UNK        -0.5000 
     42 CA         -3.2807  -16.8897  -47.4177 C.3       6 UNK         0.1400 
     43 CB         -4.7614  -16.8464  -47.8486 C.3       6 UNK        -0.1800 
     44 N          -2.7293  -15.5370  -47.4119 N.am      6 UNK        -0.5000 
     45 C          -2.3340  -14.8465  -48.4874 C.2       5 UNK         0.5000 
     46 O          -2.2885  -15.3257  -49.6208 O.2       5 UNK        -0.5000 
     47 CA         -1.8882  -13.3827  -48.2710 C.3       5 UNK         0.1400 
     48 CB         -2.4409  -12.4430  -49.3634 C.3       5 UNK        -0.1800 
     49 N          -2.1646  -12.8412  -46.9322 N.am      5 UNK        -0.5000 
     50 C          -3.3596  -12.6113  -46.3612 C.2       4 UNK         0.5000 
     51 O          -4.4368  -12.8545  -46.9042 O.2       4 UNK        -0.5000 
     52 CA         -3.3625  -12.0488  -44.9238 C.3       4 UNK         0.1400 
     53 CB         -3.7439  -13.1541  -43.9256 C.3       4 UNK        -0.1800 
     54 N          -2.0766  -11.4802  -44.5173 N.am      4 UNK        -0.5000 
     55 C          -1.5845  -10.3049  -44.9340 C.2       3 UNK         0.5000 
     56 O          -2.2057   -9.5177  -45.6484 O.2       3 UNK        -0.5000 
     57 CA         -0.1408   -9.9691  -44.5024 C.3       3 UNK         0.1400 
     58 CB         -0.1472   -9.0669  -43.2590 C.3       3 UNK        -0.1800 
     59 N           0.6850  -11.1536  -44.2316 N.am      3 UNK        -0.5000 
     60 C           1.0144  -12.0766  -45.1444 C.2       2 UNK         0.5000 
     61 O           0.6593  -12.0278  -46.3257 O.2       2 UNK        -0.5000 
     62 CA          1.8089  -13.2881  -44.6428 C.3       2 UNK         0.1400 
     63 CB          0.8752  -14.2631  -43.9001 C.3       2 UNK        -0.1800 
     64 N           2.3924  -13.9464  -45.8026 N.am      2 UNK        -0.5000 
     65 C           3.3344  -14.8940  -45.7999 C.2       1 UNK         0.5000 
     66 O           3.8908  -15.3096  -44.7828 O.2       1 UNK        -0.5000 
     67 C          -1.1881  -23.7467  -47.4975 C.2       11 UNK         0.5000 
     68 O          -2.2524  -24.3007  -47.7644 O.2       11 UNK        -0.5000 
     69 N          -1.0077  -23.0070  -46.3934 N.am      12 UNK        -0.5000 
     70 CA         -2.0355  -22.8191  -45.3690 C.3       12 UNK         0.1400 
     71 CB         -1.7061  -21.5786  -44.5281 C.3       12 UNK        -0.1800 
     72 C          -2.2023  -24.0676  -44.4882 C.2       12 UNK         0.5000 
     73 O          -3.3279  -24.3954  -44.1143 O.2       12 UNK        -0.5000 
     74 N          -1.0930  -24.7711  -44.2197 N.am      13 UNK        -0.5000 
     75 CA         -1.0792  -26.0551  -43.5151 C.3       13 UNK         0.1400 
     76 CB          0.3589  -26.3952  -43.0944 C.3       13 UNK        -0.1800 
     77 C          -1.6900  -27.1870  -44.3636 C.2       13 UNK         0.5000 
     78 O          -2.4083  -28.0320  -43.8291 O.2       13 UNK        -0.5000 
     79 N          -1.4230  -27.1576  -45.6767 N.am      14 UNK        -0.5000 
     80 CA         -1.9826  -28.0746  -46.6724 C.3       14 UNK         0.1400 
     81 CB         -1.1156  -28.0039  -47.9395 C.3       14 UNK        -0.1800 
     82 C          -3.4577  -27.7867  -47.0255 C.2       14 UNK         0.5000 
     83 O          -4.0914  -28.6254  -47.6666 O.2       14 UNK        -0.5000 
     84 N          -3.9611  -26.6044  -46.6369 N.am      15 UNK        -0.5000 
     85 CA         -5.2781  -26.0351  -46.9554 C.3       15 UNK         0.1400 
     86 CB         -6.4205  -26.9027  -46.3883 C.3       15 UNK        -0.1800 
     87 C          -5.4583  -25.7048  -48.4552 C.2       15 UNK         0.5000 
     88 O          -6.5867  -25.5933  -48.9365 O.2       15 UNK        -0.5000 
     89 N          -4.3361  -25.5158  -49.1590 N.am      16 UNK        -0.5000 
     90 CA         -4.2564  -25.0882  -50.5530 C.3       16 UNK         0.1400 
     91 CB         -2.9365  -25.5981  -51.1509 C.3       16 UNK        -0.1800 
     92 C          -4.3517  -23.5590  -50.6965 C.2       16 UNK         0.5000 
     93 O          -4.6780  -23.0793  -51.7816 O.2       16 UNK        -0.5000 
     94 N          -4.0919  -22.8154  -49.6087 N.am      17 UNK        -0.5000 
     95 CA         -4.1136  -21.3479  -49.5324 C.3       17 UNK         0.1400 
     96 CB         -3.6437  -20.9041  -48.1407 C.3       17 UNK        -0.1800 
     97 C          -5.4653  -20.6892  -49.8778 C.2       17 UNK         0.5000 
     98 O          -5.4960  -19.4909  -50.1505 O.2       17 UNK        -0.5000 
     99 N          -6.5514  -21.4747  -49.8913 N.am      18 UNK        -0.5000 
    100 CA        -7.8605  -21.0696  -50.4060 C.3       18 UNK         0.1400 
    101 CB        -8.8910  -22.1546  -50.0591 C.3       18 UNK        -0.1800 
    102 C         -7.8466  -20.7992  -51.9260 C.2       18 UNK         0.5000 
    103 O         -8.5999  -19.9445  -52.3932 O.2       18 UNK        -0.5000 
    104 N         -6.9832  -21.5161  -52.6591 N.am      19 UNK        -0.5000 
    105 CA        -6.7033  -21.2981  -54.0762 C.3       19 UNK         0.1400 
    106 CB        -6.5903  -22.6552  -54.7892 C.3       19 UNK        -0.1800 
    107 C         -5.4091  -20.4849  -54.2380 C.2       19 UNK         0.5000 
    108 O         -5.3958  -19.4962  -54.9724 O.2       19 UNK        -0.5000 
    109 N         -4.3513  -20.8866  -53.5195 N.am      20 UNK        -0.5000 
    110 CA        -3.0404  -20.2366  -53.4833 C.3       20 UNK         0.1400 
    111 CB        -1.9731  -21.2789  -53.0978 C.3       20 UNK        -0.1800 
    112 C         -3.0358  -19.0041  -52.5554 C.2       20 UNK         0.5000 
    113 O         -2.2121  -18.9109  -51.6455 O.2       20 UNK        -0.5000 
    114 N         -3.9515  -18.0632  -52.8117 N.am      21 UNK        -0.5000 
    115 CA        -4.0836  -16.7881  -52.1047 C.3       21 UNK         0.1400 
    116 CB        -5.5683  -16.3833  -52.0881 C.3       21 UNK        -0.1800 
    117 C         -3.1753  -15.7130  -52.7414 C.2       21 UNK         0.5000 
    118 O         -3.6250  -14.6026  -53.0307 O.2       21 UNK        -0.5000 
    119 N         -1.9197  -16.0910  -52.9966 N.am      22 UNK        -0.5000 
    120 CA        -0.8851  -15.3103  -53.6889 C.3       22 UNK         0.1400 
    121 C          0.0632  -14.5190  -52.7413 C.2       22 UNK         0.5000 
    122 N         -0.1860  -14.4545  -51.4399 N.am      22 UNK        -0.7600 
    123 O          1.0379  -13.9268  -53.1962 O.2       22 UNK        -0.5000 
    124 C124       -0.1274  -16.1662  -54.7511 C.3       23 UNK        -0.0398 
    125 S125        0.1919  -17.9130  -54.3022 S.3       23 UNK        -0.2404 
    126 C126        1.7769  -17.8159  -53.4171 C.3       23 UNK        -0.0205 
    127 H127        5.4764  -12.3820  -49.9688 H         1 UNK         0.0600 
    128 H128        4.3568  -11.4191  -48.9983 H         1 UNK         0.0600 
    129 H129        3.7392  -12.6822  -50.0664 H         1 UNK         0.0600 
    130 H130        3.1070  -14.4933  -48.9376 H         1 UNK         0.3000 
    131 H131        4.7397  -15.8721  -47.0644 H         1 UNK         0.0600 
    132 H132        3.2829  -17.1988  -48.3968 H         1 UNK         0.0800 
    133 H133        2.6693  -17.3219  -46.7703 H         1 UNK         0.0800 
    134 H134       -0.6613  -17.5084  -48.8365 H         1 UNK         0.0800 
    135 H135        0.3602  -18.3084  -47.6628 H         1 UNK         0.0800 
    136 H136        0.7978  -16.8024  -51.1001 H         1 UNK         0.1150 
    137 H137        2.4994  -20.3737  -52.7438 H         1 UNK         0.1150 
    138 H138        1.3380  -20.2390  -48.6226 H         1 UNK         0.1150 
    139 H139        3.3156  -22.0773  -51.0981 H         1 UNK         0.0800 
    140 H140        2.7706  -22.0612  -49.4467 H         1 UNK         0.0800 
    141 H141       -1.0755  -22.9809  -50.1076 H         1 UNK         0.0800 
    142 H142       -0.0850  -21.8699  -49.2278 H         1 UNK         0.0800 
    143 H143       -0.0889  -24.9103  -48.9050 H         1 UNK         0.0600 
    144 H144        1.9000  -23.0957  -47.9732 H         1 UNK         0.3000 
    145 H145        2.9174  -24.9023  -45.1170 H         1 UNK         0.0600 
    146 H146        5.0875  -25.1827  -46.2635 H         1 UNK         0.0600 
    147 H147        3.9218  -26.3143  -46.9280 H         1 UNK         0.0600 
    148 H148        4.3411  -24.8628  -47.8300 H         1 UNK         0.0600 
    149 H149        4.3523  -22.8682  -46.2378 H         1 UNK         0.3000 
    150 H150        4.3273  -20.9411  -44.8114 H         1 UNK         0.0600 
    151 H151        2.6443  -19.6578  -47.0046 H         1 UNK         0.0600 
    152 H152        4.0086  -20.7156  -47.3559 H         1 UNK         0.0600 
    153 H153        4.2649  -19.2084  -46.4959 H         1 UNK         0.0600 
    154 H154        2.0511  -19.1146  -44.8247 H         1 UNK         0.3000 
    155 H155        1.5518  -19.2935  -41.2988 H         1 UNK         0.0600 
    156 H156        2.7156  -17.1343  -43.1219 H         1 UNK         0.0600 
    157 H157        3.4401  -17.7515  -41.6472 H         1 UNK         0.0600 
    158 H158        1.9323  -16.8523  -41.5670 H         1 UNK         0.0600 
    159 H159       -0.3809  -18.9181  -42.1854 H         1 UNK         0.3000 
    160 H160       -2.0513  -18.7615  -43.9074 H         1 UNK         0.0600 
    161 H161       -1.5141  -15.8162  -43.2181 H         1 UNK         0.0600 
    162 H162       -1.8257  -17.0987  -42.0590 H         1 UNK         0.0600 
    163 H163       -3.0906  -16.5979  -43.1625 H         1 UNK         0.0600 
    164 H164       -1.1198  -16.9150  -45.9569 H         1 UNK         0.3000 
    165 H165       -2.7435  -17.5030  -48.1404 H         1 UNK         0.0600 
    166 H166       -4.8711  -16.4380  -48.8531 H         1 UNK         0.0600 
    167 H167       -5.2000  -17.8446  -47.8620 H         1 UNK         0.0600 
    168 H168       -5.3560  -16.2323  -47.1716 H         1 UNK         0.0600 
    169 H169       -2.7189  -15.0704  -46.5169 H         1 UNK         0.3000 
    170 H170       -0.8016  -13.3908  -48.3671 H         1 UNK         0.0600 
    171 H171       -2.1139  -12.7514  -50.3563 H         1 UNK         0.0600 
    172 H172       -3.5308  -12.4310  -49.3753 H         1 UNK         0.0600 
    173 H173       -2.0946  -11.4203  -49.2141 H         1 UNK         0.0600 
    174 H174       -1.3339  -12.5714  -46.4178 H         1 UNK         0.3000 
    175 H175       -4.1215  -11.2651  -44.8774 H         1 UNK         0.0600 
    176 H176       -4.7150  -13.5865  -44.1706 H         1 UNK         0.0600 
    177 H177       -3.0151  -13.9649  -43.9254 H         1 UNK         0.0600 
    178 H178       -3.8120  -12.7631  -42.9102 H         1 UNK         0.0600 
    179 H179       -1.5021  -12.0469  -43.9119 H         1 UNK         0.3000 
    180 H180        0.3241   -9.4183  -45.3228 H         1 UNK         0.0600 
    181 H181       -0.5802   -9.5740  -42.3958 H         1 UNK         0.0600 
    182 H182       -0.7312   -8.1625  -43.4353 H         1 UNK         0.0600 
    183 H183        0.8624   -8.7527  -42.9937 H         1 UNK         0.0600 
    184 H184        1.0065  -11.2667  -43.2807 H         1 UNK         0.3000 
    185 H185        2.6060  -12.9444  -43.9808 H         1 UNK         0.0600 
    186 H186        0.3901  -13.7831  -43.0498 H         1 UNK         0.0600 
    187 H187        0.0938  -14.6416  -44.5602 H         1 UNK         0.0600 
    188 H188        1.4222  -15.1210  -43.5120 H         1 UNK         0.0600 
    189 H189        2.0092  -13.6307  -46.6853 H         1 UNK         0.3000 
    190 H190       -0.0885  -22.6288  -46.1804 H         1 UNK         0.3000 
    191 H191       -2.9914  -22.6407  -45.8636 H         1 UNK         0.0600 
    192 H192       -2.5215  -21.3475  -43.8418 H         1 UNK         0.0600 
    193 H193       -0.8043  -21.7161  -43.9311 H         1 UNK         0.0600 
    194 H194       -1.5573  -20.7089  -45.1676 H         1 UNK         0.0600 
    195 H195       -0.2114  -24.4381  -44.5831 H         1 UNK         0.3000 
    196 H196       -1.6816  -25.9539  -42.6098 H         1 UNK         0.0600 
    197 H197        0.3869  -27.3250  -42.5249 H         1 UNK         0.0600 
    198 H198        0.7800  -25.6138  -42.4615 H         1 UNK         0.0600 
    199 H199        1.0160  -26.5200  -43.9551 H         1 UNK         0.0600 
    200 H200       -0.7489  -26.4781  -46.0161 H         1 UNK         0.3000 
    201 H201       -1.9303  -29.0907  -46.2761 H         1 UNK         0.0600 
    202 H202       -1.4546  -28.7212  -48.6880 H         1 UNK         0.0600 
    203 H203       -0.0727  -28.2330  -47.7191 H         1 UNK         0.0600 
    204 H204       -1.1524  -27.0141  -48.3947 H         1 UNK         0.0600 
    205 H205       -3.3410  -25.9893  -46.1287 H         1 UNK         0.3000 
    206 H206       -5.3133  -25.0756  -46.4374 H         1 UNK         0.0600 
    207 H207       -6.2621  -27.1211  -45.3322 H         1 UNK         0.0600 
    208 H208       -7.3788  -26.3891  -46.4719 H         1 UNK         0.0600 
    209 H209       -6.5139  -27.8509  -46.9181 H         1 UNK         0.0600 
    210 H210       -3.4607  -25.5254  -48.6459 H         1 UNK         0.3000 
    211 H211       -5.0833  -25.5285  -51.1140 H         1 UNK         0.0600 
    212 H212       -2.0715  -25.2050  -50.6166 H         1 UNK         0.0600 
    213 H213       -2.8396  -25.3028  -52.1966 H         1 UNK         0.0600 
    214 H214       -2.8840  -26.6864  -51.1143 H         1 UNK         0.0600 
    215 H215       -3.7932  -23.3046  -48.7737 H         1 UNK         0.3000 
    216 H216       -3.3915  -20.9751  -50.2586 H         1 UNK         0.0600 
    217 H217       -3.6652  -19.8188  -48.0509 H         1 UNK         0.0600 
    218 H218       -2.6173  -21.2136  -47.9525 H         1 UNK         0.0600 
    219 H219       -4.2799  -21.3090  -47.3535 H         1 UNK         0.0600 
    220 H220       -6.4433  -22.4453  -49.6366 H         1 UNK         0.3000 
    221 H221       -8.1520  -20.1439  -49.9054 H         1 UNK         0.0600 
    222 H222       -8.6353  -23.1130  -50.5133 H         1 UNK         0.0600 
    223 H223       -8.9608  -22.3023  -48.9813 H         1 UNK         0.0600 
    224 H224       -9.8846  -21.8772  -50.4137 H         1 UNK         0.0600 
    225 H225       -6.3716  -22.1714  -52.1843 H         1 UNK         0.3000 
    226 H226       -7.5160  -20.7385  -54.5441 H         1 UNK         0.0600 
    227 H227       -6.3738  -22.5214  -55.8498 H         1 UNK         0.0600 
    228 H228       -5.7970  -23.2733  -54.3669 H         1 UNK         0.0600 
    229 H229       -7.5229  -23.2147  -54.7156 H         1 UNK         0.0600 
    230 H230       -4.4553  -21.7038  -52.9222 H         1 UNK         0.3000 
    231 H231       -2.7977  -19.8785  -54.4860 H         1 UNK         0.0600 
    232 H232       -2.1475  -21.6942  -52.1059 H         1 UNK         0.0600 
    233 H233       -0.9757  -20.8362  -53.0948 H         1 UNK         0.0600 
    234 H234       -1.9572  -22.1068  -53.8064 H         1 UNK         0.0600 
    235 H235       -4.5781  -18.2182  -53.5935 H         1 UNK         0.3000 
    236 H236       -3.7662  -16.9199  -51.0691 H         1 UNK         0.0600 
    237 H237       -6.1795  -17.1550  -51.6194 H         1 UNK         0.0600 
    238 H238       -5.7158  -15.4647  -51.5190 H         1 UNK         0.0600 
    239 H239       -5.9522  -16.2166  -53.0952 H         1 UNK         0.0600 
    240 H240       -1.6314  -17.0121  -52.6889 H         1 UNK         0.3000 
    241 H241       -1.3882  -14.5208  -54.2498 H         1 UNK         0.0600 
    242 H242        0.4403  -13.9293  -50.8544 H         1 UNK         0.3800 
    243 H243       -0.9957  -14.9109  -51.0302 H         1 UNK         0.3800 
    244 H244       -0.7424  -16.2023  -55.6511 H         1 UNK         0.0800 
    245 H245        0.8023  -15.6951  -55.0742 H         1 UNK         0.0800 
    246 H246        2.0770  -16.7769  -53.2747 H         1 UNK         0.0800 
    247 H247        2.5554  -18.2792  -54.0248 H         1 UNK         0.0800 
@<TRIPOS>BOND
     1    1    2 1    
     2    1  127 1    
     3    1  128 1    
     4    1  129 1    
     5    2    3 2    
     6    2    4 am   BACKBONE|DICT|INTERRES
     7    4    5 1    
     8    4  130 1    
     9    5    6 1    
    10    5   65 1    
    11    5  131 1    
    12    6    7 1    
    13    6  132 1    
    14    6  133 1    
    15    7    8 1    
    16    8    9 1    
    17    8  134 1    
    18    8  135 1    
    19    9   10 ar   
    20    9   14 ar   
    21   10   11 ar   
    22   10  136 1    
    23   11   12 ar   
    24   11  126 1    
    25   12   13 ar   
    26   12  137 1    
    27   13   14 ar   
    28   13   15 1    
    29   14  138 1    
    30   15   16 1    
    31   15  139 1    
    32   15  140 1    
    33   16   17 1    
    34   17   18 1    
    35   17  141 1    
    36   17  142 1    
    37   18   19 1    
    38   18   67 1    
    39   18  143 1    
    40   19   20 am   BACKBONE|DICT|INTERRES
    41   19  144 1    
    42   20   21 2    
    43   20   22 1    
    44   22   23 1    
    45   22   24 1    
    46   22  145 1    
    47   23  146 1    
    48   23  147 1    
    49   23  148 1    
    50   24   25 am   BACKBONE|DICT|INTERRES
    51   24  149 1    
    52   25   26 2    
    53   25   27 1    
    54   27   28 1    
    55   27   29 1    
    56   27  150 1    
    57   28  151 1    
    58   28  152 1    
    59   28  153 1    
    60   29   30 am   BACKBONE|DICT|INTERRES
    61   29  154 1    
    62   30   31 2    
    63   30   32 1    
    64   32   33 1    
    65   32   34 1    
    66   32  155 1    
    67   33  156 1    
    68   33  157 1    
    69   33  158 1    
    70   34   35 am   BACKBONE|DICT|INTERRES
    71   34  159 1    
    72   35   36 2    
    73   35   37 1    
    74   37   38 1    
    75   37   39 1    
    76   37  160 1    
    77   38  161 1    
    78   38  162 1    
    79   38  163 1    
    80   39   40 am   BACKBONE|DICT|INTERRES
    81   39  164 1    
    82   40   41 2    
    83   40   42 1    
    84   42   43 1    
    85   42   44 1    
    86   42  165 1    
    87   43  166 1    
    88   43  167 1    
    89   43  168 1    
    90   44   45 am   BACKBONE|DICT|INTERRES
    91   44  169 1    
    92   45   46 2    
    93   45   47 1    
    94   47   48 1    
    95   47   49 1    
    96   47  170 1    
    97   48  171 1    
    98   48  172 1    
    99   48  173 1    
   100   49   50 am   BACKBONE|DICT|INTERRES
   101   49  174 1    
   102   50   51 2    
   103   50   52 1    
   104   52   53 1    
   105   52   54 1    
   106   52  175 1    
   107   53  176 1    
   108   53  177 1    
   109   53  178 1    
   110   54   55 am   BACKBONE|DICT|INTERRES
   111   54  179 1    
   112   55   56 2    
   113   55   57 1    
   114   57   58 1    
   115   57   59 1    
   116   57  180 1    
   117   58  181 1    
   118   58  182 1    
   119   58  183 1    
   120   59   60 am   BACKBONE|DICT|INTERRES
   121   59  184 1    
   122   60   61 2    
   123   60   62 1    
   124   62   63 1    
   125   62   64 1    
   126   62  185 1    
   127   63  186 1    
   128   63  187 1    
   129   63  188 1    
   130   64   65 am   BACKBONE|DICT|INTERRES
   131   64  189 1    
   132   65   66 2    
   133   67   68 2    
   134   67   69 am   BACKBONE|DICT|INTERRES
   135   69   70 1    
   136   69  190 1    
   137   70   71 1    
   138   70   72 1    
   139   70  191 1    
   140   71  192 1    
   141   71  193 1    
   142   71  194 1    
   143   72   73 2    
   144   72   74 am   BACKBONE|DICT|INTERRES
   145   74   75 1    
   146   74  195 1    
   147   75   76 1    
   148   75   77 1    
   149   75  196 1    
   150   76  197 1    
   151   76  198 1    
   152   76  199 1    
   153   77   78 2    
   154   77   79 am   BACKBONE|DICT|INTERRES
   155   79   80 1    
   156   79  200 1    
   157   80   81 1    
   158   80   82 1    
   159   80  201 1    
   160   81  202 1    
   161   81  203 1    
   162   81  204 1    
   163   82   83 2    
   164   82   84 am   BACKBONE|DICT|INTERRES
   165   84   85 1    
   166   84  205 1    
   167   85   86 1    
   168   85   87 1    
   169   85  206 1    
   170   86  207 1    
   171   86  208 1    
   172   86  209 1    
   173   87   88 2    
   174   87   89 am   BACKBONE|DICT|INTERRES
   175   89   90 1    
   176   89  210 1    
   177   90   91 1    
   178   90   92 1    
   179   90  211 1    
   180   91  212 1    
   181   91  213 1    
   182   91  214 1    
   183   92   93 2    
   184   92   94 am   BACKBONE|DICT|INTERRES
   185   94   95 1    
   186   94  215 1    
   187   95   96 1    
   188   95   97 1    
   189   95  216 1    
   190   96  217 1    
   191   96  218 1    
   192   96  219 1    
   193   97   98 2    
   194   97   99 am   BACKBONE|DICT|INTERRES
   195   99  100 1    
   196   99  220 1    
   197  100  101 1    
   198  100  102 1    
   199  100  221 1    
   200  101  222 1    
   201  101  223 1    
   202  101  224 1    
   203  102  103 2    
   204  102  104 am   BACKBONE|DICT|INTERRES
   205  104  105 1    
   206  104  225 1    
   207  105  106 1    
   208  105  107 1    
   209  105  226 1    
   210  106  227 1    
   211  106  228 1    
   212  106  229 1    
   213  107  108 2    
   214  107  109 am   BACKBONE|DICT|INTERRES
   215  109  110 1    
   216  109  230 1    
   217  110  111 1    
   218  110  112 1    
   219  110  231 1    
   220  111  232 1    
   221  111  233 1    
   222  111  234 1    
   223  112  113 2    
   224  112  114 am   BACKBONE|DICT|INTERRES
   225  114  115 1    
   226  114  235 1    
   227  115  116 1    
   228  115  117 1    
   229  115  236 1    
   230  116  237 1    
   231  116  238 1    
   232  116  239 1    
   233  117  118 2    
   234  117  119 am   BACKBONE|DICT|INTERRES
   235  119  120 1    
   236  119  240 1    
   237  120  121 1    
   238  120  124 1    
   239  120  241 1    
   240  121  122 am   BACKBONE|DICT|INTERRES
   241  121  123 2    
   242  122  242 1    
   243  122  243 1    
   244  124  125 1    
   245  124  244 1    
   246  124  245 1    
   247  125  126 1    
   248  126  246 1    
   249  126  247 1    
@<TRIPOS>SUBSTRUCTURE
     1 UNK         1 GROUP             0       ****    0 ROOT    
