@<TRIPOS>MOLECULE
3R540
247   249    1
SMALL
USER_CHARGES


@<TRIPOS>ATOM
      1 CA          6.8955  -10.7845  -49.7414 C.3       0 UNK        -0.1800 
      2 C           6.2621  -11.2862  -48.4520 C.2       0 UNK         0.5000 
      3 O           5.6879  -10.4963  -47.7018 O.2       0 UNK        -0.5000 
      4 N           6.3493  -12.5989  -48.1960 N.am      1 UNK        -0.5000 
      5 CA          5.8069  -13.2648  -47.0031 C.3       1 UNK         0.1400 
      6 C6          6.3268  -14.7169  -46.8518 C.3       23 UNK        -0.0398 
      7 S7          5.8869  -15.8113  -48.2480 S.3       23 UNK        -0.2404 
      8 C8          4.4762  -16.7181  -47.5409 C.3       23 UNK        -0.0205 
      9 C9          3.7288  -17.4755  -48.6219 C.ar      23 UNK        -0.0193 
     10 C10         2.6841  -16.8624  -49.3183 C.ar      23 UNK        -0.1150 
     11 C11         2.0032  -17.5499  -50.3277 C.ar      23 UNK        -0.0193 
     12 C12         2.3822  -18.8583  -50.6412 C.ar      23 UNK        -0.1150 
     13 C13         3.4062  -19.4908  -49.9291 C.ar      23 UNK        -0.0193 
     14 C14         4.0809  -18.7912  -48.9259 C.ar      23 UNK        -0.1150 
     15 C15         3.7650  -20.9421  -50.2119 C.3       23 UNK        -0.0205 
     16 S16         2.3737  -22.0772  -49.8993 S.3       23 UNK        -0.2404 
     17 C17         1.7252  -21.4764  -48.2959 C.3       23 UNK        -0.0398 
     18 CA          0.9775  -22.5586  -47.4844 C.3       11 UNK         0.1400 
     19 N           0.6168  -22.0789  -46.1477 N.am      11 UNK        -0.5000 
     20 C           0.1262  -22.8560  -45.1714 C.2       10 UNK         0.5000 
     21 O          -0.0261  -24.0722  -45.2750 O.2       10 UNK        -0.5000 
     22 CA         -0.3227  -22.1527  -43.8800 C.3       10 UNK         0.1400 
     23 CB          0.8845  -21.8280  -42.9880 C.3       10 UNK        -0.1800 
     24 N          -1.0986  -20.9394  -44.1411 N.am      10 UNK        -0.5000 
     25 C          -2.2725  -20.9188  -44.7897 C.2       9 UNK         0.5000 
     26 O          -2.8428  -21.9284  -45.2000 O.2       9 UNK        -0.5000 
     27 CA         -2.9019  -19.5428  -45.0652 C.3       9 UNK         0.1400 
     28 CB         -3.6521  -19.0338  -43.8259 C.3       9 UNK        -0.1800 
     29 N          -1.9286  -18.5427  -45.5044 N.am      9 UNK        -0.5000 
     30 C          -1.1904  -18.6311  -46.6212 C.2       8 UNK         0.5000 
     31 O          -1.2572  -19.5713  -47.4134 O.2       8 UNK        -0.5000 
     32 CA         -0.1618  -17.5093  -46.8561 C.3       8 UNK         0.1400 
     33 CB         -0.8418  -16.2092  -47.3124 C.3       8 UNK        -0.1800 
     34 N           0.6395  -17.2411  -45.6635 N.am      8 UNK        -0.5000 
     35 C           1.4568  -18.1283  -45.0798 C.2       7 UNK         0.5000 
     36 O           1.6912  -19.2521  -45.5278 O.2       7 UNK        -0.5000 
     37 CA          2.0625  -17.6995  -43.7330 C.3       7 UNK         0.1400 
     38 CB          3.2938  -16.8034  -43.9395 C.3       7 UNK        -0.1800 
     39 N           1.0791  -17.0061  -42.8968 N.am      7 UNK        -0.5000 
     40 C           0.0520  -17.6173  -42.2871 C.2       6 UNK         0.5000 
     41 O          -0.1612  -18.8257  -42.3649 O.2       6 UNK        -0.5000 
     42 CA         -0.9193  -16.7382  -41.4763 C.3       6 UNK         0.1400 
     43 CB         -0.4010  -16.5456  -40.0435 C.3       6 UNK        -0.1800 
     44 N          -1.1578  -15.4294  -42.0817 N.am      6 UNK        -0.5000 
     45 C          -1.7479  -15.2304  -43.2685 C.2       5 UNK         0.5000 
     46 O          -2.1991  -16.1359  -43.9675 O.2       5 UNK        -0.5000 
     47 CA         -1.7918  -13.7800  -43.7865 C.3       5 UNK         0.1400 
     48 CB         -3.0977  -13.0946  -43.3592 C.3       5 UNK        -0.1800 
     49 N          -0.6522  -12.9630  -43.3564 N.am      5 UNK        -0.5000 
     50 C           0.6306  -13.2499  -43.6124 C.2       4 UNK         0.5000 
     51 O           0.9956  -14.2597  -44.2189 O.2       4 UNK        -0.5000 
     52 CA          1.6687  -12.2311  -43.1219 C.3       4 UNK         0.1400 
     53 CB          2.8947  -12.9213  -42.4994 C.3       4 UNK        -0.1800 
     54 N           2.0833  -11.4400  -44.2720 N.am      4 UNK        -0.5000 
     55 C           1.4935  -10.3015  -44.6649 C.2       3 UNK         0.5000 
     56 O           0.6551   -9.7012  -43.9911 O.2       3 UNK        -0.5000 
     57 CA          1.8720   -9.7560  -46.0585 C.3       3 UNK         0.1400 
     58 CB          3.0125   -8.7335  -45.9468 C.3       3 UNK        -0.1800 
     59 N           2.2669  -10.8088  -46.9952 N.am      3 UNK        -0.5000 
     60 C           1.4672  -11.7975  -47.4238 C.2       2 UNK         0.5000 
     61 O           0.2558  -11.8348  -47.2069 O.2       2 UNK        -0.5000 
     62 CA          2.1294  -12.9584  -48.1949 C.3       2 UNK         0.1400 
     63 CB          1.7745  -12.8895  -49.6883 C.3       2 UNK        -0.1800 
     64 N           3.5877  -13.0302  -48.0585 N.am      2 UNK        -0.5000 
     65 C           4.2664  -13.2114  -46.9147 C.2       1 UNK         0.5000 
     66 O           3.7276  -13.3186  -45.8155 O.2       1 UNK        -0.5000 
     67 C          -0.2525  -23.1114  -48.2364 C.2       11 UNK         0.5000 
     68 O          -0.1899  -24.2247  -48.7585 O.2       11 UNK        -0.5000 
     69 N          -1.3584  -22.3529  -48.2376 N.am      12 UNK        -0.5000 
     70 CA         -2.6252  -22.7350  -48.8637 C.3       12 UNK         0.1400 
     71 CB         -3.6218  -21.5740  -48.7476 C.3       12 UNK        -0.1800 
     72 C          -3.2279  -24.0278  -48.2831 C.2       12 UNK         0.5000 
     73 O          -3.7390  -24.8503  -49.0461 O.2       12 UNK        -0.5000 
     74 N          -3.1345  -24.1882  -46.9560 N.am      13 UNK        -0.5000 
     75 CA         -3.5485  -25.3821  -46.2235 C.3       13 UNK         0.1400 
     76 CB         -3.6057  -25.0725  -44.7202 C.3       13 UNK        -0.1800 
     77 C          -2.6337  -26.5879  -46.4961 C.2       13 UNK         0.5000 
     78 O          -3.1439  -27.6851  -46.7193 O.2       13 UNK        -0.5000 
     79 N          -1.3099  -26.3693  -46.5056 N.am      14 UNK        -0.5000 
     80 CA         -0.2985  -27.3914  -46.7968 C.3       14 UNK         0.1400 
     81 CB          1.1033  -26.8356  -46.5047 C.3       14 UNK        -0.1800 
     82 C          -0.3807  -27.9225  -48.2393 C.2       14 UNK         0.5000 
     83 O          -0.2180  -29.1235  -48.4577 O.2       14 UNK        -0.5000 
     84 N          -0.6736  -27.0250  -49.1894 N.am      15 UNK        -0.5000 
     85 CA         -0.9534  -27.3470  -50.5893 C.3       15 UNK         0.1400 
     86 CB         -0.8708  -26.0536  -51.4161 C.3       15 UNK        -0.1800 
     87 C          -2.3265  -28.0185  -50.7974 C.2       15 UNK         0.5000 
     88 O          -2.5532  -28.5978  -51.8603 O.2       15 UNK        -0.5000 
     89 N          -3.2174  -27.9022  -49.7992 N.am      16 UNK        -0.5000 
     90 CA         -4.6251  -28.3153  -49.7934 C.3       16 UNK         0.1400 
     91 CB         -4.7472  -29.8521  -49.8443 C.3       16 UNK        -0.1800 
     92 C          -5.4488  -27.5999  -50.8853 C.2       16 UNK         0.5000 
     93 O          -6.3514  -28.1956  -51.4767 O.2       16 UNK        -0.5000 
     94 N          -5.0954  -26.3357  -51.1458 N.am      17 UNK        -0.5000 
     95 CA         -5.6739  -25.5055  -52.1941 C.3       17 UNK         0.1400 
     96 CB         -4.5787  -24.5934  -52.7738 C.3       17 UNK        -0.1800 
     97 C          -6.8568  -24.6964  -51.6469 C.2       17 UNK         0.5000 
     98 O          -7.9770  -24.8569  -52.1341 O.2       17 UNK        -0.5000 
     99 N          -6.5758  -23.8585  -50.6354 N.am      18 UNK        -0.5000 
    100 CA        -7.4892  -22.8999  -49.9987 C.3       18 UNK         0.1400 
    101 CB        -8.5576  -23.6554  -49.1782 C.3       18 UNK        -0.1800 
    102 C         -8.0976  -21.8817  -50.9958 C.2       18 UNK         0.5000 
    103 O         -7.5751  -21.7112  -52.1002 O.2       18 UNK        -0.5000 
    104 N         -9.1828  -21.2112  -50.5811 N.am      19 UNK        -0.5000 
    105 CA       -10.0178  -20.2941  -51.3653 C.3       19 UNK         0.1400 
    106 CB       -10.8964  -21.1009  -52.3479 C.3       19 UNK        -0.1800 
    107 C         -9.2156  -19.1611  -52.0432 C.2       19 UNK         0.5000 
    108 O         -8.8411  -18.1997  -51.3711 O.2       19 UNK        -0.5000 
    109 N         -8.9755  -19.2939  -53.3542 N.am      20 UNK        -0.5000 
    110 CA        -8.2618  -18.3345  -54.1966 C.3       20 UNK         0.1400 
    111 CB        -8.6325  -18.6075  -55.6634 C.3       20 UNK        -0.1800 
    112 C         -6.7296  -18.3425  -54.0168 C.2       20 UNK         0.5000 
    113 O         -6.0698  -17.4476  -54.5505 O.2       20 UNK        -0.5000 
    114 N         -6.1777  -19.3351  -53.3002 N.am      21 UNK        -0.5000 
    115 CA        -4.7480  -19.4626  -53.0011 C.3       21 UNK         0.1400 
    116 CB        -4.5137  -20.7127  -52.1422 C.3       21 UNK        -0.1800 
    117 C         -4.1803  -18.2090  -52.3061 C.2       21 UNK         0.5000 
    118 O         -4.7391  -17.7626  -51.3019 O.2       21 UNK        -0.5000 
    119 N         -3.1063  -17.6593  -52.8858 N.am      22 UNK        -0.5000 
    120 CA        -2.4690  -16.3801  -52.5203 C.3       22 UNK         0.1400 
    121 C         -3.3124  -15.1095  -52.8568 C.2       22 UNK         0.5000 
    122 N         -4.4240  -15.2034  -53.5775 N.am      22 UNK        -0.7600 
    123 O         -2.9322  -14.0009  -52.4898 O.2       22 UNK        -0.5000 
    124 C124       -1.9155  -16.3424  -51.0671 C.3       23 UNK        -0.0398 
    125 S125       -0.7358  -17.6860  -50.6971 S.3       23 UNK        -0.2404 
    126 C126        0.8561  -16.8824  -51.0707 C.3       23 UNK        -0.0205 
    127 H127        6.1402  -10.3161  -50.3726 H         1 UNK         0.0600 
    128 H128        7.3583  -11.5934  -50.3073 H         1 UNK         0.0600 
    129 H129        7.6626  -10.0430  -49.5182 H         1 UNK         0.0600 
    130 H130        6.8191  -13.2050  -48.8544 H         1 UNK         0.3000 
    131 H131        6.1749  -12.7050  -46.1404 H         1 UNK         0.0600 
    132 H132        7.4146  -14.7027  -46.7729 H         1 UNK         0.0800 
    133 H133        5.9768  -15.1548  -45.9149 H         1 UNK         0.0800 
    134 H134        4.8381  -17.4088  -46.7782 H         1 UNK         0.0800 
    135 H135        3.7923  -16.0336  -47.0382 H         1 UNK         0.0800 
    136 H136        2.4040  -15.8493  -49.0716 H         1 UNK         0.1150 
    137 H137        1.8528  -19.3988  -51.4135 H         1 UNK         0.1150 
    138 H138        4.8783  -19.2706  -48.3755 H         1 UNK         0.1150 
    139 H139        4.0783  -21.0394  -51.2521 H         1 UNK         0.0800 
    140 H140        4.6144  -21.2568  -49.6037 H         1 UNK         0.0800 
    141 H141        1.0791  -20.6159  -48.4796 H         1 UNK         0.0800 
    142 H142        2.5625  -21.1033  -47.7042 H         1 UNK         0.0800 
    143 H143        1.6673  -23.3933  -47.3420 H         1 UNK         0.0600 
    144 H144        0.7229  -21.0848  -45.9751 H         1 UNK         0.3000 
    145 H145       -0.9672  -22.8457  -43.3352 H         1 UNK         0.0600 
    146 H146        0.5654  -21.4412  -42.0203 H         1 UNK         0.0600 
    147 H147        1.4821  -22.7205  -42.7983 H         1 UNK         0.0600 
    148 H148        1.5379  -21.0857  -43.4469 H         1 UNK         0.0600 
    149 H149       -0.7181  -20.0712  -43.7771 H         1 UNK         0.3000 
    150 H150       -3.6282  -19.6672  -45.8705 H         1 UNK         0.0600 
    151 H151       -4.3947  -19.7598  -43.4927 H         1 UNK         0.0600 
    152 H152       -4.1799  -18.1041  -44.0388 H         1 UNK         0.0600 
    153 H153       -2.9737  -18.8511  -42.9924 H         1 UNK         0.0600 
    154 H154       -1.8434  -17.7132  -44.9221 H         1 UNK         0.3000 
    155 H155        0.5100  -17.8428  -47.6494 H         1 UNK         0.0600 
    156 H156       -1.4216  -15.7506  -46.5122 H         1 UNK         0.0600 
    157 H157       -1.5263  -16.3935  -48.1394 H         1 UNK         0.0600 
    158 H158       -0.1071  -15.4807  -47.6537 H         1 UNK         0.0600 
    159 H159        0.5153  -16.3407  -45.2181 H         1 UNK         0.3000 
    160 H160        2.3855  -18.6004  -43.2067 H         1 UNK         0.0600 
    161 H161        3.0587  -15.9120  -44.5221 H         1 UNK         0.0600 
    162 H162        4.0792  -17.3432  -44.4684 H         1 UNK         0.0600 
    163 H163        3.7108  -16.4785  -42.9862 H         1 UNK         0.0600 
    164 H164        1.1426  -15.9969  -42.8667 H         1 UNK         0.3000 
    165 H165       -1.8758  -17.2620  -41.4246 H         1 UNK         0.0600 
    166 H166       -1.1191  -15.9962  -39.4345 H         1 UNK         0.0600 
    167 H167       -0.2330  -17.5075  -39.5571 H         1 UNK         0.0600 
    168 H168        0.5430  -15.9994  -40.0259 H         1 UNK         0.0600 
    169 H169       -0.8155  -14.6248  -41.5781 H         1 UNK         0.3000 
    170 H170       -1.7693  -13.8229  -44.8774 H         1 UNK         0.0600 
    171 H171       -3.9654  -13.6696  -43.6859 H         1 UNK         0.0600 
    172 H172       -3.1620  -12.9901  -42.2753 H         1 UNK         0.0600 
    173 H173       -3.1843  -12.1009  -43.7991 H         1 UNK         0.0600 
    174 H174       -0.8721  -12.0996  -42.8801 H         1 UNK         0.3000 
    175 H175        1.2204  -11.5920  -42.3582 H         1 UNK         0.0600 
    176 H176        3.3931  -13.5885  -43.2029 H         1 UNK         0.0600 
    177 H177        3.6272  -12.1885  -42.1611 H         1 UNK         0.0600 
    178 H178        2.6059  -13.5179  -41.6335 H         1 UNK         0.0600 
    179 H179        2.7089  -11.9182  -44.9144 H         1 UNK         0.3000 
    180 H180        0.9943   -9.2517  -46.4678 H         1 UNK         0.0600 
    181 H181        3.9258   -9.1910  -45.5637 H         1 UNK         0.0600 
    182 H182        2.7436   -7.9193  -45.2725 H         1 UNK         0.0600 
    183 H183        3.2421   -8.2906  -46.9162 H         1 UNK         0.0600 
    184 H184        3.2488  -10.8527  -47.2336 H         1 UNK         0.3000 
    185 H185        1.7207  -13.8830  -47.7837 H         1 UNK         0.0600 
    186 H186        0.6938  -12.9152  -49.8350 H         1 UNK         0.0600 
    187 H187        2.1467  -11.9718  -50.1455 H         1 UNK         0.0600 
    188 H188        2.1956  -13.7309  -50.2383 H         1 UNK         0.0600 
    189 H189        4.1231  -12.9449  -48.9101 H         1 UNK         0.3000 
    190 H190       -1.3258  -21.4324  -47.8052 H         1 UNK         0.3000 
    191 H191       -2.4283  -22.9110  -49.9232 H         1 UNK         0.0600 
    192 H192       -3.2410  -20.6757  -49.2345 H         1 UNK         0.0600 
    193 H193       -4.5697  -21.8265  -49.2198 H         1 UNK         0.0600 
    194 H194       -3.8312  -21.3256  -47.7073 H         1 UNK         0.0600 
    195 H195       -2.7634  -23.4232  -46.3985 H         1 UNK         0.3000 
    196 H196       -4.5557  -25.6467  -46.5525 H         1 UNK         0.0600 
    197 H197       -3.9202  -25.9483  -44.1513 H         1 UNK         0.0600 
    198 H198       -4.3184  -24.2748  -44.5103 H         1 UNK         0.0600 
    199 H199       -2.6339  -24.7606  -44.3356 H         1 UNK         0.0600 
    200 H200       -0.9595  -25.4446  -46.2700 H         1 UNK         0.3000 
    201 H201       -0.4748  -28.2340  -46.1251 H         1 UNK         0.0600 
    202 H202        1.2034  -26.5511  -45.4572 H         1 UNK         0.0600 
    203 H203        1.3226  -25.9576  -47.1130 H         1 UNK         0.0600 
    204 H204        1.8718  -27.5810  -46.7132 H         1 UNK         0.0600 
    205 H205       -0.7087  -26.0401  -48.9352 H         1 UNK         0.3000 
    206 H206       -0.1871  -28.0371  -50.9480 H         1 UNK         0.0600 
    207 H207        0.1117  -25.5896  -51.3260 H         1 UNK         0.0600 
    208 H208       -1.0416  -26.2514  -52.4750 H         1 UNK         0.0600 
    209 H209       -1.6152  -25.3240  -51.0938 H         1 UNK         0.0600 
    210 H210       -2.9158  -27.4166  -48.9649 H         1 UNK         0.3000 
    211 H211       -5.0355  -27.9828  -48.8390 H         1 UNK         0.0600 
    212 H212       -4.4123  -30.2551  -50.8004 H         1 UNK         0.0600 
    213 H213       -5.7815  -30.1667  -49.7012 H         1 UNK         0.0600 
    214 H214       -4.1551  -30.3188  -49.0570 H         1 UNK         0.0600 
    215 H215       -4.4027  -25.9007  -50.5434 H         1 UNK         0.3000 
    216 H216       -6.0421  -26.1372  -53.0057 H         1 UNK         0.0600 
    217 H217       -4.9871  -23.9347  -53.5412 H         1 UNK         0.0600 
    218 H218       -3.7877  -25.1822  -53.2388 H         1 UNK         0.0600 
    219 H219       -4.1170  -23.9674  -52.0093 H         1 UNK         0.0600 
    220 H220       -5.6228  -23.8381  -50.3029 H         1 UNK         0.3000 
    221 H221       -6.8854  -22.3194  -49.3011 H         1 UNK         0.0600 
    222 H222       -9.2826  -24.1558  -49.8212 H         1 UNK         0.0600 
    223 H223       -8.0993  -24.4135  -48.5427 H         1 UNK         0.0600 
    224 H224       -9.1081  -22.9831  -48.5197 H         1 UNK         0.0600 
    225 H225       -9.5075  -21.3819  -49.6400 H         1 UNK         0.3000 
    226 H226      -10.6889  -19.8052  -50.6574 H         1 UNK         0.0600 
    227 H227      -11.5551  -21.7813  -51.8080 H         1 UNK         0.0600 
    228 H228      -11.5335  -20.4427  -52.9403 H         1 UNK         0.0600 
    229 H229      -10.3023  -21.7020  -53.0372 H         1 UNK         0.0600 
    230 H230       -9.2835  -20.1426  -53.8062 H         1 UNK         0.3000 
    231 H231       -8.6080  -17.3310  -53.9407 H         1 UNK         0.0600 
    232 H232       -8.3153  -19.6022  -55.9792 H         1 UNK         0.0600 
    233 H233       -8.1590  -17.8851  -56.3296 H         1 UNK         0.0600 
    234 H234       -9.7089  -18.5319  -55.8195 H         1 UNK         0.0600 
    235 H235       -6.7859  -20.0424  -52.8993 H         1 UNK         0.3000 
    236 H236       -4.2309  -19.6046  -53.9521 H         1 UNK         0.0600 
    237 H237       -4.8365  -21.6127  -52.6638 H         1 UNK         0.0600 
    238 H238       -3.4571  -20.8343  -51.9001 H         1 UNK         0.0600 
    239 H239       -5.0658  -20.6529  -51.2045 H         1 UNK         0.0600 
    240 H240       -2.7303  -18.0986  -53.7136 H         1 UNK         0.3000 
    241 H241       -1.6064  -16.3026  -53.1829 H         1 UNK         0.0600 
    242 H242       -4.9378  -14.3638  -53.7924 H         1 UNK         0.3800 
    243 H243       -4.7861  -16.0979  -53.8924 H         1 UNK         0.3800 
    244 H244       -1.4292  -15.3877  -50.8625 H         1 UNK         0.0800 
    245 H245       -2.7336  -16.4060  -50.3493 H         1 UNK         0.0800 
    246 H246        0.8095  -15.8251  -50.8078 H         1 UNK         0.0800 
    247 H247        1.0394  -16.9268  -52.1451 H         1 UNK         0.0800 
@<TRIPOS>BOND
     1    1    2 1    
     2    1  127 1    
     3    1  128 1    
     4    1  129 1    
     5    2    3 2    
     6    2    4 am   BACKBONE|DICT|INTERRES
     7    4    5 1    
     8    4  130 1    
     9    5    6 1    
    10    5   65 1    
    11    5  131 1    
    12    6    7 1    
    13    6  132 1    
    14    6  133 1    
    15    7    8 1    
    16    8    9 1    
    17    8  134 1    
    18    8  135 1    
    19    9   10 ar   
    20    9   14 ar   
    21   10   11 ar   
    22   10  136 1    
    23   11   12 ar   
    24   11  126 1    
    25   12   13 ar   
    26   12  137 1    
    27   13   14 ar   
    28   13   15 1    
    29   14  138 1    
    30   15   16 1    
    31   15  139 1    
    32   15  140 1    
    33   16   17 1    
    34   17   18 1    
    35   17  141 1    
    36   17  142 1    
    37   18   19 1    
    38   18   67 1    
    39   18  143 1    
    40   19   20 am   BACKBONE|DICT|INTERRES
    41   19  144 1    
    42   20   21 2    
    43   20   22 1    
    44   22   23 1    
    45   22   24 1    
    46   22  145 1    
    47   23  146 1    
    48   23  147 1    
    49   23  148 1    
    50   24   25 am   BACKBONE|DICT|INTERRES
    51   24  149 1    
    52   25   26 2    
    53   25   27 1    
    54   27   28 1    
    55   27   29 1    
    56   27  150 1    
    57   28  151 1    
    58   28  152 1    
    59   28  153 1    
    60   29   30 am   BACKBONE|DICT|INTERRES
    61   29  154 1    
    62   30   31 2    
    63   30   32 1    
    64   32   33 1    
    65   32   34 1    
    66   32  155 1    
    67   33  156 1    
    68   33  157 1    
    69   33  158 1    
    70   34   35 am   BACKBONE|DICT|INTERRES
    71   34  159 1    
    72   35   36 2    
    73   35   37 1    
    74   37   38 1    
    75   37   39 1    
    76   37  160 1    
    77   38  161 1    
    78   38  162 1    
    79   38  163 1    
    80   39   40 am   BACKBONE|DICT|INTERRES
    81   39  164 1    
    82   40   41 2    
    83   40   42 1    
    84   42   43 1    
    85   42   44 1    
    86   42  165 1    
    87   43  166 1    
    88   43  167 1    
    89   43  168 1    
    90   44   45 am   BACKBONE|DICT|INTERRES
    91   44  169 1    
    92   45   46 2    
    93   45   47 1    
    94   47   48 1    
    95   47   49 1    
    96   47  170 1    
    97   48  171 1    
    98   48  172 1    
    99   48  173 1    
   100   49   50 am   BACKBONE|DICT|INTERRES
   101   49  174 1    
   102   50   51 2    
   103   50   52 1    
   104   52   53 1    
   105   52   54 1    
   106   52  175 1    
   107   53  176 1    
   108   53  177 1    
   109   53  178 1    
   110   54   55 am   BACKBONE|DICT|INTERRES
   111   54  179 1    
   112   55   56 2    
   113   55   57 1    
   114   57   58 1    
   115   57   59 1    
   116   57  180 1    
   117   58  181 1    
   118   58  182 1    
   119   58  183 1    
   120   59   60 am   BACKBONE|DICT|INTERRES
   121   59  184 1    
   122   60   61 2    
   123   60   62 1    
   124   62   63 1    
   125   62   64 1    
   126   62  185 1    
   127   63  186 1    
   128   63  187 1    
   129   63  188 1    
   130   64   65 am   BACKBONE|DICT|INTERRES
   131   64  189 1    
   132   65   66 2    
   133   67   68 2    
   134   67   69 am   BACKBONE|DICT|INTERRES
   135   69   70 1    
   136   69  190 1    
   137   70   71 1    
   138   70   72 1    
   139   70  191 1    
   140   71  192 1    
   141   71  193 1    
   142   71  194 1    
   143   72   73 2    
   144   72   74 am   BACKBONE|DICT|INTERRES
   145   74   75 1    
   146   74  195 1    
   147   75   76 1    
   148   75   77 1    
   149   75  196 1    
   150   76  197 1    
   151   76  198 1    
   152   76  199 1    
   153   77   78 2    
   154   77   79 am   BACKBONE|DICT|INTERRES
   155   79   80 1    
   156   79  200 1    
   157   80   81 1    
   158   80   82 1    
   159   80  201 1    
   160   81  202 1    
   161   81  203 1    
   162   81  204 1    
   163   82   83 2    
   164   82   84 am   BACKBONE|DICT|INTERRES
   165   84   85 1    
   166   84  205 1    
   167   85   86 1    
   168   85   87 1    
   169   85  206 1    
   170   86  207 1    
   171   86  208 1    
   172   86  209 1    
   173   87   88 2    
   174   87   89 am   BACKBONE|DICT|INTERRES
   175   89   90 1    
   176   89  210 1    
   177   90   91 1    
   178   90   92 1    
   179   90  211 1    
   180   91  212 1    
   181   91  213 1    
   182   91  214 1    
   183   92   93 2    
   184   92   94 am   BACKBONE|DICT|INTERRES
   185   94   95 1    
   186   94  215 1    
   187   95   96 1    
   188   95   97 1    
   189   95  216 1    
   190   96  217 1    
   191   96  218 1    
   192   96  219 1    
   193   97   98 2    
   194   97   99 am   BACKBONE|DICT|INTERRES
   195   99  100 1    
   196   99  220 1    
   197  100  101 1    
   198  100  102 1    
   199  100  221 1    
   200  101  222 1    
   201  101  223 1    
   202  101  224 1    
   203  102  103 2    
   204  102  104 am   BACKBONE|DICT|INTERRES
   205  104  105 1    
   206  104  225 1    
   207  105  106 1    
   208  105  107 1    
   209  105  226 1    
   210  106  227 1    
   211  106  228 1    
   212  106  229 1    
   213  107  108 2    
   214  107  109 am   BACKBONE|DICT|INTERRES
   215  109  110 1    
   216  109  230 1    
   217  110  111 1    
   218  110  112 1    
   219  110  231 1    
   220  111  232 1    
   221  111  233 1    
   222  111  234 1    
   223  112  113 2    
   224  112  114 am   BACKBONE|DICT|INTERRES
   225  114  115 1    
   226  114  235 1    
   227  115  116 1    
   228  115  117 1    
   229  115  236 1    
   230  116  237 1    
   231  116  238 1    
   232  116  239 1    
   233  117  118 2    
   234  117  119 am   BACKBONE|DICT|INTERRES
   235  119  120 1    
   236  119  240 1    
   237  120  121 1    
   238  120  124 1    
   239  120  241 1    
   240  121  122 am   BACKBONE|DICT|INTERRES
   241  121  123 2    
   242  122  242 1    
   243  122  243 1    
   244  124  125 1    
   245  124  244 1    
   246  124  245 1    
   247  125  126 1    
   248  126  246 1    
   249  126  247 1    
@<TRIPOS>SUBSTRUCTURE
     1 UNK         1 GROUP             0       ****    0 ROOT    
