@<TRIPOS>MOLECULE
3R540
247   249    1
SMALL
USER_CHARGES


@<TRIPOS>ATOM
      1 CA         -1.3732  -11.4386  -48.3806 C.3       0 UNK        -0.1800 
      2 C          -0.1716  -12.2662  -47.9498 C.2       0 UNK         0.5000 
      3 O          -0.3470  -13.3536  -47.4028 O.2       0 UNK        -0.5000 
      4 N           1.0454  -11.7569  -48.1903 N.am      1 UNK        -0.5000 
      5 CA          2.3265  -12.4176  -47.9047 C.3       1 UNK         0.1400 
      6 C6          2.5514  -13.6696  -48.7939 C.3       23 UNK        -0.0398 
      7 S7          4.3181  -14.0479  -49.0621 S.3       23 UNK        -0.2404 
      8 C8          4.3179  -14.6670  -50.7780 C.3       23 UNK        -0.0205 
      9 C9          3.3150  -15.7936  -50.9918 C.ar      23 UNK        -0.0193 
     10 C10         2.1721  -15.5779  -51.7657 C.ar      23 UNK        -0.1150 
     11 C11         1.2164  -16.5860  -51.9249 C.ar      23 UNK        -0.0193 
     12 C12         1.4316  -17.8351  -51.3339 C.ar      23 UNK        -0.1150 
     13 C13         2.5787  -18.0681  -50.5685 C.ar      23 UNK        -0.0193 
     14 C14         3.5155  -17.0435  -50.4011 C.ar      23 UNK        -0.1150 
     15 C15         2.8067  -19.4177  -49.9072 C.3       23 UNK        -0.0205 
     16 S16         1.9157  -19.5391  -48.3252 S.3       23 UNK        -0.2404 
     17 C17         0.3132  -20.2546  -48.8343 C.3       23 UNK        -0.0398 
     18 CA         -0.1739  -21.3135  -47.8207 C.3       11 UNK         0.1400 
     19 N          -0.3318  -20.7781  -46.4646 N.am      11 UNK        -0.5000 
     20 C          -0.4208  -21.5373  -45.3667 C.2       10 UNK         0.5000 
     21 O          -0.4266  -22.7693  -45.3820 O.2       10 UNK        -0.5000 
     22 CA         -0.5283  -20.7863  -44.0314 C.3       10 UNK         0.1400 
     23 CB          0.7737  -20.0311  -43.7177 C.3       10 UNK        -0.1800 
     24 N          -1.6546  -19.8540  -43.9782 N.am      10 UNK        -0.5000 
     25 C          -2.9452  -20.2143  -43.9790 C.2       9 UNK         0.5000 
     26 O          -3.3353  -21.3594  -44.2007 O.2       9 UNK        -0.5000 
     27 CA         -3.9720  -19.1156  -43.6671 C.3       9 UNK         0.1400 
     28 CB         -3.6922  -18.4466  -42.3097 C.3       9 UNK        -0.1800 
     29 N          -3.9525  -18.1049  -44.7158 N.am      9 UNK        -0.5000 
     30 C          -4.9383  -17.8933  -45.5979 C.2       8 UNK         0.5000 
     31 O          -6.0225  -18.4759  -45.5669 O.2       8 UNK        -0.5000 
     32 CA         -4.6831  -16.8557  -46.7126 C.3       8 UNK         0.1400 
     33 CB         -5.4164  -15.5438  -46.3941 C.3       8 UNK        -0.1800 
     34 N          -3.2674  -16.5598  -46.9468 N.am      8 UNK        -0.5000 
     35 C          -2.3491  -17.4498  -47.3466 C.2       7 UNK         0.5000 
     36 O          -2.6020  -18.6217  -47.6170 O.2       7 UNK        -0.5000 
     37 CA         -0.8915  -16.9694  -47.3828 C.3       7 UNK         0.1400 
     38 CB         -0.5448  -16.4266  -48.7715 C.3       7 UNK        -0.1800 
     39 N          -0.5608  -15.9604  -46.3782 N.am      7 UNK        -0.5000 
     40 C          -0.6582  -16.1087  -45.0523 C.2       6 UNK         0.5000 
     41 O          -1.1507  -17.0980  -44.5063 O.2       6 UNK        -0.5000 
     42 CA         -0.0374  -14.9787  -44.2189 C.3       6 UNK         0.1400 
     43 CB         -0.7781  -14.7188  -42.8909 C.3       6 UNK        -0.1800 
     44 N           1.3899  -15.2582  -44.0356 N.am      6 UNK        -0.5000 
     45 C           1.9601  -16.1944  -43.2624 C.2       5 UNK         0.5000 
     46 O           1.3604  -16.8723  -42.4283 O.2       5 UNK        -0.5000 
     47 CA          3.4533  -16.4490  -43.5280 C.3       5 UNK         0.1400 
     48 CB          4.0281  -17.6009  -42.6781 C.3       5 UNK        -0.1800 
     49 N           3.6056  -16.7550  -44.9503 N.am      5 UNK        -0.5000 
     50 C           4.6536  -16.5443  -45.7561 C.2       4 UNK         0.5000 
     51 O           4.6100  -16.8798  -46.9379 O.2       4 UNK        -0.5000 
     52 CA          5.9291  -15.8699  -45.2110 C.3       4 UNK         0.1400 
     53 CB          7.1207  -15.9890  -46.1861 C.3       4 UNK        -0.1800 
     54 N           5.6830  -14.4597  -44.9100 N.am      4 UNK        -0.5000 
     55 C           6.4153  -13.7418  -44.0458 C.2       3 UNK         0.5000 
     56 O           7.3354  -14.2188  -43.3798 O.2       3 UNK        -0.5000 
     57 CA          6.0994  -12.2404  -43.8941 C.3       3 UNK         0.1400 
     58 CB          7.0627  -11.4061  -44.7529 C.3       3 UNK        -0.1800 
     59 N           4.7280  -11.8805  -44.2462 N.am      3 UNK        -0.5000 
     60 C           3.6442  -12.1712  -43.5155 C.2       2 UNK         0.5000 
     61 O           3.6818  -12.7725  -42.4420 O.2       2 UNK        -0.5000 
     62 CA          2.2838  -11.7355  -44.0982 C.3       2 UNK         0.1400 
     63 CB          1.8677  -10.3713  -43.5288 C.3       2 UNK        -0.1800 
     64 N           2.2426  -11.6735  -45.5652 N.am      2 UNK        -0.5000 
     65 C           2.5048  -12.6956  -46.3932 C.2       1 UNK         0.5000 
     66 O           2.8476  -13.8087  -45.9918 O.2       1 UNK        -0.5000 
     67 C          -1.4591  -22.0156  -48.2945 C.2       11 UNK         0.5000 
     68 O          -1.3715  -23.0664  -48.9282 O.2       11 UNK        -0.5000 
     69 N          -2.6202  -21.4653  -47.9116 N.am      12 UNK        -0.5000 
     70 CA         -3.9401  -22.0627  -48.0896 C.3       12 UNK         0.1400 
     71 CB         -5.0098  -21.1240  -47.5133 C.3       12 UNK        -0.1800 
     72 C          -4.0434  -23.4525  -47.4401 C.2       12 UNK         0.5000 
     73 O          -4.4458  -24.3978  -48.1143 O.2       12 UNK        -0.5000 
     74 N          -3.6434  -23.5666  -46.1643 N.am      13 UNK        -0.5000 
     75 CA         -3.6238  -24.8266  -45.4186 C.3       13 UNK         0.1400 
     76 CB         -3.2993  -24.5605  -43.9415 C.3       13 UNK        -0.1800 
     77 C          -2.6505  -25.8590  -46.0127 C.2       13 UNK         0.5000 
     78 O          -3.0159  -27.0285  -46.1352 O.2       13 UNK        -0.5000 
     79 N          -1.4538  -25.4064  -46.4148 N.am      14 UNK        -0.5000 
     80 CA         -0.4334  -26.2282  -47.0731 C.3       14 UNK         0.1400 
     81 CB          0.8553  -25.4089  -47.2372 C.3       14 UNK        -0.1800 
     82 C          -0.8948  -26.7983  -48.4299 C.2       14 UNK         0.5000 
     83 O          -0.5705  -27.9412  -48.7533 O.2       14 UNK        -0.5000 
     84 N          -1.6723  -26.0054  -49.1769 N.am      15 UNK        -0.5000 
     85 CA         -2.2906  -26.3756  -50.4501 C.3       15 UNK         0.1400 
     86 CB         -2.4300  -25.1044  -51.2995 C.3       15 UNK        -0.1800 
     87 C          -3.6570  -27.0764  -50.2901 C.2       15 UNK         0.5000 
     88 O          -4.3080  -27.3456  -51.3003 O.2       15 UNK        -0.5000 
     89 N          -4.0935  -27.3325  -49.0463 N.am      16 UNK        -0.5000 
     90 CA         -5.3695  -27.9518  -48.6612 C.3       16 UNK         0.1400 
     91 CB         -5.3787  -29.4453  -49.0471 C.3       16 UNK        -0.1800 
     92 C          -6.6076  -27.1885  -49.1865 C.2       16 UNK         0.5000 
     93 O          -7.6162  -27.8043  -49.5349 O.2       16 UNK        -0.5000 
     94 N          -6.4867  -25.8550  -49.2526 N.am      17 UNK        -0.5000 
     95 CA         -7.4445  -24.8657  -49.7556 C.3       17 UNK         0.1400 
     96 CB         -8.7242  -24.8557  -48.8950 C.3       17 UNK        -0.1800 
     97 C          -7.7511  -24.9699  -51.2662 C.2       17 UNK         0.5000 
     98 O          -8.6747  -24.3039  -51.7369 O.2       17 UNK        -0.5000 
     99 N          -6.9793  -25.7733  -52.0126 N.am      18 UNK        -0.5000 
    100 CA        -7.1540  -25.9718  -53.4530 C.3       18 UNK         0.1400 
    101 CB        -6.5579  -27.3322  -53.8461 C.3       18 UNK        -0.1800 
    102 C         -6.5234  -24.8474  -54.2961 C.2       18 UNK         0.5000 
    103 O         -6.9089  -24.6742  -55.4532 O.2       18 UNK        -0.5000 
    104 N         -5.5652  -24.1154  -53.7172 N.am      19 UNK        -0.5000 
    105 CA        -4.7889  -23.0527  -54.3470 C.3       19 UNK         0.1400 
    106 CB        -3.7734  -23.6653  -55.3365 C.3       19 UNK        -0.1800 
    107 C         -4.0819  -22.2370  -53.2510 C.2       19 UNK         0.5000 
    108 O         -4.2770  -22.5062  -52.0640 O.2       19 UNK        -0.5000 
    109 N         -3.2655  -21.2622  -53.6767 N.am      20 UNK        -0.5000 
    110 CA        -2.2780  -20.4980  -52.8976 C.3       20 UNK         0.1400 
    111 CB        -1.1999  -21.4422  -52.3321 C.3       20 UNK        -0.1800 
    112 C         -2.8365  -19.5652  -51.8021 C.2       20 UNK         0.5000 
    113 O         -2.0529  -18.8870  -51.1384 O.2       20 UNK        -0.5000 
    114 N         -4.1629  -19.4965  -51.6507 N.am      21 UNK        -0.5000 
    115 CA        -4.8716  -18.6716  -50.6737 C.3       21 UNK         0.1400 
    116 CB        -6.2312  -19.3350  -50.3840 C.3       21 UNK        -0.1800 
    117 C         -5.0163  -17.2116  -51.1546 C.2       21 UNK         0.5000 
    118 O         -6.1328  -16.6961  -51.2307 O.2       21 UNK        -0.5000 
    119 N         -3.8910  -16.5771  -51.5064 N.am      22 UNK        -0.5000 
    120 CA        -3.8411  -15.2114  -52.0581 C.3       22 UNK         0.1400 
    121 C         -4.0930  -14.0642  -51.0323 C.2       22 UNK         0.5000 
    122 N         -4.1063  -14.3260  -49.7311 N.am      22 UNK        -0.7600 
    123 O         -4.2938  -12.9191  -51.4278 O.2       22 UNK        -0.5000 
    124 C124       -2.5628  -14.9750  -52.9043 C.3       23 UNK        -0.0398 
    125 S125       -1.0237  -14.9800  -51.9243 S.3       23 UNK        -0.2404 
    126 C126       -0.0583  -16.3087  -52.7091 C.3       23 UNK        -0.0205 
    127 H127       -1.9579  -11.9885  -49.1185 H         1 UNK         0.0600 
    128 H128       -1.0746  -10.4877  -48.8222 H         1 UNK         0.0600 
    129 H129       -2.0125  -11.2312  -47.5226 H         1 UNK         0.0600 
    130 H130        1.1154  -10.8510  -48.6328 H         1 UNK         0.3000 
    131 H131        3.0890  -11.6823  -48.1663 H         1 UNK         0.0600 
    132 H132        2.0944  -13.5004  -49.7694 H         1 UNK         0.0800 
    133 H133        2.0544  -14.5498  -48.3839 H         1 UNK         0.0800 
    134 H134        4.1151  -13.8354  -51.4546 H         1 UNK         0.0800 
    135 H135        5.3182  -15.0252  -51.0247 H         1 UNK         0.0800 
    136 H136        2.0033  -14.6106  -52.2179 H         1 UNK         0.1150 
    137 H137        0.6948  -18.6177  -51.4461 H         1 UNK         0.1150 
    138 H138        4.3922  -17.2090  -49.7899 H         1 UNK         0.1150 
    139 H139        2.5209  -20.2260  -50.5812 H         1 UNK         0.0800 
    140 H140        3.8710  -19.5562  -49.7110 H         1 UNK         0.0800 
    141 H141        0.4268  -20.7166  -49.8140 H         1 UNK         0.0800 
    142 H142       -0.4184  -19.4575  -48.9605 H         1 UNK         0.0800 
    143 H143        0.5980  -22.0849  -47.7721 H         1 UNK         0.0600 
    144 H144       -0.3567  -19.7754  -46.3682 H         1 UNK         0.3000 
    145 H145       -0.6783  -21.5334  -43.2491 H         1 UNK         0.0600 
    146 H146        0.7484  -19.6088  -42.7130 H         1 UNK         0.0600 
    147 H147        1.6367  -20.6962  -43.7680 H         1 UNK         0.0600 
    148 H148        0.9478  -19.2115  -44.4160 H         1 UNK         0.0600 
    149 H149       -1.4218  -18.8692  -43.8794 H         1 UNK         0.3000 
    150 H150       -4.9517  -19.5940  -43.6052 H         1 UNK         0.0600 
    151 H151       -4.4836  -17.7423  -42.0532 H         1 UNK         0.0600 
    152 H152       -2.7493  -17.8982  -42.3070 H         1 UNK         0.0600 
    153 H153       -3.6455  -19.1878  -41.5109 H         1 UNK         0.0600 
    154 H154       -3.0779  -17.6040  -44.8285 H         1 UNK         0.3000 
    155 H155       -5.0958  -17.2664  -47.6363 H         1 UNK         0.0600 
    156 H156       -6.4810  -15.7196  -46.2333 H         1 UNK         0.0600 
    157 H157       -5.3303  -14.8293  -47.2117 H         1 UNK         0.0600 
    158 H158       -5.0224  -15.0729  -45.4925 H         1 UNK         0.0600 
    159 H159       -2.9528  -15.6286  -46.7151 H         1 UNK         0.3000 
    160 H160       -0.2594  -17.8342  -47.1832 H         1 UNK         0.0600 
    161 H161       -0.8264  -17.1307  -49.5540 H         1 UNK         0.0600 
    162 H162        0.5258  -16.2515  -48.8705 H         1 UNK         0.0600 
    163 H163       -1.0617  -15.4887  -48.9756 H         1 UNK         0.0600 
    164 H164       -0.2327  -15.0682  -46.7445 H         1 UNK         0.3000 
    165 H165       -0.0972  -14.0589  -44.8021 H         1 UNK         0.0600 
    166 H166       -0.2722  -13.9549  -42.3007 H         1 UNK         0.0600 
    167 H167       -1.7917  -14.3657  -43.0826 H         1 UNK         0.0600 
    168 H168       -0.8649  -15.6153  -42.2770 H         1 UNK         0.0600 
    169 H169        1.9926  -14.8027  -44.7197 H         1 UNK         0.3000 
    170 H170        3.9727  -15.5276  -43.2676 H         1 UNK         0.0600 
    171 H171        5.0909  -17.7532  -42.8583 H         1 UNK         0.0600 
    172 H172        3.9108  -17.3942  -41.6137 H         1 UNK         0.0600 
    173 H173        3.5196  -18.5430  -42.8874 H         1 UNK         0.0600 
    174 H174        2.7845  -17.1652  -45.3703 H         1 UNK         0.3000 
    175 H175        6.2036  -16.3926  -44.2944 H         1 UNK         0.0600 
    176 H176        6.9369  -15.4398  -47.1105 H         1 UNK         0.0600 
    177 H177        8.0392  -15.6021  -45.7450 H         1 UNK         0.0600 
    178 H178        7.3067  -17.0303  -46.4519 H         1 UNK         0.0600 
    179 H179        4.8970  -14.0346  -45.3901 H         1 UNK         0.3000 
    180 H180        6.2624  -11.9761  -42.8470 H         1 UNK         0.0600 
    181 H181        6.9070  -10.3383  -44.5978 H         1 UNK         0.0600 
    182 H182        6.9367  -11.6145  -45.8162 H         1 UNK         0.0600 
    183 H183        8.1012  -11.6216  -44.4975 H         1 UNK         0.0600 
    184 H184        4.5985  -11.3836  -45.1149 H         1 UNK         0.3000 
    185 H185        1.5445  -12.4698  -43.7770 H         1 UNK         0.0600 
    186 H186        2.5495   -9.5798  -43.8422 H         1 UNK         0.0600 
    187 H187        0.8630  -10.0983  -43.8522 H         1 UNK         0.0600 
    188 H188        1.8624  -10.3877  -42.4381 H         1 UNK         0.0600 
    189 H189        1.9463  -10.7961  -45.9681 H         1 UNK         0.3000 
    190 H190       -2.5953  -20.5493  -47.4740 H         1 UNK         0.3000 
    191 H191       -4.1114  -22.1707  -49.1630 H         1 UNK         0.0600 
    192 H192       -4.9174  -21.0183  -46.4323 H         1 UNK         0.0600 
    193 H193       -6.0122  -21.4998  -47.7211 H         1 UNK         0.0600 
    194 H194       -4.9373  -20.1267  -47.9432 H         1 UNK         0.0600 
    195 H195       -3.3449  -22.7387  -45.6576 H         1 UNK         0.3000 
    196 H196       -4.6270  -25.2552  -45.4698 H         1 UNK         0.0600 
    197 H197       -3.2691  -25.4906  -43.3727 H         1 UNK         0.0600 
    198 H198       -4.0557  -23.9245  -43.4818 H         1 UNK         0.0600 
    199 H199       -2.3326  -24.0699  -43.8229 H         1 UNK         0.0600 
    200 H200       -1.2188  -24.4332  -46.2445 H         1 UNK         0.3000 
    201 H201       -0.2170  -27.0732  -46.4164 H         1 UNK         0.0600 
    202 H202        1.2158  -25.0422  -46.2759 H         1 UNK         0.0600 
    203 H203        0.7042  -24.5482  -47.8886 H         1 UNK         0.0600 
    204 H204        1.6498  -26.0151  -47.6740 H         1 UNK         0.0600 
    205 H205       -1.8445  -25.0564  -48.8589 H         1 UNK         0.3000 
    206 H206       -1.6353  -27.0675  -50.9826 H         1 UNK         0.0600 
    207 H207       -1.4602  -24.6401  -51.4786 H         1 UNK         0.0600 
    208 H208       -2.8743  -25.3147  -52.2730 H         1 UNK         0.0600 
    209 H209       -3.0607  -24.3717  -50.7961 H         1 UNK         0.0600 
    210 H210       -3.5062  -27.0441  -48.2733 H         1 UNK         0.3000 
    211 H211       -5.4185  -27.8914  -47.5732 H         1 UNK         0.0600 
    212 H212       -5.3858  -29.5833  -50.1288 H         1 UNK         0.0600 
    213 H213       -6.2595  -29.9485  -48.6469 H         1 UNK         0.0600 
    214 H214       -4.5041  -29.9598  -48.6489 H         1 UNK         0.0600 
    215 H215       -5.6141  -25.4498  -48.9116 H         1 UNK         0.3000 
    216 H216       -6.9570  -23.8986  -49.6236 H         1 UNK         0.0600 
    217 H217       -9.3691  -24.0171  -49.1600 H         1 UNK         0.0600 
    218 H218       -8.4858  -24.7561  -47.8361 H         1 UNK         0.0600 
    219 H219       -9.3070  -25.7679  -49.0246 H         1 UNK         0.0600 
    220 H220       -6.2304  -26.2933  -51.5697 H         1 UNK         0.3000 
    221 H221       -8.2221  -25.9968  -53.6792 H         1 UNK         0.0600 
    222 H222       -5.4768  -27.3539  -53.7057 H         1 UNK         0.0600 
    223 H223       -6.9899  -28.1399  -53.2548 H         1 UNK         0.0600 
    224 H224       -6.7547  -27.5549  -54.8955 H         1 UNK         0.0600 
    225 H225       -5.3429  -24.2660  -52.7412 H         1 UNK         0.3000 
    226 H226       -5.4679  -22.3843  -54.8798 H         1 UNK         0.0600 
    227 H227       -4.2684  -24.2603  -56.1037 H         1 UNK         0.0600 
    228 H228       -3.2044  -22.8954  -55.8580 H         1 UNK         0.0600 
    229 H229       -3.0597  -24.3122  -54.8247 H         1 UNK         0.0600 
    230 H230       -3.2289  -21.0921  -54.6722 H         1 UNK         0.3000 
    231 H231       -1.7870  -19.8409  -53.6167 H         1 UNK         0.0600 
    232 H232       -1.5845  -22.0451  -51.5090 H         1 UNK         0.0600 
    233 H233       -0.8237  -22.1207  -53.0977 H         1 UNK         0.0600 
    234 H234       -0.3469  -20.8764  -51.9600 H         1 UNK         0.0600 
    235 H235       -4.7311  -20.0895  -52.2368 H         1 UNK         0.3000 
    236 H236       -4.2984  -18.6545  -49.7453 H         1 UNK         0.0600 
    237 H237       -6.8837  -19.3157  -51.2578 H         1 UNK         0.0600 
    238 H238       -6.1097  -20.3775  -50.0903 H         1 UNK         0.0600 
    239 H239       -6.7501  -18.8246  -49.5716 H         1 UNK         0.0600 
    240 H240       -3.0078  -17.0650  -51.4040 H         1 UNK         0.3000 
    241 H241       -4.6749  -15.1366  -52.7590 H         1 UNK         0.0600 
    242 H242       -4.2791  -13.5763  -49.0819 H         1 UNK         0.3800 
    243 H243       -3.9423  -15.2611  -49.4006 H         1 UNK         0.3800 
    244 H244       -2.4990  -15.7288  -53.6900 H         1 UNK         0.0800 
    245 H245       -2.6279  -14.0179  -53.4245 H         1 UNK         0.0800 
    246 H246        0.1981  -16.0205  -53.7293 H         1 UNK         0.0800 
    247 H247       -0.6706  -17.2085  -52.7783 H         1 UNK         0.0800 
@<TRIPOS>BOND
     1    1    2 1    
     2    1  127 1    
     3    1  128 1    
     4    1  129 1    
     5    2    3 2    
     6    2    4 am   BACKBONE|DICT|INTERRES
     7    4    5 1    
     8    4  130 1    
     9    5    6 1    
    10    5   65 1    
    11    5  131 1    
    12    6    7 1    
    13    6  132 1    
    14    6  133 1    
    15    7    8 1    
    16    8    9 1    
    17    8  134 1    
    18    8  135 1    
    19    9   10 ar   
    20    9   14 ar   
    21   10   11 ar   
    22   10  136 1    
    23   11   12 ar   
    24   11  126 1    
    25   12   13 ar   
    26   12  137 1    
    27   13   14 ar   
    28   13   15 1    
    29   14  138 1    
    30   15   16 1    
    31   15  139 1    
    32   15  140 1    
    33   16   17 1    
    34   17   18 1    
    35   17  141 1    
    36   17  142 1    
    37   18   19 1    
    38   18   67 1    
    39   18  143 1    
    40   19   20 am   BACKBONE|DICT|INTERRES
    41   19  144 1    
    42   20   21 2    
    43   20   22 1    
    44   22   23 1    
    45   22   24 1    
    46   22  145 1    
    47   23  146 1    
    48   23  147 1    
    49   23  148 1    
    50   24   25 am   BACKBONE|DICT|INTERRES
    51   24  149 1    
    52   25   26 2    
    53   25   27 1    
    54   27   28 1    
    55   27   29 1    
    56   27  150 1    
    57   28  151 1    
    58   28  152 1    
    59   28  153 1    
    60   29   30 am   BACKBONE|DICT|INTERRES
    61   29  154 1    
    62   30   31 2    
    63   30   32 1    
    64   32   33 1    
    65   32   34 1    
    66   32  155 1    
    67   33  156 1    
    68   33  157 1    
    69   33  158 1    
    70   34   35 am   BACKBONE|DICT|INTERRES
    71   34  159 1    
    72   35   36 2    
    73   35   37 1    
    74   37   38 1    
    75   37   39 1    
    76   37  160 1    
    77   38  161 1    
    78   38  162 1    
    79   38  163 1    
    80   39   40 am   BACKBONE|DICT|INTERRES
    81   39  164 1    
    82   40   41 2    
    83   40   42 1    
    84   42   43 1    
    85   42   44 1    
    86   42  165 1    
    87   43  166 1    
    88   43  167 1    
    89   43  168 1    
    90   44   45 am   BACKBONE|DICT|INTERRES
    91   44  169 1    
    92   45   46 2    
    93   45   47 1    
    94   47   48 1    
    95   47   49 1    
    96   47  170 1    
    97   48  171 1    
    98   48  172 1    
    99   48  173 1    
   100   49   50 am   BACKBONE|DICT|INTERRES
   101   49  174 1    
   102   50   51 2    
   103   50   52 1    
   104   52   53 1    
   105   52   54 1    
   106   52  175 1    
   107   53  176 1    
   108   53  177 1    
   109   53  178 1    
   110   54   55 am   BACKBONE|DICT|INTERRES
   111   54  179 1    
   112   55   56 2    
   113   55   57 1    
   114   57   58 1    
   115   57   59 1    
   116   57  180 1    
   117   58  181 1    
   118   58  182 1    
   119   58  183 1    
   120   59   60 am   BACKBONE|DICT|INTERRES
   121   59  184 1    
   122   60   61 2    
   123   60   62 1    
   124   62   63 1    
   125   62   64 1    
   126   62  185 1    
   127   63  186 1    
   128   63  187 1    
   129   63  188 1    
   130   64   65 am   BACKBONE|DICT|INTERRES
   131   64  189 1    
   132   65   66 2    
   133   67   68 2    
   134   67   69 am   BACKBONE|DICT|INTERRES
   135   69   70 1    
   136   69  190 1    
   137   70   71 1    
   138   70   72 1    
   139   70  191 1    
   140   71  192 1    
   141   71  193 1    
   142   71  194 1    
   143   72   73 2    
   144   72   74 am   BACKBONE|DICT|INTERRES
   145   74   75 1    
   146   74  195 1    
   147   75   76 1    
   148   75   77 1    
   149   75  196 1    
   150   76  197 1    
   151   76  198 1    
   152   76  199 1    
   153   77   78 2    
   154   77   79 am   BACKBONE|DICT|INTERRES
   155   79   80 1    
   156   79  200 1    
   157   80   81 1    
   158   80   82 1    
   159   80  201 1    
   160   81  202 1    
   161   81  203 1    
   162   81  204 1    
   163   82   83 2    
   164   82   84 am   BACKBONE|DICT|INTERRES
   165   84   85 1    
   166   84  205 1    
   167   85   86 1    
   168   85   87 1    
   169   85  206 1    
   170   86  207 1    
   171   86  208 1    
   172   86  209 1    
   173   87   88 2    
   174   87   89 am   BACKBONE|DICT|INTERRES
   175   89   90 1    
   176   89  210 1    
   177   90   91 1    
   178   90   92 1    
   179   90  211 1    
   180   91  212 1    
   181   91  213 1    
   182   91  214 1    
   183   92   93 2    
   184   92   94 am   BACKBONE|DICT|INTERRES
   185   94   95 1    
   186   94  215 1    
   187   95   96 1    
   188   95   97 1    
   189   95  216 1    
   190   96  217 1    
   191   96  218 1    
   192   96  219 1    
   193   97   98 2    
   194   97   99 am   BACKBONE|DICT|INTERRES
   195   99  100 1    
   196   99  220 1    
   197  100  101 1    
   198  100  102 1    
   199  100  221 1    
   200  101  222 1    
   201  101  223 1    
   202  101  224 1    
   203  102  103 2    
   204  102  104 am   BACKBONE|DICT|INTERRES
   205  104  105 1    
   206  104  225 1    
   207  105  106 1    
   208  105  107 1    
   209  105  226 1    
   210  106  227 1    
   211  106  228 1    
   212  106  229 1    
   213  107  108 2    
   214  107  109 am   BACKBONE|DICT|INTERRES
   215  109  110 1    
   216  109  230 1    
   217  110  111 1    
   218  110  112 1    
   219  110  231 1    
   220  111  232 1    
   221  111  233 1    
   222  111  234 1    
   223  112  113 2    
   224  112  114 am   BACKBONE|DICT|INTERRES
   225  114  115 1    
   226  114  235 1    
   227  115  116 1    
   228  115  117 1    
   229  115  236 1    
   230  116  237 1    
   231  116  238 1    
   232  116  239 1    
   233  117  118 2    
   234  117  119 am   BACKBONE|DICT|INTERRES
   235  119  120 1    
   236  119  240 1    
   237  120  121 1    
   238  120  124 1    
   239  120  241 1    
   240  121  122 am   BACKBONE|DICT|INTERRES
   241  121  123 2    
   242  122  242 1    
   243  122  243 1    
   244  124  125 1    
   245  124  244 1    
   246  124  245 1    
   247  125  126 1    
   248  126  246 1    
   249  126  247 1    
@<TRIPOS>SUBSTRUCTURE
     1 UNK         1 GROUP             0       ****    0 ROOT    
