@<TRIPOS>MOLECULE
3R540
247   249    1
SMALL
USER_CHARGES


@<TRIPOS>ATOM
      1 CA         -3.7310   -9.3846  -46.3660 C.3       0 UNK        -0.1800 
      2 C          -3.0760   -9.9237  -47.6295 C.2       0 UNK         0.5000 
      3 O          -2.1004   -9.3464  -48.1087 O.2       0 UNK        -0.5000 
      4 N          -3.6125  -11.0231  -48.1733 N.am      1 UNK        -0.5000 
      5 CA         -3.0888  -11.7185  -49.3556 C.3       1 UNK         0.1400 
      6 C6         -4.1633  -12.5971  -50.0447 C.3       23 UNK        -0.0398 
      7 S7         -5.0816  -13.7079  -48.9168 S.3       23 UNK        -0.2404 
      8 C8         -4.8770  -15.3289  -49.7170 C.3       23 UNK        -0.0205 
      9 C9         -3.6388  -16.0572  -49.2202 C.ar      23 UNK        -0.0193 
     10 C10        -2.4184  -15.9246  -49.8855 C.ar      23 UNK        -0.1150 
     11 C11        -1.2907  -16.6254  -49.4470 C.ar      23 UNK        -0.0193 
     12 C12        -1.3941  -17.4748  -48.3406 C.ar      23 UNK        -0.1150 
     13 C13        -2.6113  -17.6171  -47.6658 C.ar      23 UNK        -0.0193 
     14 C14        -3.7239  -16.8921  -48.1037 C.ar      23 UNK        -0.1150 
     15 C15        -2.7334  -18.5492  -46.4672 C.3       23 UNK        -0.0205 
     16 S16        -3.9798  -19.8432  -46.7584 S.3       23 UNK        -0.2404 
     17 C17        -3.9222  -20.8016  -45.2076 C.3       23 UNK        -0.0398 
     18 CA         -3.0903  -22.0898  -45.4022 C.3       11 UNK         0.1400 
     19 N          -1.6452  -21.8508  -45.3452 N.am      11 UNK        -0.5000 
     20 C          -0.7246  -22.6962  -45.8340 C.2       10 UNK         0.5000 
     21 O          -1.0142  -23.7624  -46.3747 O.2       10 UNK        -0.5000 
     22 CA          0.7589  -22.3292  -45.6503 C.3       10 UNK         0.1400 
     23 CB          1.3238  -21.7460  -46.9536 C.3       10 UNK        -0.1800 
     24 N           0.9901  -21.4004  -44.5405 N.am      10 UNK        -0.5000 
     25 C           0.7840  -21.7051  -43.2487 C.2       9 UNK         0.5000 
     26 O           0.4072  -22.8152  -42.8716 O.2       9 UNK        -0.5000 
     27 CA          0.9839  -20.5915  -42.2003 C.3       9 UNK         0.1400 
     28 CB          2.3502  -20.7419  -41.5150 C.3       9 UNK        -0.1800 
     29 N           0.8603  -19.2317  -42.7279 N.am      9 UNK        -0.5000 
     30 C          -0.2300  -18.7182  -43.3146 C.2       8 UNK         0.5000 
     31 O          -1.2822  -19.3388  -43.4656 O.2       8 UNK        -0.5000 
     32 CA         -0.0931  -17.2968  -43.8910 C.3       8 UNK         0.1400 
     33 CB         -0.3599  -16.2431  -42.8066 C.3       8 UNK        -0.1800 
     34 N           1.2163  -17.0564  -44.5035 N.am      8 UNK        -0.5000 
     35 C           1.7089  -17.7439  -45.5450 C.2       7 UNK         0.5000 
     36 O           1.1019  -18.6511  -46.1087 O.2       7 UNK        -0.5000 
     37 CA          3.1351  -17.3957  -45.9984 C.3       7 UNK         0.1400 
     38 CB          3.1413  -16.1523  -46.9014 C.3       7 UNK        -0.1800 
     39 N           4.0102  -17.1844  -44.8464 N.am      7 UNK        -0.5000 
     40 C           4.5414  -18.1772  -44.1178 C.2       6 UNK         0.5000 
     41 O           4.4234  -19.3696  -44.3998 O.2       6 UNK        -0.5000 
     42 CA          5.3174  -17.7753  -42.8481 C.3       6 UNK         0.1400 
     43 CB          6.8066  -17.5780  -43.1682 C.3       6 UNK        -0.1800 
     44 N           4.7989  -16.5600  -42.2178 N.am      6 UNK        -0.5000 
     45 C           3.5978  -16.4566  -41.6314 C.2       5 UNK         0.5000 
     46 O           2.8108  -17.3954  -41.5185 O.2       5 UNK        -0.5000 
     47 CA          3.1849  -15.0523  -41.1460 C.3       5 UNK         0.1400 
     48 CB          3.6572  -14.8206  -39.7035 C.3       5 UNK        -0.1800 
     49 N           3.6871  -13.9717  -42.0021 N.am      5 UNK        -0.5000 
     50 C           3.3975  -13.8366  -43.3026 C.2       4 UNK         0.5000 
     51 O           2.6476  -14.6022  -43.9165 O.2       4 UNK        -0.5000 
     52 CA          4.1145  -12.7071  -44.0541 C.3       4 UNK         0.1400 
     53 CB          5.6277  -12.9920  -44.1478 C.3       4 UNK        -0.1800 
     54 N           3.5433  -12.6149  -45.3925 N.am      4 UNK        -0.5000 
     55 C           3.6882  -11.6023  -46.2521 C.2       3 UNK         0.5000 
     56 O           4.3216  -10.5767  -45.9990 O.2       3 UNK        -0.5000 
     57 CA          3.0294  -11.7624  -47.6370 C.3       3 UNK         0.1400 
     58 CB          4.0715  -12.2208  -48.6692 C.3       3 UNK        -0.1800 
     59 N           1.9040  -12.7013  -47.6622 N.am      3 UNK        -0.5000 
     60 C           0.7051  -12.4623  -47.1177 C.2       2 UNK         0.5000 
     61 O           0.4327  -11.4454  -46.4767 O.2       2 UNK        -0.5000 
     62 CA         -0.3712  -13.5422  -47.3231 C.3       2 UNK         0.1400 
     63 CB         -0.6520  -14.2957  -46.0168 C.3       2 UNK        -0.1800 
     64 N          -1.6068  -12.9350  -47.8068 N.am      2 UNK        -0.5000 
     65 C          -1.7930  -12.5041  -49.0616 C.2       1 UNK         0.5000 
     66 O          -0.9797  -12.6834  -49.9689 O.2       1 UNK        -0.5000 
     67 C          -3.5659  -23.2616  -44.5157 C.2       11 UNK         0.5000 
     68 O          -4.6801  -23.7455  -44.7206 O.2       11 UNK        -0.5000 
     69 N          -2.7056  -23.7623  -43.6162 N.am      12 UNK        -0.5000 
     70 CA         -2.9098  -25.0260  -42.9056 C.3       12 UNK         0.1400 
     71 CB         -1.8496  -25.1622  -41.8033 C.3       12 UNK        -0.1800 
     72 C          -2.8765  -26.2543  -43.8415 C.2       12 UNK         0.5000 
     73 O          -3.5340  -27.2536  -43.5478 O.2       12 UNK        -0.5000 
     74 N          -2.1444  -26.1597  -44.9620 N.am      13 UNK        -0.5000 
     75 CA         -2.0423  -27.1946  -45.9887 C.3       13 UNK         0.1400 
     76 CB         -0.6410  -27.1393  -46.6241 C.3       13 UNK        -0.1800 
     77 C          -3.1699  -27.0288  -47.0241 C.2       13 UNK         0.5000 
     78 O          -2.9097  -26.6650  -48.1726 O.2       13 UNK        -0.5000 
     79 N          -4.4123  -27.2724  -46.5817 N.am      14 UNK        -0.5000 
     80 CA         -5.6507  -27.2666  -47.3717 C.3       14 UNK         0.1400 
     81 CB         -5.6804  -28.4865  -48.3164 C.3       14 UNK        -0.1800 
     82 C          -5.8855  -25.9351  -48.1152 C.2       14 UNK         0.5000 
     83 O          -6.0839  -25.9292  -49.3327 O.2       14 UNK        -0.5000 
     84 N          -5.8055  -24.8233  -47.3678 N.am      15 UNK        -0.5000 
     85 CA         -5.9147  -23.4427  -47.8539 C.3       15 UNK         0.1400 
     86 CB         -7.3422  -23.1478  -48.3619 C.3       15 UNK        -0.1800 
     87 C          -4.8227  -23.0958  -48.8868 C.2       15 UNK         0.5000 
     88 O          -5.1086  -22.4226  -49.8752 O.2       15 UNK        -0.5000 
     89 N          -3.6004  -23.5931  -48.6422 N.am      16 UNK        -0.5000 
     90 CA         -2.4035  -23.4668  -49.4774 C.3       16 UNK         0.1400 
     91 CB         -1.9545  -21.9929  -49.5906 C.3       16 UNK        -0.1800 
     92 C          -2.6018  -24.1620  -50.8360 C.2       16 UNK         0.5000 
     93 O          -2.3507  -23.5642  -51.8812 O.2       16 UNK        -0.5000 
     94 N          -3.0817  -25.4138  -50.7740 N.am      17 UNK        -0.5000 
     95 CA         -3.4756  -26.2741  -51.8925 C.3       17 UNK         0.1400 
     96 CB         -2.2361  -26.7198  -52.6960 C.3       17 UNK        -0.1800 
     97 C          -4.5725  -25.6292  -52.7665 C.2       17 UNK         0.5000 
     98 O          -4.4308  -25.5605  -53.9889 O.2       17 UNK        -0.5000 
     99 N          -5.6421  -25.1617  -52.1043 N.am      18 UNK        -0.5000 
    100 CA        -6.7866  -24.4367  -52.6651 C.3       18 UNK         0.1400 
    101 CB        -7.6299  -25.3581  -53.5709 C.3       18 UNK        -0.1800 
    102 C         -6.3602  -23.1258  -53.3587 C.2       18 UNK         0.5000 
    103 O         -6.5586  -22.9567  -54.5639 O.2       18 UNK        -0.5000 
    104 N         -5.7493  -22.2325  -52.5711 N.am      19 UNK        -0.5000 
    105 CA        -5.2102  -20.9084  -52.8952 C.3       19 UNK         0.1400 
    106 CB        -6.2877  -19.9723  -53.4745 C.3       19 UNK        -0.1800 
    107 C         -3.9501  -20.9278  -53.7768 C.2       19 UNK         0.5000 
    108 O         -3.0224  -20.1729  -53.4909 O.2       19 UNK        -0.5000 
    109 N         -3.9434  -21.7515  -54.8354 N.am      20 UNK        -0.5000 
    110 CA        -2.8310  -22.0348  -55.7565 C.3       20 UNK         0.1400 
    111 CB        -1.8077  -22.9574  -55.0669 C.3       20 UNK        -0.1800 
    112 C         -2.1604  -20.7876  -56.3807 C.2       20 UNK         0.5000 
    113 O         -0.9711  -20.8256  -56.7022 O.2       20 UNK        -0.5000 
    114 N         -2.9351  -19.7022  -56.5280 N.am      21 UNK        -0.5000 
    115 CA        -2.5210  -18.3705  -56.9829 C.3       21 UNK         0.1400 
    116 CB        -2.0966  -18.4035  -58.4669 C.3       21 UNK        -0.1800 
    117 C         -1.4733  -17.6923  -56.0669 C.2       21 UNK         0.5000 
    118 O         -0.6525  -16.9129  -56.5553 O.2       21 UNK        -0.5000 
    119 N         -1.5246  -17.9795  -54.7561 N.am      22 UNK        -0.5000 
    120 CA        -0.6904  -17.3422  -53.7194 C.3       22 UNK         0.1400 
    121 C         -0.9152  -15.8058  -53.5928 C.2       22 UNK         0.5000 
    122 N         -2.1380  -15.3119  -53.7549 N.am      22 UNK        -0.7600 
    123 O          0.0298  -15.0532  -53.3757 O.2       22 UNK        -0.5000 
    124 C124       -0.8692  -18.0523  -52.3505 C.3       23 UNK        -0.0398 
    125 S125        0.5293  -17.8604  -51.1900 S.3       23 UNK        -0.2404 
    126 C126        0.0425  -16.4373  -50.1569 C.3       23 UNK        -0.0205 
    127 H127       -3.0129   -9.3772  -45.5466 H         1 UNK         0.0600 
    128 H128       -4.5864   -9.9885  -46.0628 H         1 UNK         0.0600 
    129 H129       -4.0760   -8.3639  -46.5277 H         1 UNK         0.0600 
    130 H130       -4.4227  -11.4514  -47.7470 H         1 UNK         0.3000 
    131 H131       -2.8081  -10.9513  -50.0807 H         1 UNK         0.0600 
    132 H132       -4.9004  -11.9450  -50.5145 H         1 UNK         0.0800 
    133 H133       -3.7232  -13.1654  -50.8656 H         1 UNK         0.0800 
    134 H134       -4.8507  -15.2202  -50.8022 H         1 UNK         0.0800 
    135 H135       -5.7607  -15.9318  -49.5026 H         1 UNK         0.0800 
    136 H136       -2.3441  -15.2729  -50.7447 H         1 UNK         0.1150 
    137 H137       -0.5253  -18.0254  -48.0101 H         1 UNK         0.1150 
    138 H138       -4.6667  -16.9978  -47.5854 H         1 UNK         0.1150 
    139 H139       -1.7741  -19.0213  -46.2498 H         1 UNK         0.0800 
    140 H140       -3.0109  -17.9689  -45.5865 H         1 UNK         0.0800 
    141 H141       -4.9579  -21.0349  -44.9534 H         1 UNK         0.0800 
    142 H142       -3.5432  -20.1951  -44.3853 H         1 UNK         0.0800 
    143 H143       -3.2919  -22.4392  -46.4099 H         1 UNK         0.0600 
    144 H144       -1.3427  -21.0063  -44.8739 H         1 UNK         0.3000 
    145 H145        1.3013  -23.2507  -45.4292 H         1 UNK         0.0600 
    146 H146        2.3544  -21.4126  -46.8297 H         1 UNK         0.0600 
    147 H147        1.3152  -22.4950  -47.7464 H         1 UNK         0.0600 
    148 H148        0.7335  -20.9001  -47.3068 H         1 UNK         0.0600 
    149 H149        1.2585  -20.4562  -44.7893 H         1 UNK         0.3000 
    150 H150        0.2072  -20.7197  -41.4440 H         1 UNK         0.0600 
    151 H151        2.4710  -21.7410  -41.0946 H         1 UNK         0.0600 
    152 H152        2.4615  -20.0313  -40.6959 H         1 UNK         0.0600 
    153 H153        3.1700  -20.5781  -42.2149 H         1 UNK         0.0600 
    154 H154        1.6602  -18.6219  -42.5893 H         1 UNK         0.3000 
    155 H155       -0.8443  -17.1769  -44.6727 H         1 UNK         0.0600 
    156 H156       -1.3787  -16.3288  -42.4273 H         1 UNK         0.0600 
    157 H157       -0.2395  -15.2311  -43.1924 H         1 UNK         0.0600 
    158 H158        0.3135  -16.3600  -41.9583 H         1 UNK         0.0600 
    159 H159        1.7670  -16.2933  -44.1217 H         1 UNK         0.3000 
    160 H160        3.5188  -18.2346  -46.5831 H         1 UNK         0.0600 
    161 H161        4.1563  -15.8728  -47.1842 H         1 UNK         0.0600 
    162 H162        2.6780  -15.2941  -46.4188 H         1 UNK         0.0600 
    163 H163        2.5900  -16.3456  -47.8211 H         1 UNK         0.0600 
    164 H164        4.1024  -16.2347  -44.5161 H         1 UNK         0.3000 
    165 H165        5.2255  -18.5944  -42.1318 H         1 UNK         0.0600 
    166 H166        7.3799  -17.3680  -42.2651 H         1 UNK         0.0600 
    167 H167        7.2310  -18.4757  -43.6196 H         1 UNK         0.0600 
    168 H168        6.9635  -16.7541  -43.8654 H         1 UNK         0.0600 
    169 H169        5.3839  -15.7389  -42.2616 H         1 UNK         0.3000 
    170 H170        2.0948  -15.0047  -41.1587 H         1 UNK         0.0600 
    171 H171        3.2794  -15.5993  -39.0397 H         1 UNK         0.0600 
    172 H172        4.7453  -14.8249  -39.6296 H         1 UNK         0.0600 
    173 H173        3.2980  -13.8659  -39.3191 H         1 UNK         0.0600 
    174 H174        4.3121  -13.3081  -41.5671 H         1 UNK         0.3000 
    175 H175        3.9396  -11.7706  -43.5208 H         1 UNK         0.0600 
    176 H176        5.8276  -13.9262  -44.6748 H         1 UNK         0.0600 
    177 H177        6.1522  -12.1954  -44.6752 H         1 UNK         0.0600 
    178 H178        6.0818  -13.0674  -43.1592 H         1 UNK         0.0600 
    179 H179        2.9533  -13.3982  -45.6399 H         1 UNK         0.3000 
    180 H180        2.6601  -10.7799  -47.9390 H         1 UNK         0.0600 
    181 H181        4.4664  -13.2093  -48.4302 H         1 UNK         0.0600 
    182 H182        4.9157  -11.5310  -48.7062 H         1 UNK         0.0600 
    183 H183        3.6441  -12.2618  -49.6715 H         1 UNK         0.0600 
    184 H184        2.0441  -13.5488  -48.1911 H         1 UNK         0.3000 
    185 H185       -0.0207  -14.2647  -48.0619 H         1 UNK         0.0600 
    186 H186        0.2649  -14.7296  -45.6205 H         1 UNK         0.0600 
    187 H187       -1.0605  -13.6381  -45.2492 H         1 UNK         0.0600 
    188 H188       -1.3586  -15.1103  -46.1758 H         1 UNK         0.0600 
    189 H189       -2.3057  -12.7126  -47.1145 H         1 UNK         0.3000 
    190 H190       -1.8006  -23.3230  -43.5049 H         1 UNK         0.3000 
    191 H191       -3.8935  -24.9952  -42.4324 H         1 UNK         0.0600 
    192 H192       -1.8855  -24.3191  -41.1133 H         1 UNK         0.0600 
    193 H193       -2.0090  -26.0690  -41.2184 H         1 UNK         0.0600 
    194 H194       -0.8422  -25.2127  -42.2187 H         1 UNK         0.0600 
    195 H195       -1.6834  -25.2830  -45.1802 H         1 UNK         0.3000 
    196 H196       -2.1542  -28.1802  -45.5320 H         1 UNK         0.0600 
    197 H197       -0.5169  -27.9364  -47.3582 H         1 UNK         0.0600 
    198 H198        0.1379  -27.2658  -45.8722 H         1 UNK         0.0600 
    199 H199       -0.4600  -26.1948  -47.1372 H         1 UNK         0.0600 
    200 H200       -4.5156  -27.5129  -45.6031 H         1 UNK         0.3000 
    201 H201       -6.4749  -27.3744  -46.6652 H         1 UNK         0.0600 
    202 H202       -5.5566  -29.4169  -47.7623 H         1 UNK         0.0600 
    203 H203       -4.8916  -28.4368  -49.0679 H         1 UNK         0.0600 
    204 H204       -6.6323  -28.5488  -48.8451 H         1 UNK         0.0600 
    205 H205       -5.6017  -24.9148  -46.3791 H         1 UNK         0.3000 
    206 H206       -5.7392  -22.7924  -46.9969 H         1 UNK         0.0600 
    207 H207       -8.0876  -23.3935  -47.6056 H         1 UNK         0.0600 
    208 H208       -7.4600  -22.0899  -48.5999 H         1 UNK         0.0600 
    209 H209       -7.5804  -23.7124  -49.2635 H         1 UNK         0.0600 
    210 H210       -3.4923  -24.2028  -47.8444 H         1 UNK         0.3000 
    211 H211       -1.6099  -24.0148  -48.9682 H         1 UNK         0.0600 
    212 H212       -2.6704  -21.3876  -50.1476 H         1 UNK         0.0600 
    213 H213       -0.9966  -21.9174  -50.1060 H         1 UNK         0.0600 
    214 H214       -1.8298  -21.5411  -48.6064 H         1 UNK         0.0600 
    215 H215       -3.2168  -25.8171  -49.8495 H         1 UNK         0.3000 
    216 H216       -3.9205  -27.1664  -51.4496 H         1 UNK         0.0600 
    217 H217       -2.5102  -27.4392  -53.4684 H         1 UNK         0.0600 
    218 H218       -1.5016  -27.2011  -52.0504 H         1 UNK         0.0600 
    219 H219       -1.7481  -25.8794  -53.1903 H         1 UNK         0.0600 
    220 H220       -5.6716  -25.3031  -51.0969 H         1 UNK         0.3000 
    221 H221       -7.4123  -24.1509  -51.8183 H         1 UNK         0.0600 
    222 H222       -7.0794  -25.6784  -54.4558 H         1 UNK         0.0600 
    223 H223       -7.9497  -26.2510  -53.0338 H         1 UNK         0.0600 
    224 H224       -8.5292  -24.8460  -53.9148 H         1 UNK         0.0600 
    225 H225       -5.5817  -22.4943  -51.5997 H         1 UNK         0.3000 
    226 H226       -4.9029  -20.4884  -51.9359 H         1 UNK         0.0600 
    227 H227       -7.1508  -19.9085  -52.8119 H         1 UNK         0.0600 
    228 H228       -5.8964  -18.9615  -53.5962 H         1 UNK         0.0600 
    229 H229       -6.6380  -20.3038  -54.4522 H         1 UNK         0.0600 
    230 H230       -4.7865  -22.3007  -54.9796 H         1 UNK         0.3000 
    231 H231       -3.2642  -22.5894  -56.5897 H         1 UNK         0.0600 
    232 H232       -1.3075  -22.4514  -54.2404 H         1 UNK         0.0600 
    233 H233       -1.0392  -23.2928  -55.7639 H         1 UNK         0.0600 
    234 H234       -2.2908  -23.8494  -54.6686 H         1 UNK         0.0600 
    235 H235       -3.8954  -19.7805  -56.2248 H         1 UNK         0.3000 
    236 H236       -3.4125  -17.7452  -56.9178 H         1 UNK         0.0600 
    237 H237       -2.8602  -18.8753  -59.0854 H         1 UNK         0.0600 
    238 H238       -1.9471  -17.3949  -58.8538 H         1 UNK         0.0600 
    239 H239       -1.1636  -18.9489  -58.6109 H         1 UNK         0.0600 
    240 H240       -2.1841  -18.6796  -54.4284 H         1 UNK         0.3000 
    241 H241        0.3451  -17.4855  -54.0344 H         1 UNK         0.0600 
    242 H242       -2.2772  -14.3156  -53.6997 H         1 UNK         0.3800 
    243 H243       -2.9173  -15.9161  -53.9597 H         1 UNK         0.3800 
    244 H244       -0.9322  -19.1277  -52.5155 H         1 UNK         0.0800 
    245 H245       -1.8145  -17.7810  -51.8806 H         1 UNK         0.0800 
    246 H246        0.8188  -16.2774  -49.4092 H         1 UNK         0.0800 
    247 H247        0.0274  -15.5311  -50.7630 H         1 UNK         0.0800 
@<TRIPOS>BOND
     1    1    2 1    
     2    1  127 1    
     3    1  128 1    
     4    1  129 1    
     5    2    3 2    
     6    2    4 am   BACKBONE|DICT|INTERRES
     7    4    5 1    
     8    4  130 1    
     9    5    6 1    
    10    5   65 1    
    11    5  131 1    
    12    6    7 1    
    13    6  132 1    
    14    6  133 1    
    15    7    8 1    
    16    8    9 1    
    17    8  134 1    
    18    8  135 1    
    19    9   10 ar   
    20    9   14 ar   
    21   10   11 ar   
    22   10  136 1    
    23   11   12 ar   
    24   11  126 1    
    25   12   13 ar   
    26   12  137 1    
    27   13   14 ar   
    28   13   15 1    
    29   14  138 1    
    30   15   16 1    
    31   15  139 1    
    32   15  140 1    
    33   16   17 1    
    34   17   18 1    
    35   17  141 1    
    36   17  142 1    
    37   18   19 1    
    38   18   67 1    
    39   18  143 1    
    40   19   20 am   BACKBONE|DICT|INTERRES
    41   19  144 1    
    42   20   21 2    
    43   20   22 1    
    44   22   23 1    
    45   22   24 1    
    46   22  145 1    
    47   23  146 1    
    48   23  147 1    
    49   23  148 1    
    50   24   25 am   BACKBONE|DICT|INTERRES
    51   24  149 1    
    52   25   26 2    
    53   25   27 1    
    54   27   28 1    
    55   27   29 1    
    56   27  150 1    
    57   28  151 1    
    58   28  152 1    
    59   28  153 1    
    60   29   30 am   BACKBONE|DICT|INTERRES
    61   29  154 1    
    62   30   31 2    
    63   30   32 1    
    64   32   33 1    
    65   32   34 1    
    66   32  155 1    
    67   33  156 1    
    68   33  157 1    
    69   33  158 1    
    70   34   35 am   BACKBONE|DICT|INTERRES
    71   34  159 1    
    72   35   36 2    
    73   35   37 1    
    74   37   38 1    
    75   37   39 1    
    76   37  160 1    
    77   38  161 1    
    78   38  162 1    
    79   38  163 1    
    80   39   40 am   BACKBONE|DICT|INTERRES
    81   39  164 1    
    82   40   41 2    
    83   40   42 1    
    84   42   43 1    
    85   42   44 1    
    86   42  165 1    
    87   43  166 1    
    88   43  167 1    
    89   43  168 1    
    90   44   45 am   BACKBONE|DICT|INTERRES
    91   44  169 1    
    92   45   46 2    
    93   45   47 1    
    94   47   48 1    
    95   47   49 1    
    96   47  170 1    
    97   48  171 1    
    98   48  172 1    
    99   48  173 1    
   100   49   50 am   BACKBONE|DICT|INTERRES
   101   49  174 1    
   102   50   51 2    
   103   50   52 1    
   104   52   53 1    
   105   52   54 1    
   106   52  175 1    
   107   53  176 1    
   108   53  177 1    
   109   53  178 1    
   110   54   55 am   BACKBONE|DICT|INTERRES
   111   54  179 1    
   112   55   56 2    
   113   55   57 1    
   114   57   58 1    
   115   57   59 1    
   116   57  180 1    
   117   58  181 1    
   118   58  182 1    
   119   58  183 1    
   120   59   60 am   BACKBONE|DICT|INTERRES
   121   59  184 1    
   122   60   61 2    
   123   60   62 1    
   124   62   63 1    
   125   62   64 1    
   126   62  185 1    
   127   63  186 1    
   128   63  187 1    
   129   63  188 1    
   130   64   65 am   BACKBONE|DICT|INTERRES
   131   64  189 1    
   132   65   66 2    
   133   67   68 2    
   134   67   69 am   BACKBONE|DICT|INTERRES
   135   69   70 1    
   136   69  190 1    
   137   70   71 1    
   138   70   72 1    
   139   70  191 1    
   140   71  192 1    
   141   71  193 1    
   142   71  194 1    
   143   72   73 2    
   144   72   74 am   BACKBONE|DICT|INTERRES
   145   74   75 1    
   146   74  195 1    
   147   75   76 1    
   148   75   77 1    
   149   75  196 1    
   150   76  197 1    
   151   76  198 1    
   152   76  199 1    
   153   77   78 2    
   154   77   79 am   BACKBONE|DICT|INTERRES
   155   79   80 1    
   156   79  200 1    
   157   80   81 1    
   158   80   82 1    
   159   80  201 1    
   160   81  202 1    
   161   81  203 1    
   162   81  204 1    
   163   82   83 2    
   164   82   84 am   BACKBONE|DICT|INTERRES
   165   84   85 1    
   166   84  205 1    
   167   85   86 1    
   168   85   87 1    
   169   85  206 1    
   170   86  207 1    
   171   86  208 1    
   172   86  209 1    
   173   87   88 2    
   174   87   89 am   BACKBONE|DICT|INTERRES
   175   89   90 1    
   176   89  210 1    
   177   90   91 1    
   178   90   92 1    
   179   90  211 1    
   180   91  212 1    
   181   91  213 1    
   182   91  214 1    
   183   92   93 2    
   184   92   94 am   BACKBONE|DICT|INTERRES
   185   94   95 1    
   186   94  215 1    
   187   95   96 1    
   188   95   97 1    
   189   95  216 1    
   190   96  217 1    
   191   96  218 1    
   192   96  219 1    
   193   97   98 2    
   194   97   99 am   BACKBONE|DICT|INTERRES
   195   99  100 1    
   196   99  220 1    
   197  100  101 1    
   198  100  102 1    
   199  100  221 1    
   200  101  222 1    
   201  101  223 1    
   202  101  224 1    
   203  102  103 2    
   204  102  104 am   BACKBONE|DICT|INTERRES
   205  104  105 1    
   206  104  225 1    
   207  105  106 1    
   208  105  107 1    
   209  105  226 1    
   210  106  227 1    
   211  106  228 1    
   212  106  229 1    
   213  107  108 2    
   214  107  109 am   BACKBONE|DICT|INTERRES
   215  109  110 1    
   216  109  230 1    
   217  110  111 1    
   218  110  112 1    
   219  110  231 1    
   220  111  232 1    
   221  111  233 1    
   222  111  234 1    
   223  112  113 2    
   224  112  114 am   BACKBONE|DICT|INTERRES
   225  114  115 1    
   226  114  235 1    
   227  115  116 1    
   228  115  117 1    
   229  115  236 1    
   230  116  237 1    
   231  116  238 1    
   232  116  239 1    
   233  117  118 2    
   234  117  119 am   BACKBONE|DICT|INTERRES
   235  119  120 1    
   236  119  240 1    
   237  120  121 1    
   238  120  124 1    
   239  120  241 1    
   240  121  122 am   BACKBONE|DICT|INTERRES
   241  121  123 2    
   242  122  242 1    
   243  122  243 1    
   244  124  125 1    
   245  124  244 1    
   246  124  245 1    
   247  125  126 1    
   248  126  246 1    
   249  126  247 1    
@<TRIPOS>SUBSTRUCTURE
     1 UNK         1 GROUP             0       ****    0 ROOT    
