@<TRIPOS>MOLECULE
3R540
247   249    1
SMALL
USER_CHARGES


@<TRIPOS>ATOM
      1 CA          1.2620  -10.0254  -46.3405 C.3       0 UNK        -0.1800 
      2 C           2.3083  -10.5293  -47.3234 C.2       0 UNK         0.5000 
      3 O           3.5043  -10.3995  -47.0651 O.2       0 UNK        -0.5000 
      4 N           1.8667  -11.1266  -48.4377 N.am      1 UNK        -0.5000 
      5 CA          2.7044  -11.7015  -49.5025 C.3       1 UNK         0.1400 
      6 C6          1.8653  -12.1357  -50.7342 C.3       23 UNK        -0.0398 
      7 S7          0.3815  -13.1229  -50.3223 S.3       23 UNK        -0.2404 
      8 C8          0.9648  -14.8284  -50.6215 C.3       23 UNK        -0.0205 
      9 C9          0.0081  -15.9402  -50.1827 C.ar      23 UNK        -0.0193 
     10 C10        -1.1314  -15.7069  -49.4007 C.ar      23 UNK        -0.1150 
     11 C11        -1.9728  -16.7568  -49.0214 C.ar      23 UNK        -0.0193 
     12 C12        -1.6539  -18.0627  -49.4031 C.ar      23 UNK        -0.1150 
     13 C13        -0.5139  -18.3163  -50.1727 C.ar      23 UNK        -0.0193 
     14 C14         0.3023  -17.2519  -50.5642 C.ar      23 UNK        -0.1150 
     15 C15        -0.1578  -19.7378  -50.5852 C.3       23 UNK        -0.0205 
     16 S16         1.3760  -20.3396  -49.7977 S.3       23 UNK        -0.2404 
     17 C17         0.9764  -20.2410  -48.0176 C.3       23 UNK        -0.0398 
     18 CA          0.4736  -21.5717  -47.4083 C.3       11 UNK         0.1400 
     19 N           0.4582  -21.5245  -45.9451 N.am      11 UNK        -0.5000 
     20 C           0.1809  -22.5574  -45.1374 C.2       10 UNK         0.5000 
     21 O          -0.0329  -23.7009  -45.5369 O.2       10 UNK        -0.5000 
     22 CA          0.0710  -22.2530  -43.6327 C.3       10 UNK         0.1400 
     23 CB          1.4605  -22.2011  -42.9811 C.3       10 UNK        -0.1800 
     24 N          -0.6538  -21.0102  -43.3618 N.am      10 UNK        -0.5000 
     25 C          -1.9412  -20.8012  -43.6755 C.2       9 UNK         0.5000 
     26 O          -2.6679  -21.6554  -44.1834 O.2       9 UNK        -0.5000 
     27 CA         -2.4984  -19.3874  -43.4275 C.3       9 UNK         0.1400 
     28 CB         -2.8428  -19.1846  -41.9446 C.3       9 UNK        -0.1800 
     29 N          -1.5842  -18.3342  -43.8710 N.am      9 UNK        -0.5000 
     30 C          -1.1925  -18.1552  -45.1405 C.2       8 UNK         0.5000 
     31 O          -1.5963  -18.8388  -46.0808 O.2       8 UNK        -0.5000 
     32 CA         -0.1248  -17.0744  -45.3914 C.3       8 UNK         0.1400 
     33 CB         -0.7393  -15.6665  -45.3794 C.3       8 UNK        -0.1800 
     34 N           0.9644  -17.1394  -44.4166 N.am      8 UNK        -0.5000 
     35 C           1.7973  -18.1804  -44.2761 C.2       7 UNK         0.5000 
     36 O           1.7684  -19.1800  -44.9911 O.2       7 UNK        -0.5000 
     37 CA          2.7956  -18.1198  -43.1086 C.3       7 UNK         0.1400 
     38 CB          4.0397  -17.3029  -43.4847 C.3       7 UNK        -0.1800 
     39 N           2.1854  -17.5708  -41.8987 N.am      7 UNK        -0.5000 
     40 C           1.2350  -18.1922  -41.1854 C.2       6 UNK         0.5000 
     41 O           0.8058  -19.3153  -41.4478 O.2       6 UNK        -0.5000 
     42 CA          0.6313  -17.4030  -40.0102 C.3       6 UNK         0.1400 
     43 CB          1.5121  -17.5338  -38.7589 C.3       6 UNK        -0.1800 
     44 N           0.4477  -15.9868  -40.3304 N.am      6 UNK        -0.5000 
     45 C          -0.4160  -15.5236  -41.2456 C.2       5 UNK         0.5000 
     46 O          -1.1867  -16.2413  -41.8816 O.2       5 UNK        -0.5000 
     47 CA         -0.3711  -14.0114  -41.5319 C.3       5 UNK         0.1400 
     48 CB         -1.2785  -13.2483  -40.5558 C.3       5 UNK        -0.1800 
     49 N           0.9877  -13.4656  -41.4651 N.am      5 UNK        -0.5000 
     50 C           1.9656  -13.7752  -42.3254 C.2       4 UNK         0.5000 
     51 O           1.8220  -14.5434  -43.2804 O.2       4 UNK        -0.5000 
     52 CA          3.3438  -13.1685  -42.0420 C.3       4 UNK         0.1400 
     53 CB          4.1467  -14.0743  -41.0894 C.3       4 UNK        -0.1800 
     54 N           4.0486  -13.0038  -43.3080 N.am      4 UNK        -0.5000 
     55 C           5.1112  -12.2181  -43.5155 C.2       3 UNK         0.5000 
     56 O           5.6507  -11.5671  -42.6191 O.2       3 UNK        -0.5000 
     57 CA          5.6442  -12.0837  -44.9578 C.3       3 UNK         0.1400 
     58 CB          7.1565  -12.3758  -45.0494 C.3       3 UNK        -0.1800 
     59 N           4.8817  -12.8262  -45.9710 N.am      3 UNK        -0.5000 
     60 C           4.8578  -14.1480  -46.2061 C.2       2 UNK         0.5000 
     61 O           5.5087  -14.9670  -45.5589 O.2       2 UNK        -0.5000 
     62 CA          3.9327  -14.6525  -47.3358 C.3       2 UNK         0.1400 
     63 CB          2.9253  -15.6800  -46.8017 C.3       2 UNK        -0.1800 
     64 N           3.1844  -13.5751  -47.9851 N.am      2 UNK        -0.5000 
     65 C           3.6239  -12.8455  -49.0188 C.2       1 UNK         0.5000 
     66 O           4.7086  -13.0289  -49.5722 O.2       1 UNK        -0.5000 
     67 C          -0.9024  -21.9768  -47.9715 C.2       11 UNK         0.5000 
     68 O          -0.9714  -22.8981  -48.7835 O.2       11 UNK        -0.5000 
     69 N          -1.9728  -21.3121  -47.5114 N.am      12 UNK        -0.5000 
     70 CA         -3.3527  -21.5978  -47.9079 C.3       12 UNK         0.1400 
     71 CB         -4.2975  -20.5550  -47.2934 C.3       12 UNK        -0.1800 
     72 C          -3.8006  -23.0258  -47.5474 C.2       12 UNK         0.5000 
     73 O          -4.4636  -23.6723  -48.3600 O.2       12 UNK        -0.5000 
     74 N          -3.3966  -23.4999  -46.3602 N.am      13 UNK        -0.5000 
     75 CA         -3.6189  -24.8653  -45.8881 C.3       13 UNK         0.1400 
     76 CB         -3.2540  -24.9660  -44.3995 C.3       13 UNK        -0.1800 
     77 C          -2.8503  -25.9105  -46.7167 C.2       13 UNK         0.5000 
     78 O          -3.4408  -26.9166  -47.1090 O.2       13 UNK        -0.5000 
     79 N          -1.5678  -25.6444  -47.0057 N.am      14 UNK        -0.5000 
     80 CA         -0.7067  -26.4879  -47.8421 C.3       14 UNK         0.1400 
     81 CB          0.7389  -25.9723  -47.7790 C.3       14 UNK        -0.1800 
     82 C          -1.1900  -26.5752  -49.3022 C.2       14 UNK         0.5000 
     83 O          -1.1353  -27.6489  -49.9023 O.2       14 UNK        -0.5000 
     84 N          -1.6984  -25.4532  -49.8260 N.am      15 UNK        -0.5000 
     85 CA         -2.3546  -25.3411  -51.1285 C.3       15 UNK         0.1400 
     86 CB         -2.3628  -23.8609  -51.5430 C.3       15 UNK        -0.1800 
     87 C          -3.7860  -25.9182  -51.1525 C.2       15 UNK         0.5000 
     88 O          -4.3937  -25.9491  -52.2219 O.2       15 UNK        -0.5000 
     89 N          -4.3161  -26.3320  -49.9904 N.am      16 UNK        -0.5000 
     90 CA         -5.6495  -26.9034  -49.7640 C.3       16 UNK         0.1400 
     91 CB         -5.7376  -28.3112  -50.3882 C.3       16 UNK        -0.1800 
     92 C          -6.8015  -25.9777  -50.2124 C.2       16 UNK         0.5000 
     93 O          -7.8499  -26.4626  -50.6419 O.2       16 UNK        -0.5000 
     94 N          -6.5689  -24.6590  -50.1246 N.am      17 UNK        -0.5000 
     95 CA         -7.4343  -23.5667  -50.5823 C.3       17 UNK         0.1400 
     96 CB         -8.7009  -23.4780  -49.7063 C.3       17 UNK        -0.1800 
     97 C          -7.7540  -23.5968  -52.0974 C.2       17 UNK         0.5000 
     98 O          -8.7684  -23.0345  -52.5154 O.2       17 UNK        -0.5000 
     99 N          -6.8900  -24.2389  -52.8985 N.am      18 UNK        -0.5000 
    100 CA        -6.9775  -24.2887  -54.3595 C.3       18 UNK         0.1400 
    101 CB        -6.1910  -25.5148  -54.8576 C.3       18 UNK        -0.1800 
    102 C         -6.4637  -22.9855  -55.0074 C.2       18 UNK         0.5000 
    103 O         -6.1368  -22.0260  -54.3077 O.2       18 UNK        -0.5000 
    104 N         -6.3579  -22.9780  -56.3436 N.am      19 UNK        -0.5000 
    105 CA        -5.8941  -21.8447  -57.1572 C.3       19 UNK         0.1400 
    106 CB        -6.0244  -22.2190  -58.6420 C.3       19 UNK        -0.1800 
    107 C         -4.4602  -21.3558  -56.8486 C.2       19 UNK         0.5000 
    108 O         -4.1186  -20.2274  -57.2039 O.2       19 UNK        -0.5000 
    109 N         -3.6534  -22.2003  -56.1916 N.am      20 UNK        -0.5000 
    110 CA        -2.3254  -21.8641  -55.6775 C.3       20 UNK         0.1400 
    111 CB        -1.5543  -23.1685  -55.4188 C.3       20 UNK        -0.1800 
    112 C         -2.3597  -20.9903  -54.4042 C.2       20 UNK         0.5000 
    113 O         -1.3474  -20.3658  -54.0845 O.2       20 UNK        -0.5000 
    114 N         -3.4968  -20.9638  -53.6946 N.am      21 UNK        -0.5000 
    115 CA        -3.7185  -20.1363  -52.5109 C.3       21 UNK         0.1400 
    116 CB        -4.7671  -20.8204  -51.6119 C.3       21 UNK        -0.1800 
    117 C         -4.1846  -18.7178  -52.8905 C.2       21 UNK         0.5000 
    118 O         -4.4680  -18.4290  -54.0554 O.2       21 UNK        -0.5000 
    119 N         -4.3003  -17.8699  -51.8655 N.am      22 UNK        -0.5000 
    120 CA        -4.9002  -16.5263  -51.9033 C.3       22 UNK         0.1400 
    121 C         -6.4307  -16.4827  -52.2013 C.2       22 UNK         0.5000 
    122 N         -7.1608  -17.5897  -52.1375 N.am      22 UNK        -0.7600 
    123 O         -6.9643  -15.4193  -52.5060 O.2       22 UNK        -0.5000 
    124 C124       -4.5607  -15.7280  -50.6138 C.3       23 UNK        -0.0398 
    125 S125       -4.7832  -16.7127  -49.0810 S.3       23 UNK        -0.2404 
    126 C126       -3.2149  -16.4633  -48.1864 C.3       23 UNK        -0.0205 
    127 H127        0.2485  -10.2199  -46.6922 H         1 UNK         0.0600 
    128 H128        1.3718   -8.9509  -46.1945 H         1 UNK         0.0600 
    129 H129        1.3877  -10.5168  -45.3755 H         1 UNK         0.0600 
    130 H130        0.8713  -11.2176  -48.5884 H         1 UNK         0.3000 
    131 H131        3.3727  -10.9039  -49.8340 H         1 UNK         0.0600 
    132 H132        1.5153  -11.2409  -51.2505 H         1 UNK         0.0800 
    133 H133        2.4764  -12.6662  -51.4672 H         1 UNK         0.0800 
    134 H134        1.9131  -14.9805  -50.1067 H         1 UNK         0.0800 
    135 H135        1.1688  -14.9361  -51.6879 H         1 UNK         0.0800 
    136 H136       -1.3818  -14.7065  -49.0819 H         1 UNK         0.1150 
    137 H137       -2.2901  -18.8786  -49.0940 H         1 UNK         0.1150 
    138 H138        1.1829  -17.4517  -51.1589 H         1 UNK         0.1150 
    139 H139       -0.9749  -20.4243  -50.3640 H         1 UNK         0.0800 
    140 H140       -0.0277  -19.7680  -51.6679 H         1 UNK         0.0800 
    141 H141        0.2764  -19.4289  -47.8266 H         1 UNK         0.0800 
    142 H142        1.9003  -19.9468  -47.5189 H         1 UNK         0.0800 
    143 H143        1.1818  -22.3552  -47.6861 H         1 UNK         0.0600 
    144 H144        0.6807  -20.6260  -45.5241 H         1 UNK         0.3000 
    145 H145       -0.4879  -23.0691  -43.1705 H         1 UNK         0.0600 
    146 H146        1.3846  -22.0631  -41.9024 H         1 UNK         0.0600 
    147 H147        2.0067  -23.1294  -43.1528 H         1 UNK         0.0600 
    148 H148        2.0639  -21.3863  -43.3807 H         1 UNK         0.0600 
    149 H149       -0.1331  -20.2709  -42.8995 H         1 UNK         0.3000 
    150 H150       -3.4196  -19.2897  -44.0055 H         1 UNK         0.0600 
    151 H151       -3.5406  -19.9477  -41.5978 H         1 UNK         0.0600 
    152 H152       -3.3118  -18.2146  -41.7790 H         1 UNK         0.0600 
    153 H153       -1.9558  -19.2381  -41.3130 H         1 UNK         0.0600 
    154 H154       -1.2421  -17.6966  -43.1576 H         1 UNK         0.3000 
    155 H155        0.2998  -17.2505  -46.3819 H         1 UNK         0.0600 
    156 H156       -1.2091  -15.4366  -44.4239 H         1 UNK         0.0600 
    157 H157        0.0115  -14.9012  -45.5734 H         1 UNK         0.0600 
    158 H158       -1.5029  -15.5678  -46.1481 H         1 UNK         0.0600 
    159 H159        1.0942  -16.3275  -43.8221 H         1 UNK         0.3000 
    160 H160        3.1172  -19.1407  -42.8922 H         1 UNK         0.0600 
    161 H161        3.7936  -16.2656  -43.7104 H         1 UNK         0.0600 
    162 H162        4.5268  -17.7195  -44.3671 H         1 UNK         0.0600 
    163 H163        4.7737  -17.3064  -42.6790 H         1 UNK         0.0600 
    164 H164        2.4518  -16.6340  -41.6388 H         1 UNK         0.3000 
    165 H165       -0.3477  -17.8323  -39.7869 H         1 UNK         0.0600 
    166 H166        1.0553  -17.0382  -37.9021 H         1 UNK         0.0600 
    167 H167        1.6532  -18.5815  -38.4897 H         1 UNK         0.0600 
    168 H168        2.5003  -17.0980  -38.9118 H         1 UNK         0.0600 
    169 H169        1.0382  -15.3271  -39.8465 H         1 UNK         0.3000 
    170 H170       -0.7505  -13.8537  -42.5437 H         1 UNK         0.0600 
    171 H171       -2.3018  -13.6239  -40.6005 H         1 UNK         0.0600 
    172 H172       -0.9372  -13.3471  -39.5246 H         1 UNK         0.0600 
    173 H173       -1.3131  -12.1860  -40.7984 H         1 UNK         0.0600 
    174 H174        1.1815  -12.8290  -40.7052 H         1 UNK         0.3000 
    175 H175        3.2036  -12.1872  -41.5841 H         1 UNK         0.0600 
    176 H176        4.3505  -15.0474  -41.5360 H         1 UNK         0.0600 
    177 H177        5.1039  -13.6244  -40.8261 H         1 UNK         0.0600 
    178 H178        3.6064  -14.2449  -40.1576 H         1 UNK         0.0600 
    179 H179        3.6403  -13.5069  -44.0846 H         1 UNK         0.3000 
    180 H180        5.5092  -11.0329  -45.2174 H         1 UNK         0.0600 
    181 H181        7.4000  -13.3823  -44.7089 H         1 UNK         0.0600 
    182 H182        7.7244  -11.6812  -44.4295 H         1 UNK         0.0600 
    183 H183        7.5192  -12.2673  -46.0715 H         1 UNK         0.0600 
    184 H184        4.3031  -12.2349  -46.5579 H         1 UNK         0.3000 
    185 H185        4.5628  -15.1516  -48.0748 H         1 UNK         0.0600 
    186 H186        3.4341  -16.5617  -46.4114 H         1 UNK         0.0600 
    187 H187        2.3270  -15.2602  -45.9938 H         1 UNK         0.0600 
    188 H188        2.2471  -16.0201  -47.5849 H         1 UNK         0.0600 
    189 H189        2.2793  -13.3528  -47.5965 H         1 UNK         0.3000 
    190 H190       -1.8345  -20.5442  -46.8579 H         1 UNK         0.3000 
    191 H191       -3.4038  -21.5042  -48.9937 H         1 UNK         0.0600 
    192 H192       -4.2662  -20.5771  -46.2038 H         1 UNK         0.0600 
    193 H193       -5.3293  -20.7352  -47.5978 H         1 UNK         0.0600 
    194 H194       -4.0375  -19.5461  -47.6119 H         1 UNK         0.0600 
    195 H195       -2.9008  -22.8758  -45.7305 H         1 UNK         0.3000 
    196 H196       -4.6845  -25.0818  -45.9885 H         1 UNK         0.0600 
    197 H197       -3.4339  -25.9726  -44.0203 H         1 UNK         0.0600 
    198 H198       -3.8537  -24.2803  -43.8006 H         1 UNK         0.0600 
    199 H199       -2.2043  -24.7308  -44.2234 H         1 UNK         0.0600 
    200 H200       -1.1367  -24.8118  -46.6112 H         1 UNK         0.3000 
    201 H201       -0.7255  -27.4975  -47.4269 H         1 UNK         0.0600 
    202 H202        1.1190  -25.9908  -46.7575 H         1 UNK         0.0600 
    203 H203        0.8172  -24.9484  -48.1460 H         1 UNK         0.0600 
    204 H204        1.4023  -26.5911  -48.3844 H         1 UNK         0.0600 
    205 H205       -1.6273  -24.5933  -49.2863 H         1 UNK         0.3000 
    206 H206       -1.7719  -25.8988  -51.8643 H         1 UNK         0.0600 
    207 H207       -1.3496  -23.4859  -51.6887 H         1 UNK         0.0600 
    208 H208       -2.9052  -23.7069  -52.4759 H         1 UNK         0.0600 
    209 H209       -2.8371  -23.2432  -50.7815 H         1 UNK         0.0600 
    210 H210       -3.7483  -26.2418  -49.1573 H         1 UNK         0.3000 
    211 H211       -5.7548  -27.0123  -48.6840 H         1 UNK         0.0600 
    212 H212       -5.6978  -28.2729  -51.4773 H         1 UNK         0.0600 
    213 H213       -6.6688  -28.8065  -50.1111 H         1 UNK         0.0600 
    214 H214       -4.9202  -28.9451  -50.0444 H         1 UNK         0.0600 
    215 H215       -5.6930  -24.3691  -49.6958 H         1 UNK         0.3000 
    216 H216       -6.8636  -22.6518  -50.4194 H         1 UNK         0.0600 
    217 H217       -9.2735  -22.5781  -49.9333 H         1 UNK         0.0600 
    218 H218       -8.4450  -23.4380  -48.6475 H         1 UNK         0.0600 
    219 H219       -9.3602  -24.3325  -49.8608 H         1 UNK         0.0600 
    220 H220       -6.0795  -24.6871  -52.4867 H         1 UNK         0.3000 
    221 H221       -8.0243  -24.4132  -54.6437 H         1 UNK         0.0600 
    222 H222       -5.1158  -25.3815  -54.7327 H         1 UNK         0.0600 
    223 H223       -6.4792  -26.4154  -54.3146 H         1 UNK         0.0600 
    224 H224       -6.3778  -25.7078  -55.9143 H         1 UNK         0.0600 
    225 H225       -6.6321  -23.8045  -56.8545 H         1 UNK         0.3000 
    226 H226       -6.5637  -21.0057  -56.9573 H         1 UNK         0.0600 
    227 H227       -7.0547  -22.4661  -58.8989 H         1 UNK         0.0600 
    228 H228       -5.7225  -21.3900  -59.2837 H         1 UNK         0.0600 
    229 H229       -5.3986  -23.0753  -58.8962 H         1 UNK         0.0600 
    230 H230       -4.0146  -23.1114  -55.9528 H         1 UNK         0.3000 
    231 H231       -1.7887  -21.2999  -56.4432 H         1 UNK         0.0600 
    232 H232       -0.5600  -22.9647  -55.0191 H         1 UNK         0.0600 
    233 H233       -1.4220  -23.7357  -56.3403 H         1 UNK         0.0600 
    234 H234       -2.0709  -23.8090  -54.7039 H         1 UNK         0.0600 
    235 H235       -4.3205  -21.4348  -54.0572 H         1 UNK         0.3000 
    236 H236       -2.7854  -20.0547  -51.9515 H         1 UNK         0.0600 
    237 H237       -4.5361  -21.8715  -51.4494 H         1 UNK         0.0600 
    238 H238       -4.8195  -20.3448  -50.6322 H         1 UNK         0.0600 
    239 H239       -5.7652  -20.7705  -52.0478 H         1 UNK         0.0600 
    240 H240       -4.0504  -18.1810  -50.9383 H         1 UNK         0.3000 
    241 H241       -4.4340  -16.0014  -52.7392 H         1 UNK         0.0600 
    242 H242       -6.7397  -18.4688  -51.8893 H         1 UNK         0.3800 
    243 H243       -8.1473  -17.5436  -52.3382 H         1 UNK         0.3800 
    244 H244       -3.5326  -15.3779  -50.6838 H         1 UNK         0.0800 
    245 H245       -5.1576  -14.8176  -50.5351 H         1 UNK         0.0800 
    246 H246       -3.2149  -17.1034  -47.3043 H         1 UNK         0.0800 
    247 H247       -3.1961  -15.4371  -47.8171 H         1 UNK         0.0800 
@<TRIPOS>BOND
     1    1    2 1    
     2    1  127 1    
     3    1  128 1    
     4    1  129 1    
     5    2    3 2    
     6    2    4 am   BACKBONE|DICT|INTERRES
     7    4    5 1    
     8    4  130 1    
     9    5    6 1    
    10    5   65 1    
    11    5  131 1    
    12    6    7 1    
    13    6  132 1    
    14    6  133 1    
    15    7    8 1    
    16    8    9 1    
    17    8  134 1    
    18    8  135 1    
    19    9   10 ar   
    20    9   14 ar   
    21   10   11 ar   
    22   10  136 1    
    23   11   12 ar   
    24   11  126 1    
    25   12   13 ar   
    26   12  137 1    
    27   13   14 ar   
    28   13   15 1    
    29   14  138 1    
    30   15   16 1    
    31   15  139 1    
    32   15  140 1    
    33   16   17 1    
    34   17   18 1    
    35   17  141 1    
    36   17  142 1    
    37   18   19 1    
    38   18   67 1    
    39   18  143 1    
    40   19   20 am   BACKBONE|DICT|INTERRES
    41   19  144 1    
    42   20   21 2    
    43   20   22 1    
    44   22   23 1    
    45   22   24 1    
    46   22  145 1    
    47   23  146 1    
    48   23  147 1    
    49   23  148 1    
    50   24   25 am   BACKBONE|DICT|INTERRES
    51   24  149 1    
    52   25   26 2    
    53   25   27 1    
    54   27   28 1    
    55   27   29 1    
    56   27  150 1    
    57   28  151 1    
    58   28  152 1    
    59   28  153 1    
    60   29   30 am   BACKBONE|DICT|INTERRES
    61   29  154 1    
    62   30   31 2    
    63   30   32 1    
    64   32   33 1    
    65   32   34 1    
    66   32  155 1    
    67   33  156 1    
    68   33  157 1    
    69   33  158 1    
    70   34   35 am   BACKBONE|DICT|INTERRES
    71   34  159 1    
    72   35   36 2    
    73   35   37 1    
    74   37   38 1    
    75   37   39 1    
    76   37  160 1    
    77   38  161 1    
    78   38  162 1    
    79   38  163 1    
    80   39   40 am   BACKBONE|DICT|INTERRES
    81   39  164 1    
    82   40   41 2    
    83   40   42 1    
    84   42   43 1    
    85   42   44 1    
    86   42  165 1    
    87   43  166 1    
    88   43  167 1    
    89   43  168 1    
    90   44   45 am   BACKBONE|DICT|INTERRES
    91   44  169 1    
    92   45   46 2    
    93   45   47 1    
    94   47   48 1    
    95   47   49 1    
    96   47  170 1    
    97   48  171 1    
    98   48  172 1    
    99   48  173 1    
   100   49   50 am   BACKBONE|DICT|INTERRES
   101   49  174 1    
   102   50   51 2    
   103   50   52 1    
   104   52   53 1    
   105   52   54 1    
   106   52  175 1    
   107   53  176 1    
   108   53  177 1    
   109   53  178 1    
   110   54   55 am   BACKBONE|DICT|INTERRES
   111   54  179 1    
   112   55   56 2    
   113   55   57 1    
   114   57   58 1    
   115   57   59 1    
   116   57  180 1    
   117   58  181 1    
   118   58  182 1    
   119   58  183 1    
   120   59   60 am   BACKBONE|DICT|INTERRES
   121   59  184 1    
   122   60   61 2    
   123   60   62 1    
   124   62   63 1    
   125   62   64 1    
   126   62  185 1    
   127   63  186 1    
   128   63  187 1    
   129   63  188 1    
   130   64   65 am   BACKBONE|DICT|INTERRES
   131   64  189 1    
   132   65   66 2    
   133   67   68 2    
   134   67   69 am   BACKBONE|DICT|INTERRES
   135   69   70 1    
   136   69  190 1    
   137   70   71 1    
   138   70   72 1    
   139   70  191 1    
   140   71  192 1    
   141   71  193 1    
   142   71  194 1    
   143   72   73 2    
   144   72   74 am   BACKBONE|DICT|INTERRES
   145   74   75 1    
   146   74  195 1    
   147   75   76 1    
   148   75   77 1    
   149   75  196 1    
   150   76  197 1    
   151   76  198 1    
   152   76  199 1    
   153   77   78 2    
   154   77   79 am   BACKBONE|DICT|INTERRES
   155   79   80 1    
   156   79  200 1    
   157   80   81 1    
   158   80   82 1    
   159   80  201 1    
   160   81  202 1    
   161   81  203 1    
   162   81  204 1    
   163   82   83 2    
   164   82   84 am   BACKBONE|DICT|INTERRES
   165   84   85 1    
   166   84  205 1    
   167   85   86 1    
   168   85   87 1    
   169   85  206 1    
   170   86  207 1    
   171   86  208 1    
   172   86  209 1    
   173   87   88 2    
   174   87   89 am   BACKBONE|DICT|INTERRES
   175   89   90 1    
   176   89  210 1    
   177   90   91 1    
   178   90   92 1    
   179   90  211 1    
   180   91  212 1    
   181   91  213 1    
   182   91  214 1    
   183   92   93 2    
   184   92   94 am   BACKBONE|DICT|INTERRES
   185   94   95 1    
   186   94  215 1    
   187   95   96 1    
   188   95   97 1    
   189   95  216 1    
   190   96  217 1    
   191   96  218 1    
   192   96  219 1    
   193   97   98 2    
   194   97   99 am   BACKBONE|DICT|INTERRES
   195   99  100 1    
   196   99  220 1    
   197  100  101 1    
   198  100  102 1    
   199  100  221 1    
   200  101  222 1    
   201  101  223 1    
   202  101  224 1    
   203  102  103 2    
   204  102  104 am   BACKBONE|DICT|INTERRES
   205  104  105 1    
   206  104  225 1    
   207  105  106 1    
   208  105  107 1    
   209  105  226 1    
   210  106  227 1    
   211  106  228 1    
   212  106  229 1    
   213  107  108 2    
   214  107  109 am   BACKBONE|DICT|INTERRES
   215  109  110 1    
   216  109  230 1    
   217  110  111 1    
   218  110  112 1    
   219  110  231 1    
   220  111  232 1    
   221  111  233 1    
   222  111  234 1    
   223  112  113 2    
   224  112  114 am   BACKBONE|DICT|INTERRES
   225  114  115 1    
   226  114  235 1    
   227  115  116 1    
   228  115  117 1    
   229  115  236 1    
   230  116  237 1    
   231  116  238 1    
   232  116  239 1    
   233  117  118 2    
   234  117  119 am   BACKBONE|DICT|INTERRES
   235  119  120 1    
   236  119  240 1    
   237  120  121 1    
   238  120  124 1    
   239  120  241 1    
   240  121  122 am   BACKBONE|DICT|INTERRES
   241  121  123 2    
   242  122  242 1    
   243  122  243 1    
   244  124  125 1    
   245  124  244 1    
   246  124  245 1    
   247  125  126 1    
   248  126  246 1    
   249  126  247 1    
@<TRIPOS>SUBSTRUCTURE
     1 UNK         1 GROUP             0       ****    0 ROOT    
