@<TRIPOS>MOLECULE
3R540
247   249    1
SMALL
USER_CHARGES


@<TRIPOS>ATOM
      1 CA          1.0589  -18.5815  -48.6082 C.3       0 UNK        -0.1800 
      2 C          -0.1590  -19.0705  -49.3867 C.2       0 UNK         0.5000 
      3 O          -0.2011  -20.2460  -49.7288 O.2       0 UNK        -0.5000 
      4 N          -1.1699  -18.2372  -49.6795 N.am      1 UNK        -0.5000 
      5 CA         -1.2940  -16.8196  -49.3206 C.3       1 UNK         0.1400 
      6 C6         -2.6916  -16.2649  -49.6856 C.3       23 UNK        -0.0398 
      7 S7         -3.0358  -14.6251  -48.9477 S.3       23 UNK        -0.2404 
      8 C8         -3.4915  -15.0274  -47.2301 C.3       23 UNK        -0.0205 
      9 C9         -4.7552  -15.8670  -47.1597 C.ar      23 UNK        -0.0193 
     10 C10        -5.9808  -15.3263  -47.5584 C.ar      23 UNK        -0.1150 
     11 C11        -7.1373  -16.1092  -47.5431 C.ar      23 UNK        -0.0193 
     12 C12        -7.0634  -17.4365  -47.1122 C.ar      23 UNK        -0.1150 
     13 C13        -5.8466  -17.9829  -46.6940 C.ar      23 UNK        -0.0193 
     14 C14        -4.6961  -17.1891  -46.7119 C.ar      23 UNK        -0.1150 
     15 C15        -5.7797  -19.4327  -46.2390 C.3       23 UNK        -0.0205 
     16 S16        -4.9283  -20.4708  -47.4683 S.3       23 UNK        -0.2404 
     17 C17        -3.1867  -20.3380  -46.9226 C.3       23 UNK        -0.0398 
     18 CA         -2.3631  -21.6527  -46.9270 C.3       11 UNK         0.1400 
     19 N          -1.0842  -21.4739  -46.2368 N.am      11 UNK        -0.5000 
     20 C          -0.0761  -22.3573  -46.2250 C.2       10 UNK         0.5000 
     21 O          -0.0757  -23.4071  -46.8684 O.2       10 UNK        -0.5000 
     22 CA          1.0996  -22.0471  -45.2773 C.3       10 UNK         0.1400 
     23 CB          2.0841  -21.0554  -45.9082 C.3       10 UNK        -0.1800 
     24 N           0.6564  -21.5228  -43.9847 N.am      10 UNK        -0.5000 
     25 C          -0.0836  -22.2064  -43.1016 C.2       9 UNK         0.5000 
     26 O          -0.4264  -23.3768  -43.2588 O.2       9 UNK        -0.5000 
     27 CA         -0.5642  -21.4370  -41.8606 C.3       9 UNK         0.1400 
     28 CB          0.5323  -21.3819  -40.7861 C.3       9 UNK        -0.1800 
     29 N          -0.9995  -20.0808  -42.1939 N.am      9 UNK        -0.5000 
     30 C          -2.1084  -19.7902  -42.8887 C.2       8 UNK         0.5000 
     31 O          -2.8945  -20.6380  -43.3107 O.2       8 UNK        -0.5000 
     32 CA         -2.3529  -18.3035  -43.2050 C.3       8 UNK         0.1400 
     33 CB         -2.9899  -17.5865  -42.0062 C.3       8 UNK        -0.1800 
     34 N          -1.1250  -17.6091  -43.5940 N.am      8 UNK        -0.5000 
     35 C          -0.4509  -17.8564  -44.7247 C.2       7 UNK         0.5000 
     36 O          -0.8204  -18.6613  -45.5785 O.2       7 UNK        -0.5000 
     37 CA          0.8732  -17.1015  -44.9302 C.3       7 UNK         0.1400 
     38 CB          0.6108  -15.7733  -45.6460 C.3       7 UNK        -0.1800 
     39 N           1.6369  -16.8558  -43.7052 N.am      7 UNK        -0.5000 
     40 C           2.0888  -17.8115  -42.8781 C.2       6 UNK         0.5000 
     41 O           1.8269  -19.0059  -43.0271 O.2       6 UNK        -0.5000 
     42 CA          2.9928  -17.3875  -41.7021 C.3       6 UNK         0.1400 
     43 CB          4.3600  -18.0836  -41.7983 C.3       6 UNK        -0.1800 
     44 N           3.2138  -15.9423  -41.6238 N.am      6 UNK        -0.5000 
     45 C           2.3781  -15.0582  -41.0628 C.2       5 UNK         0.5000 
     46 O           1.3145  -15.3693  -40.5266 O.2       5 UNK        -0.5000 
     47 CA          2.7931  -13.5737  -41.1394 C.3       5 UNK         0.1400 
     48 CB          3.5392  -13.1581  -39.8625 C.3       5 UNK        -0.1800 
     49 N           3.6267  -13.2605  -42.3072 N.am      5 UNK        -0.5000 
     50 C           3.1951  -13.3119  -43.5742 C.2       4 UNK         0.5000 
     51 O           2.0479  -13.6349  -43.8823 O.2       4 UNK        -0.5000 
     52 CA          4.2384  -13.0301  -44.6724 C.3       4 UNK         0.1400 
     53 CB          4.9940  -14.3235  -45.0184 C.3       4 UNK        -0.1800 
     54 N           3.6444  -12.4992  -45.9009 N.am      4 UNK        -0.5000 
     55 C           3.0476  -11.3053  -46.0241 C.2       3 UNK         0.5000 
     56 O           2.9618  -10.4906  -45.1037 O.2       3 UNK        -0.5000 
     57 CA          2.4788  -10.9344  -47.4121 C.3       3 UNK         0.1400 
     58 CB          3.3484   -9.8542  -48.0759 C.3       3 UNK        -0.1800 
     59 N           2.3619  -12.0702  -48.3338 N.am      3 UNK        -0.5000 
     60 C           1.3997  -12.9986  -48.2734 C.2       2 UNK         0.5000 
     61 O           0.4932  -12.9865  -47.4361 O.2       2 UNK        -0.5000 
     62 CA          1.4713  -14.1365  -49.3077 C.3       2 UNK         0.1400 
     63 CB          2.7825  -14.9390  -49.1743 C.3       2 UNK        -0.1800 
     64 N           0.3309  -15.0143  -49.0821 N.am      2 UNK        -0.5000 
     65 C          -0.1483  -15.9556  -49.8998 C.2       1 UNK         0.5000 
     66 O           0.2849  -16.1713  -51.0330 O.2       1 UNK        -0.5000 
     67 C          -3.1297  -22.8741  -46.3709 C.2       11 UNK         0.5000 
     68 O          -3.5587  -23.7196  -47.1556 O.2       11 UNK        -0.5000 
     69 N          -3.2441  -22.9797  -45.0377 N.am      12 UNK        -0.5000 
     70 CA         -3.8902  -24.1019  -44.3475 C.3       12 UNK         0.1400 
     71 CB         -3.9804  -23.7991  -42.8446 C.3       12 UNK        -0.1800 
     72 C          -3.1960  -25.4574  -44.5934 C.2       12 UNK         0.5000 
     73 O          -3.8765  -26.4765  -44.7146 O.2       12 UNK        -0.5000 
     74 N          -1.8614  -25.4379  -44.7063 N.am      13 UNK        -0.5000 
     75 CA         -1.0256  -26.5789  -45.0873 C.3       13 UNK         0.1400 
     76 CB          0.4229  -26.2904  -44.6609 C.3       13 UNK        -0.1800 
     77 C          -1.0857  -26.9172  -46.5933 C.2       13 UNK         0.5000 
     78 O          -0.5631  -27.9591  -46.9913 O.2       13 UNK        -0.5000 
     79 N          -1.7017  -26.0383  -47.3981 N.am      14 UNK        -0.5000 
     80 CA         -1.8449  -26.0932  -48.8548 C.3       14 UNK         0.1400 
     81 CB         -2.7196  -27.2887  -49.2843 C.3       14 UNK        -0.1800 
     82 C          -0.5007  -26.0211  -49.6063 C.2       14 UNK         0.5000 
     83 O          -0.3679  -26.6008  -50.6869 O.2       14 UNK        -0.5000 
     84 N           0.4680  -25.2842  -49.0430 N.am      15 UNK        -0.5000 
     85 CA          1.7626  -25.0026  -49.6628 C.3       15 UNK         0.1400 
     86 CB          2.6653  -24.2827  -48.6502 C.3       15 UNK        -0.1800 
     87 C           1.5716  -24.1506  -50.9288 C.2       15 UNK         0.5000 
     88 O           0.8234  -23.1736  -50.8850 O.2       15 UNK        -0.5000 
     89 N           2.1963  -24.5647  -52.0410 N.am      16 UNK        -0.5000 
     90 CA          2.0646  -23.9721  -53.3817 C.3       16 UNK         0.1400 
     91 CB          2.7712  -22.6011  -53.4343 C.3       16 UNK        -0.1800 
     92 C           0.5974  -23.9053  -53.8688 C.2       16 UNK         0.5000 
     93 O           0.1885  -22.9128  -54.4744 O.2       16 UNK        -0.5000 
     94 N          -0.1844  -24.9445  -53.5313 N.am      17 UNK        -0.5000 
     95 CA         -1.6311  -25.0740  -53.7508 C.3       17 UNK         0.1400 
     96 CB         -1.9437  -25.2127  -55.2555 C.3       17 UNK        -0.1800 
     97 C          -2.4472  -23.9509  -53.0721 C.2       17 UNK         0.5000 
     98 O          -3.4632  -23.5116  -53.6132 O.2       17 UNK        -0.5000 
     99 N          -1.9540  -23.4691  -51.9203 N.am      18 UNK        -0.5000 
    100 CA        -2.4677  -22.3448  -51.1287 C.3       18 UNK         0.1400 
    101 CB        -3.8747  -22.6604  -50.5811 C.3       18 UNK        -0.1800 
    102 C         -2.4164  -20.9910  -51.8740 C.2       18 UNK         0.5000 
    103 O         -3.1493  -20.0684  -51.5134 O.2       18 UNK        -0.5000 
    104 N         -1.5686  -20.9065  -52.9129 N.am      19 UNK        -0.5000 
    105 CA        -1.4604  -19.8237  -53.8957 C.3       19 UNK         0.1400 
    106 CB        -1.0324  -18.4992  -53.2314 C.3       19 UNK        -0.1800 
    107 C         -2.7244  -19.6744  -54.7719 C.2       19 UNK         0.5000 
    108 O         -2.9476  -18.6064  -55.3427 O.2       19 UNK        -0.5000 
    109 N         -3.5278  -20.7463  -54.8637 N.am      20 UNK        -0.5000 
    110 CA        -4.7836  -20.9169  -55.6050 C.3       20 UNK         0.1400 
    111 CB        -4.5782  -20.6937  -57.1155 C.3       20 UNK        -0.1800 
    112 C         -5.9833  -20.1006  -55.0794 C.2       20 UNK         0.5000 
    113 O         -7.1155  -20.5716  -55.1991 O.2       20 UNK        -0.5000 
    114 N         -5.7433  -18.9172  -54.5073 N.am      21 UNK        -0.5000 
    115 CA        -6.7483  -18.0073  -53.9688 C.3       21 UNK         0.1400 
    116 CB        -7.4364  -17.2515  -55.1235 C.3       21 UNK        -0.1800 
    117 C         -6.0921  -17.0287  -52.9821 C.2       21 UNK         0.5000 
    118 O         -4.8630  -16.9510  -52.9079 O.2       21 UNK        -0.5000 
    119 N         -6.9373  -16.2897  -52.2548 N.am      22 UNK        -0.5000 
    120 CA        -6.5609  -15.1988  -51.3426 C.3       22 UNK         0.1400 
    121 C         -5.8254  -14.0401  -52.0766 C.2       22 UNK         0.5000 
    122 N         -4.7820  -13.4749  -51.4877 N.am      22 UNK        -0.7600 
    123 O         -6.2287  -13.6143  -53.1571 O.2       22 UNK        -0.5000 
    124 C124       -7.8008  -14.6302  -50.6023 C.3       23 UNK        -0.0398 
    125 S125       -8.8040  -15.8933  -49.7419 S.3       23 UNK        -0.2404 
    126 C126       -8.4688  -15.5291  -47.9906 C.3       23 UNK        -0.0205 
    127 H127        0.7719  -17.9572  -47.7664 H         1 UNK         0.0600 
    128 H128        1.7283  -18.0184  -49.2577 H         1 UNK         0.0600 
    129 H129        1.6222  -19.4293  -48.2237 H         1 UNK         0.0600 
    130 H130       -1.9274  -18.6088  -50.2394 H         1 UNK         0.3000 
    131 H131       -1.2208  -16.7971  -48.2335 H         1 UNK         0.0600 
    132 H132       -2.7981  -16.1863  -50.7696 H         1 UNK         0.0800 
    133 H133       -3.4692  -16.9606  -49.3675 H         1 UNK         0.0800 
    134 H134       -3.6524  -14.0976  -46.6827 H         1 UNK         0.0800 
    135 H135       -2.6581  -15.5293  -46.7368 H         1 UNK         0.0800 
    136 H136       -6.0274  -14.3013  -47.8981 H         1 UNK         0.1150 
    137 H137       -7.9566  -18.0456  -47.1091 H         1 UNK         0.1150 
    138 H138       -3.7500  -17.6059  -46.3989 H         1 UNK         0.1150 
    139 H139       -5.2959  -19.5014  -45.2637 H         1 UNK         0.0800 
    140 H140       -6.7863  -19.8295  -46.0991 H         1 UNK         0.0800 
    141 H141       -3.1750  -19.9202  -45.9172 H         1 UNK         0.0800 
    142 H142       -2.6921  -19.5985  -47.5530 H         1 UNK         0.0800 
    143 H143       -2.1290  -21.8803  -47.9682 H         1 UNK         0.0600 
    144 H144       -0.9714  -20.6029  -45.7278 H         1 UNK         0.3000 
    145 H145        1.6313  -22.9835  -45.0968 H         1 UNK         0.0600 
    146 H146        2.9778  -20.9457  -45.2937 H         1 UNK         0.0600 
    147 H147        2.4046  -21.3885  -46.8955 H         1 UNK         0.0600 
    148 H148        1.6347  -20.0695  -46.0157 H         1 UNK         0.0600 
    149 H149        0.9384  -20.5754  -43.7491 H         1 UNK         0.3000 
    150 H150       -1.4180  -21.9751  -41.4436 H         1 UNK         0.0600 
    151 H151        0.8424  -22.3868  -40.4968 H         1 UNK         0.0600 
    152 H152        0.1771  -20.8802  -39.8859 H         1 UNK         0.0600 
    153 H153        1.4201  -20.8545  -41.1358 H         1 UNK         0.0600 
    154 H154       -0.3707  -19.3308  -41.9468 H         1 UNK         0.3000 
    155 H155       -3.0538  -18.2512  -44.0404 H         1 UNK         0.0600 
    156 H156       -2.3255  -17.5750  -41.1414 H         1 UNK         0.0600 
    157 H157       -3.9151  -18.0793  -41.7041 H         1 UNK         0.0600 
    158 H158       -3.2386  -16.5540  -42.2524 H         1 UNK         0.0600 
    159 H159       -0.7507  -16.9317  -42.9455 H         1 UNK         0.3000 
    160 H160        1.5011  -17.7171  -45.5754 H         1 UNK         0.0600 
    161 H161        1.5418  -15.3059  -45.9660 H         1 UNK         0.0600 
    162 H162        0.0802  -15.0677  -45.0058 H         1 UNK         0.0600 
    163 H163       -0.0010  -15.9206  -46.5318 H         1 UNK         0.0600 
    164 H164        1.8740  -15.8912  -43.5122 H         1 UNK         0.3000 
    165 H165        2.5053  -17.7235  -40.7846 H         1 UNK         0.0600 
    166 H166        4.9919  -17.8313  -40.9465 H         1 UNK         0.0600 
    167 H167        4.2497  -19.1689  -41.8063 H         1 UNK         0.0600 
    168 H168        4.8922  -17.8013  -42.7076 H         1 UNK         0.0600 
    169 H169        4.0633  -15.5939  -42.0425 H         1 UNK         0.3000 
    170 H170        1.8783  -12.9811  -41.2081 H         1 UNK         0.0600 
    171 H171        2.9352  -13.3546  -38.9757 H         1 UNK         0.0600 
    172 H172        4.4771  -13.7031  -39.7480 H         1 UNK         0.0600 
    173 H173        3.7677  -12.0922  -39.8681 H         1 UNK         0.0600 
    174 H174        4.5839  -12.9970  -42.1209 H         1 UNK         0.3000 
    175 H175        4.9513  -12.2938  -44.2955 H         1 UNK         0.0600 
    176 H176        4.3216  -15.0913  -45.4043 H         1 UNK         0.0600 
    177 H177        5.7630  -14.1428  -45.7698 H         1 UNK         0.0600 
    178 H178        5.4930  -14.7359  -44.1405 H         1 UNK         0.0600 
    179 H179        3.6501  -13.1082  -46.7039 H         1 UNK         0.3000 
    180 H180        1.4837  -10.5142  -47.2506 H         1 UNK         0.0600 
    181 H181        4.3597  -10.2142  -48.2687 H         1 UNK         0.0600 
    182 H182        3.4301   -8.9712  -47.4407 H         1 UNK         0.0600 
    183 H183        2.9197   -9.5300  -49.0244 H         1 UNK         0.0600 
    184 H184        3.0698  -12.1392  -49.0509 H         1 UNK         0.3000 
    185 H185        1.3979  -13.7007  -50.3059 H         1 UNK         0.0600 
    186 H186        3.6564  -14.3096  -49.3432 H         1 UNK         0.0600 
    187 H187        2.8819  -15.3837  -48.1833 H         1 UNK         0.0600 
    188 H188        2.8306  -15.7455  -49.9057 H         1 UNK         0.0600 
    189 H189       -0.1430  -14.8078  -48.2104 H         1 UNK         0.3000 
    190 H190       -2.9028  -22.2247  -44.4500 H         1 UNK         0.3000 
    191 H191       -4.9074  -24.1813  -44.7365 H         1 UNK         0.0600 
    192 H192       -4.4946  -24.6018  -42.3148 H         1 UNK         0.0600 
    193 H193       -4.5360  -22.8795  -42.6601 H         1 UNK         0.0600 
    194 H194       -2.9934  -23.6898  -42.3957 H         1 UNK         0.0600 
    195 H195       -1.3736  -24.5698  -44.5053 H         1 UNK         0.3000 
    196 H196       -1.3726  -27.4586  -44.5416 H         1 UNK         0.0600 
    197 H197        1.0737  -27.1380  -44.8789 H         1 UNK         0.0600 
    198 H198        0.4883  -26.0984  -43.5897 H         1 UNK         0.0600 
    199 H199        0.8288  -25.4228  -45.1817 H         1 UNK         0.0600 
    200 H200       -2.0982  -25.2098  -46.9701 H         1 UNK         0.3000 
    201 H201       -2.3798  -25.1856  -49.1329 H         1 UNK         0.0600 
    202 H202       -3.6665  -27.2966  -48.7445 H         1 UNK         0.0600 
    203 H203       -2.2214  -28.2416  -49.1047 H         1 UNK         0.0600 
    204 H204       -2.9547  -27.2384  -50.3481 H         1 UNK         0.0600 
    205 H205        0.2541  -24.7665  -48.1942 H         1 UNK         0.3000 
    206 H206        2.2264  -25.9544  -49.9297 H         1 UNK         0.0600 
    207 H207        2.7792  -24.8652  -47.7358 H         1 UNK         0.0600 
    208 H208        3.6617  -24.1203  -49.0626 H         1 UNK         0.0600 
    209 H209        2.2602  -23.3077  -48.3784 H         1 UNK         0.0600 
    210 H210        2.7758  -25.3912  -51.9875 H         1 UNK         0.3000 
    211 H211        2.5838  -24.6396  -54.0707 H         1 UNK         0.0600 
    212 H212        2.2702  -21.8629  -52.8069 H         1 UNK         0.0600 
    213 H213        2.7881  -22.2078  -54.4514 H         1 UNK         0.0600 
    214 H214        3.8058  -22.6777  -53.1003 H         1 UNK         0.0600 
    215 H215        0.2340  -25.6899  -52.9897 H         1 UNK         0.3000 
    216 H216       -1.9323  -26.0020  -53.2625 H         1 UNK         0.0600 
    217 H217       -2.9959  -25.4504  -55.4161 H         1 UNK         0.0600 
    218 H218       -1.3593  -26.0141  -55.7074 H         1 UNK         0.0600 
    219 H219       -1.7307  -24.2929  -55.8010 H         1 UNK         0.0600 
    220 H220       -1.0517  -23.8135  -51.6120 H         1 UNK         0.3000 
    221 H221       -1.7945  -22.2526  -50.2771 H         1 UNK         0.0600 
    222 H222       -4.6230  -22.6926  -51.3730 H         1 UNK         0.0600 
    223 H223       -3.8969  -23.6155  -50.0581 H         1 UNK         0.0600 
    224 H224       -4.1925  -21.8989  -49.8709 H         1 UNK         0.0600 
    225 H225       -0.9993  -21.7191  -53.1209 H         1 UNK         0.3000 
    226 H226       -0.6601  -20.1217  -54.5743 H         1 UNK         0.0600 
    227 H227       -0.7626  -17.7553  -53.9815 H         1 UNK         0.0600 
    228 H228       -1.8310  -18.0696  -52.6261 H         1 UNK         0.0600 
    229 H229       -0.1625  -18.6407  -52.5899 H         1 UNK         0.0600 
    230 H230       -3.2663  -21.5636  -54.3224 H         1 UNK         0.3000 
    231 H231       -5.0503  -21.9661  -55.4681 H         1 UNK         0.0600 
    232 H232       -3.7725  -21.3186  -57.5009 H         1 UNK         0.0600 
    233 H233       -4.3398  -19.6553  -57.3464 H         1 UNK         0.0600 
    234 H234       -5.4814  -20.9489  -57.6710 H         1 UNK         0.0600 
    235 H235       -4.7851  -18.5868  -54.4351 H         1 UNK         0.3000 
    236 H236       -7.4914  -18.5874  -53.4176 H         1 UNK         0.0600 
    237 H237       -7.9355  -17.9367  -55.8087 H         1 UNK         0.0600 
    238 H238       -8.1960  -16.5631  -54.7518 H         1 UNK         0.0600 
    239 H239       -6.7181  -16.6671  -55.6998 H         1 UNK         0.0600 
    240 H240       -7.9299  -16.4218  -52.3794 H         1 UNK         0.3000 
    241 H241       -5.8817  -15.6220  -50.5997 H         1 UNK         0.0600 
    242 H242       -4.4202  -13.8077  -50.6050 H         1 UNK         0.3800 
    243 H243       -4.3173  -12.7114  -51.9533 H         1 UNK         0.3800 
    244 H244       -7.4936  -13.8649  -49.8880 H         1 UNK         0.0800 
    245 H245       -8.4609  -14.1245  -51.3096 H         1 UNK         0.0800 
    246 H246       -8.5030  -14.4529  -47.8144 H         1 UNK         0.0800 
    247 H247       -9.2708  -15.9564  -47.3869 H         1 UNK         0.0800 
@<TRIPOS>BOND
     1    1    2 1    
     2    1  127 1    
     3    1  128 1    
     4    1  129 1    
     5    2    3 2    
     6    2    4 am   BACKBONE|DICT|INTERRES
     7    4    5 1    
     8    4  130 1    
     9    5    6 1    
    10    5   65 1    
    11    5  131 1    
    12    6    7 1    
    13    6  132 1    
    14    6  133 1    
    15    7    8 1    
    16    8    9 1    
    17    8  134 1    
    18    8  135 1    
    19    9   10 ar   
    20    9   14 ar   
    21   10   11 ar   
    22   10  136 1    
    23   11   12 ar   
    24   11  126 1    
    25   12   13 ar   
    26   12  137 1    
    27   13   14 ar   
    28   13   15 1    
    29   14  138 1    
    30   15   16 1    
    31   15  139 1    
    32   15  140 1    
    33   16   17 1    
    34   17   18 1    
    35   17  141 1    
    36   17  142 1    
    37   18   19 1    
    38   18   67 1    
    39   18  143 1    
    40   19   20 am   BACKBONE|DICT|INTERRES
    41   19  144 1    
    42   20   21 2    
    43   20   22 1    
    44   22   23 1    
    45   22   24 1    
    46   22  145 1    
    47   23  146 1    
    48   23  147 1    
    49   23  148 1    
    50   24   25 am   BACKBONE|DICT|INTERRES
    51   24  149 1    
    52   25   26 2    
    53   25   27 1    
    54   27   28 1    
    55   27   29 1    
    56   27  150 1    
    57   28  151 1    
    58   28  152 1    
    59   28  153 1    
    60   29   30 am   BACKBONE|DICT|INTERRES
    61   29  154 1    
    62   30   31 2    
    63   30   32 1    
    64   32   33 1    
    65   32   34 1    
    66   32  155 1    
    67   33  156 1    
    68   33  157 1    
    69   33  158 1    
    70   34   35 am   BACKBONE|DICT|INTERRES
    71   34  159 1    
    72   35   36 2    
    73   35   37 1    
    74   37   38 1    
    75   37   39 1    
    76   37  160 1    
    77   38  161 1    
    78   38  162 1    
    79   38  163 1    
    80   39   40 am   BACKBONE|DICT|INTERRES
    81   39  164 1    
    82   40   41 2    
    83   40   42 1    
    84   42   43 1    
    85   42   44 1    
    86   42  165 1    
    87   43  166 1    
    88   43  167 1    
    89   43  168 1    
    90   44   45 am   BACKBONE|DICT|INTERRES
    91   44  169 1    
    92   45   46 2    
    93   45   47 1    
    94   47   48 1    
    95   47   49 1    
    96   47  170 1    
    97   48  171 1    
    98   48  172 1    
    99   48  173 1    
   100   49   50 am   BACKBONE|DICT|INTERRES
   101   49  174 1    
   102   50   51 2    
   103   50   52 1    
   104   52   53 1    
   105   52   54 1    
   106   52  175 1    
   107   53  176 1    
   108   53  177 1    
   109   53  178 1    
   110   54   55 am   BACKBONE|DICT|INTERRES
   111   54  179 1    
   112   55   56 2    
   113   55   57 1    
   114   57   58 1    
   115   57   59 1    
   116   57  180 1    
   117   58  181 1    
   118   58  182 1    
   119   58  183 1    
   120   59   60 am   BACKBONE|DICT|INTERRES
   121   59  184 1    
   122   60   61 2    
   123   60   62 1    
   124   62   63 1    
   125   62   64 1    
   126   62  185 1    
   127   63  186 1    
   128   63  187 1    
   129   63  188 1    
   130   64   65 am   BACKBONE|DICT|INTERRES
   131   64  189 1    
   132   65   66 2    
   133   67   68 2    
   134   67   69 am   BACKBONE|DICT|INTERRES
   135   69   70 1    
   136   69  190 1    
   137   70   71 1    
   138   70   72 1    
   139   70  191 1    
   140   71  192 1    
   141   71  193 1    
   142   71  194 1    
   143   72   73 2    
   144   72   74 am   BACKBONE|DICT|INTERRES
   145   74   75 1    
   146   74  195 1    
   147   75   76 1    
   148   75   77 1    
   149   75  196 1    
   150   76  197 1    
   151   76  198 1    
   152   76  199 1    
   153   77   78 2    
   154   77   79 am   BACKBONE|DICT|INTERRES
   155   79   80 1    
   156   79  200 1    
   157   80   81 1    
   158   80   82 1    
   159   80  201 1    
   160   81  202 1    
   161   81  203 1    
   162   81  204 1    
   163   82   83 2    
   164   82   84 am   BACKBONE|DICT|INTERRES
   165   84   85 1    
   166   84  205 1    
   167   85   86 1    
   168   85   87 1    
   169   85  206 1    
   170   86  207 1    
   171   86  208 1    
   172   86  209 1    
   173   87   88 2    
   174   87   89 am   BACKBONE|DICT|INTERRES
   175   89   90 1    
   176   89  210 1    
   177   90   91 1    
   178   90   92 1    
   179   90  211 1    
   180   91  212 1    
   181   91  213 1    
   182   91  214 1    
   183   92   93 2    
   184   92   94 am   BACKBONE|DICT|INTERRES
   185   94   95 1    
   186   94  215 1    
   187   95   96 1    
   188   95   97 1    
   189   95  216 1    
   190   96  217 1    
   191   96  218 1    
   192   96  219 1    
   193   97   98 2    
   194   97   99 am   BACKBONE|DICT|INTERRES
   195   99  100 1    
   196   99  220 1    
   197  100  101 1    
   198  100  102 1    
   199  100  221 1    
   200  101  222 1    
   201  101  223 1    
   202  101  224 1    
   203  102  103 2    
   204  102  104 am   BACKBONE|DICT|INTERRES
   205  104  105 1    
   206  104  225 1    
   207  105  106 1    
   208  105  107 1    
   209  105  226 1    
   210  106  227 1    
   211  106  228 1    
   212  106  229 1    
   213  107  108 2    
   214  107  109 am   BACKBONE|DICT|INTERRES
   215  109  110 1    
   216  109  230 1    
   217  110  111 1    
   218  110  112 1    
   219  110  231 1    
   220  111  232 1    
   221  111  233 1    
   222  111  234 1    
   223  112  113 2    
   224  112  114 am   BACKBONE|DICT|INTERRES
   225  114  115 1    
   226  114  235 1    
   227  115  116 1    
   228  115  117 1    
   229  115  236 1    
   230  116  237 1    
   231  116  238 1    
   232  116  239 1    
   233  117  118 2    
   234  117  119 am   BACKBONE|DICT|INTERRES
   235  119  120 1    
   236  119  240 1    
   237  120  121 1    
   238  120  124 1    
   239  120  241 1    
   240  121  122 am   BACKBONE|DICT|INTERRES
   241  121  123 2    
   242  122  242 1    
   243  122  243 1    
   244  124  125 1    
   245  124  244 1    
   246  124  245 1    
   247  125  126 1    
   248  126  246 1    
   249  126  247 1    
@<TRIPOS>SUBSTRUCTURE
     1 UNK         1 GROUP             0       ****    0 ROOT    
