@<TRIPOS>MOLECULE
3R540
247   249    1
SMALL
USER_CHARGES


@<TRIPOS>ATOM
      1 CA          3.6946  -12.2986  -51.6502 C.3       0 UNK        -0.1800 
      2 C           3.2798  -13.4699  -50.7707 C.2       0 UNK         0.5000 
      3 O           3.8053  -14.5718  -50.9320 O.2       0 UNK        -0.5000 
      4 N           2.3364  -13.2356  -49.8509 N.am      1 UNK        -0.5000 
      5 CA          1.8230  -14.2304  -48.9037 C.3       1 UNK         0.1400 
      6 C6          0.4741  -13.7962  -48.2722 C.3       23 UNK        -0.0398 
      7 S7         -0.8121  -13.3220  -49.4795 S.3       23 UNK        -0.2404 
      8 C8         -1.6998  -14.8916  -49.7407 C.3       23 UNK        -0.0205 
      9 C9         -0.8909  -15.8490  -50.6007 C.ar      23 UNK        -0.0193 
     10 C10        -0.7943  -15.6387  -51.9780 C.ar      23 UNK        -0.1150 
     11 C11        -0.0155  -16.4835  -52.7718 C.ar      23 UNK        -0.0193 
     12 C12         0.6726  -17.5431  -52.1742 C.ar      23 UNK        -0.1150 
     13 C13         0.5951  -17.7650  -50.7958 C.ar      23 UNK        -0.0193 
     14 C14        -0.2086  -16.9195  -50.0179 C.ar      23 UNK        -0.1150 
     15 C15         1.4607  -18.8746  -50.1964 C.3       23 UNK        -0.0205 
     16 S16         1.1346  -19.2776  -48.4470 S.3       23 UNK        -0.2404 
     17 C17        -0.2127  -20.5013  -48.5827 C.3       23 UNK        -0.0398 
     18 CA          0.0293  -21.6900  -47.6226 C.3       11 UNK         0.1400 
     19 N           0.1197  -21.2655  -46.2263 N.am      11 UNK        -0.5000 
     20 C           0.6397  -21.9967  -45.2341 C.2       10 UNK         0.5000 
     21 O           1.1584  -23.1008  -45.3958 O.2       10 UNK        -0.5000 
     22 CA          0.5365  -21.4022  -43.8180 C.3       10 UNK         0.1400 
     23 CB          1.8175  -20.6388  -43.4553 C.3       10 UNK        -0.1800 
     24 N          -0.6244  -20.5209  -43.6562 N.am      10 UNK        -0.5000 
     25 C          -1.8908  -20.9588  -43.6196 C.2       9 UNK         0.5000 
     26 O          -2.2034  -22.1479  -43.6964 O.2       9 UNK        -0.5000 
     27 CA         -2.9910  -19.8839  -43.5284 C.3       9 UNK         0.1400 
     28 CB         -3.0965  -19.3429  -42.0966 C.3       9 UNK        -0.1800 
     29 N          -2.8168  -18.7660  -44.4645 N.am      9 UNK        -0.5000 
     30 C          -2.7663  -18.8976  -45.7991 C.2       8 UNK         0.5000 
     31 O          -2.7978  -19.9870  -46.3656 O.2       8 UNK        -0.5000 
     32 CA         -2.6768  -17.6300  -46.6677 C.3       8 UNK         0.1400 
     33 CB         -3.9828  -17.4199  -47.4479 C.3       8 UNK        -0.1800 
     34 N          -2.3749  -16.4213  -45.9066 N.am      8 UNK        -0.5000 
     35 C          -1.1474  -16.0586  -45.5181 C.2       7 UNK         0.5000 
     36 O          -0.1341  -16.7028  -45.7827 O.2       7 UNK        -0.5000 
     37 CA         -1.0248  -14.7366  -44.7367 C.3       7 UNK         0.1400 
     38 CB         -2.0401  -13.6687  -45.1955 C.3       7 UNK        -0.1800 
     39 N          -1.0890  -14.9095  -43.2844 N.am      7 UNK        -0.5000 
     40 C          -2.0360  -15.5032  -42.5451 C.2       6 UNK         0.5000 
     41 O          -3.0121  -16.0895  -43.0167 O.2       6 UNK        -0.5000 
     42 CA         -1.8314  -15.4343  -41.0141 C.3       6 UNK         0.1400 
     43 CB         -3.0208  -15.9986  -40.2168 C.3       6 UNK        -0.1800 
     44 N          -0.6056  -16.1175  -40.5928 N.am      6 UNK        -0.5000 
     45 C           0.6332  -15.6347  -40.7511 C.2       5 UNK         0.5000 
     46 O           0.8557  -14.5133  -41.2172 O.2       5 UNK        -0.5000 
     47 CA          1.7992  -16.5578  -40.3464 C.3       5 UNK         0.1400 
     48 CB          1.6358  -17.9690  -40.9384 C.3       5 UNK        -0.1800 
     49 N           3.0430  -15.9944  -40.8579 N.am      5 UNK        -0.5000 
     50 C           4.0633  -15.5237  -40.1311 C.2       4 UNK         0.5000 
     51 O           4.1427  -15.6323  -38.9067 O.2       4 UNK        -0.5000 
     52 CA          5.1843  -14.7928  -40.9035 C.3       4 UNK         0.1400 
     53 CB          6.3600  -15.7442  -41.1737 C.3       4 UNK        -0.1800 
     54 N           4.7216  -14.2377  -42.1781 N.am      4 UNK        -0.5000 
     55 C           3.8656  -13.2132  -42.2979 C.2       3 UNK         0.5000 
     56 O           3.5391  -12.4934  -41.3532 O.2       3 UNK        -0.5000 
     57 CA          3.2542  -12.9509  -43.6920 C.3       3 UNK         0.1400 
     58 CB          3.7248  -11.5974  -44.2475 C.3       3 UNK        -0.1800 
     59 N           3.5152  -13.9817  -44.7038 N.am      3 UNK        -0.5000 
     60 C           3.1105  -15.2579  -44.6800 C.2       2 UNK         0.5000 
     61 O           2.5026  -15.7603  -43.7350 O.2       2 UNK        -0.5000 
     62 CA          3.4449  -16.0919  -45.9346 C.3       2 UNK         0.1400 
     63 CB          3.2457  -17.6017  -45.7141 C.3       2 UNK        -0.1800 
     64 N           2.6435  -15.6660  -47.0837 N.am      2 UNK        -0.5000 
     65 C           2.8521  -14.5497  -47.7965 C.2       1 UNK         0.5000 
     66 O           3.7841  -13.7711  -47.5713 O.2       1 UNK        -0.5000 
     67 C          -1.0383  -22.7884  -47.7716 C.2       11 UNK         0.5000 
     68 O          -0.7534  -23.8335  -48.3538 O.2       11 UNK        -0.5000 
     69 N          -2.2211  -22.5749  -47.1785 N.am      12 UNK        -0.5000 
     70 CA         -3.3296  -23.5285  -47.1389 C.3       12 UNK         0.1400 
     71 CB         -4.5570  -22.8606  -46.5032 C.3       12 UNK        -0.1800 
     72 C          -2.9717  -24.8371  -46.4136 C.2       12 UNK         0.5000 
     73 O          -3.3778  -25.9076  -46.8656 O.2       12 UNK        -0.5000 
     74 N          -2.1545  -24.7420  -45.3549 N.am      13 UNK        -0.5000 
     75 CA         -1.5671  -25.8852  -44.6490 C.3       13 UNK         0.1400 
     76 CB         -0.8690  -25.3872  -43.3748 C.3       13 UNK        -0.1800 
     77 C          -0.5945  -26.7171  -45.5156 C.2       13 UNK         0.5000 
     78 O          -0.4055  -27.9020  -45.2400 O.2       13 UNK        -0.5000 
     79 N          -0.0257  -26.0986  -46.5592 N.am      14 UNK        -0.5000 
     80 CA          0.8195  -26.7249  -47.5776 C.3       14 UNK         0.1400 
     81 CB          2.0155  -25.7978  -47.8582 C.3       14 UNK        -0.1800 
     82 C           0.0325  -27.0445  -48.8699 C.2       14 UNK         0.5000 
     83 O           0.6505  -27.3410  -49.8929 O.2       14 UNK        -0.5000 
     84 N          -1.3072  -26.9788  -48.8049 N.am      15 UNK        -0.5000 
     85 CA         -2.2902  -27.2439  -49.8628 C.3       15 UNK         0.1400 
     86 CB         -2.1340  -28.6651  -50.4434 C.3       15 UNK        -0.1800 
     87 C          -2.3771  -26.1631  -50.9621 C.2       15 UNK         0.5000 
     88 O          -3.1011  -26.3599  -51.9395 O.2       15 UNK        -0.5000 
     89 N          -1.7094  -25.0176  -50.7767 N.am      16 UNK        -0.5000 
     90 CA         -1.8354  -23.8279  -51.6180 C.3       16 UNK         0.1400 
     91 CB         -0.4699  -23.1236  -51.7108 C.3       16 UNK        -0.1800 
     92 C          -2.9463  -22.9328  -51.0384 C.2       16 UNK         0.5000 
     93 O          -2.6641  -21.8782  -50.4686 O.2       16 UNK        -0.5000 
     94 N          -4.1883  -23.4295  -51.1254 N.am      17 UNK        -0.5000 
     95 CA         -5.4042  -22.8264  -50.5786 C.3       17 UNK         0.1400 
     96 CB         -6.5948  -23.7380  -50.9095 C.3       17 UNK        -0.1800 
     97 C          -5.6660  -21.3979  -51.0879 C.2       17 UNK         0.5000 
     98 O          -5.4523  -21.1258  -52.2710 O.2       17 UNK        -0.5000 
     99 N          -6.1504  -20.5379  -50.1801 N.am      18 UNK        -0.5000 
    100 CA        -6.4204  -19.1126  -50.3802 C.3       18 UNK         0.1400 
    101 CB        -7.1164  -18.5580  -49.1266 C.3       18 UNK        -0.1800 
    102 C         -7.2671  -18.8285  -51.6339 C.2       18 UNK         0.5000 
    103 O         -8.3771  -19.3536  -51.7510 O.2       18 UNK        -0.5000 
    104 N         -6.7038  -18.0355  -52.5535 N.am      19 UNK        -0.5000 
    105 CA        -7.2019  -17.6629  -53.8825 C.3       19 UNK         0.1400 
    106 CB        -8.5511  -16.9240  -53.8026 C.3       19 UNK        -0.1800 
    107 C         -7.2578  -18.8321  -54.8866 C.2       19 UNK         0.5000 
    108 O         -6.7664  -18.6798  -56.0052 O.2       19 UNK        -0.5000 
    109 N         -7.8215  -19.9748  -54.4725 N.am      20 UNK        -0.5000 
    110 CA        -8.0102  -21.1961  -55.2623 C.3       20 UNK         0.1400 
    111 CB        -8.7388  -22.2379  -54.3999 C.3       20 UNK        -0.1800 
    112 C         -6.7047  -21.7837  -55.8316 C.2       20 UNK         0.5000 
    113 O         -6.6896  -22.2440  -56.9739 O.2       20 UNK        -0.5000 
    114 N         -5.6324  -21.7187  -55.0382 N.am      21 UNK        -0.5000 
    115 CA        -4.2613  -22.0369  -55.4213 C.3       21 UNK         0.1400 
    116 CB        -3.9122  -23.4595  -54.9522 C.3       21 UNK        -0.1800 
    117 C         -3.3343  -20.9463  -54.8555 C.2       21 UNK         0.5000 
    118 O         -2.2727  -21.2454  -54.3054 O.2       21 UNK        -0.5000 
    119 N         -3.7854  -19.6903  -54.9834 N.am      22 UNK        -0.5000 
    120 CA        -3.1887  -18.4565  -54.4518 C.3       22 UNK         0.1400 
    121 C         -3.2361  -18.3631  -52.9010 C.2       22 UNK         0.5000 
    122 N         -2.6225  -19.2930  -52.1860 N.am      22 UNK        -0.7600 
    123 O         -3.8742  -17.4685  -52.3515 O.2       22 UNK        -0.5000 
    124 C124       -1.7769  -18.1708  -55.0315 C.3       23 UNK        -0.0398 
    125 S125       -1.4413  -16.3830  -55.1705 S.3       23 UNK        -0.2404 
    126 C126        0.1290  -16.2172  -54.2637 C.3       23 UNK        -0.0205 
    127 H127        3.5121  -12.5339  -52.6987 H         1 UNK         0.0600 
    128 H128        4.7578  -12.0937  -51.5251 H         1 UNK         0.0600 
    129 H129        3.1422  -11.3912  -51.4045 H         1 UNK         0.0600 
    130 H130        1.9486  -12.3080  -49.7614 H         1 UNK         0.3000 
    131 H131        1.6669  -15.1523  -49.4621 H         1 UNK         0.0600 
    132 H132        0.0763  -14.5950  -47.6490 H         1 UNK         0.0800 
    133 H133        0.6250  -12.9431  -47.6078 H         1 UNK         0.0800 
    134 H134       -1.9463  -15.3408  -48.7783 H         1 UNK         0.0800 
    135 H135       -2.6508  -14.6847  -50.2339 H         1 UNK         0.0800 
    136 H136       -1.3135  -14.8058  -52.4308 H         1 UNK         0.1150 
    137 H137        1.2980  -18.1828  -52.7811 H         1 UNK         0.1150 
    138 H138       -0.2723  -17.0508  -48.9489 H         1 UNK         0.1150 
    139 H139        1.3799  -19.7780  -50.8028 H         1 UNK         0.0800 
    140 H140        2.5009  -18.5547  -50.2692 H         1 UNK         0.0800 
    141 H141       -0.2798  -20.8534  -49.6118 H         1 UNK         0.0800 
    142 H142       -1.1612  -20.0061  -48.3773 H         1 UNK         0.0800 
    143 H143        0.9864  -22.1407  -47.8954 H         1 UNK         0.0600 
    144 H144       -0.3025  -20.3774  -46.0018 H         1 UNK         0.3000 
    145 H145        0.4346  -22.2378  -43.1222 H         1 UNK         0.0600 
    146 H146        1.8282  -20.3816  -42.3973 H         1 UNK         0.0600 
    147 H147        2.7044  -21.2447  -43.6455 H         1 UNK         0.0600 
    148 H148        1.9175  -19.7191  -44.0312 H         1 UNK         0.0600 
    149 H149       -0.4490  -19.5279  -43.6104 H         1 UNK         0.3000 
    150 H150       -3.9378  -20.3687  -43.7752 H         1 UNK         0.0600 
    151 H151       -3.2391  -20.1525  -41.3797 H         1 UNK         0.0600 
    152 H152       -3.9466  -18.6679  -41.9969 H         1 UNK         0.0600 
    153 H153       -2.1968  -18.7994  -41.8064 H         1 UNK         0.0600 
    154 H154       -2.8185  -17.8319  -44.0670 H         1 UNK         0.3000 
    155 H155       -1.8794  -17.7961  -47.3940 H         1 UNK         0.0600 
    156 H156       -4.8364  -17.2978  -46.7802 H         1 UNK         0.0600 
    157 H157       -3.9298  -16.5407  -48.0894 H         1 UNK         0.0600 
    158 H158       -4.1852  -18.2754  -48.0933 H         1 UNK         0.0600 
    159 H159       -3.1608  -15.8646  -45.6013 H         1 UNK         0.3000 
    160 H160       -0.0271  -14.3499  -44.9508 H         1 UNK         0.0600 
    161 H161       -1.8071  -12.6992  -44.7551 H         1 UNK         0.0600 
    162 H162       -3.0625  -13.9195  -44.9114 H         1 UNK         0.0600 
    163 H163       -2.0183  -13.5424  -46.2789 H         1 UNK         0.0600 
    164 H164       -0.2908  -14.5465  -42.7697 H         1 UNK         0.3000 
    165 H165       -1.7483  -14.3762  -40.7564 H         1 UNK         0.0600 
    166 H166       -2.8960  -15.8183  -39.1490 H         1 UNK         0.0600 
    167 H167       -3.9555  -15.5229  -40.5165 H         1 UNK         0.0600 
    168 H168       -3.1366  -17.0716  -40.3599 H         1 UNK         0.0600 
    169 H169       -0.7208  -17.0467  -40.2162 H         1 UNK         0.3000 
    170 H170        1.8176  -16.6219  -39.2569 H         1 UNK         0.0600 
    171 H171        2.5122  -18.5832  -40.7304 H         1 UNK         0.0600 
    172 H172        1.5045  -17.9323  -42.0210 H         1 UNK         0.0600 
    173 H173        0.7756  -18.4884  -40.5155 H         1 UNK         0.0600 
    174 H174        3.0264  -15.7979  -41.8549 H         1 UNK         0.3000 
    175 H175        5.5409  -13.9723  -40.2773 H         1 UNK         0.0600 
    176 H176        7.1824  -15.2258  -41.6670 H         1 UNK         0.0600 
    177 H177        6.0624  -16.5823  -41.8054 H         1 UNK         0.0600 
    178 H178        6.7494  -16.1573  -40.2423 H         1 UNK         0.0600 
    179 H179        4.9495  -14.7609  -43.0099 H         1 UNK         0.3000 
    180 H180        2.1724  -12.9034  -43.5514 H         1 UNK         0.0600 
    181 H181        4.8001  -11.5920  -44.4296 H         1 UNK         0.0600 
    182 H182        3.5048  -10.7870  -43.5512 H         1 UNK         0.0600 
    183 H183        3.2239  -11.3604  -45.1865 H         1 UNK         0.0600 
    184 H184        3.9610  -13.6623  -45.5581 H         1 UNK         0.3000 
    185 H185        4.5010  -15.9327  -46.1626 H         1 UNK         0.0600 
    186 H186        2.2017  -17.8482  -45.5227 H         1 UNK         0.0600 
    187 H187        3.5668  -18.1727  -46.5853 H         1 UNK         0.0600 
    188 H188        3.8278  -17.9540  -44.8617 H         1 UNK         0.0600 
    189 H189        1.8326  -16.2392  -47.2746 H         1 UNK         0.3000 
    190 H190       -2.3939  -21.6665  -46.7502 H         1 UNK         0.3000 
    191 H191       -3.5742  -23.7885  -48.1696 H         1 UNK         0.0600 
    192 H192       -4.8499  -21.9680  -47.0563 H         1 UNK         0.0600 
    193 H193       -5.4121  -23.5375  -46.4967 H         1 UNK         0.0600 
    194 H194       -4.3624  -22.5632  -45.4721 H         1 UNK         0.0600 
    195 H195       -1.9128  -23.8190  -45.0116 H         1 UNK         0.3000 
    196 H196       -2.3841  -26.5457  -44.3516 H         1 UNK         0.0600 
    197 H197       -0.4773  -26.2222  -42.7927 H         1 UNK         0.0600 
    198 H198       -1.5597  -24.8392  -42.7336 H         1 UNK         0.0600 
    199 H199       -0.0320  -24.7289  -43.6059 H         1 UNK         0.0600 
    200 H200       -0.2515  -25.1257  -46.7286 H         1 UNK         0.3000 
    201 H201        1.2119  -27.6718  -47.2024 H         1 UNK         0.0600 
    202 H202        2.5579  -25.5671  -46.9411 H         1 UNK         0.0600 
    203 H203        1.7009  -24.8541  -48.3042 H         1 UNK         0.0600 
    204 H204        2.7234  -26.2647  -48.5439 H         1 UNK         0.0600 
    205 H205       -1.7160  -26.6925  -47.9230 H         1 UNK         0.3000 
    206 H206       -3.2579  -27.2142  -49.3603 H         1 UNK         0.0600 
    207 H207       -2.0892  -29.4130  -49.6517 H         1 UNK         0.0600 
    208 H208       -2.9809  -28.9214  -51.0809 H         1 UNK         0.0600 
    209 H209       -1.2337  -28.7613  -51.0503 H         1 UNK         0.0600 
    210 H210       -1.2060  -24.8812  -49.9043 H         1 UNK         0.3000 
    211 H211       -2.1233  -24.1075  -52.6325 H         1 UNK         0.0600 
    212 H212       -0.0614  -22.8894  -50.7295 H         1 UNK         0.0600 
    213 H213       -0.5480  -22.1899  -52.2689 H         1 UNK         0.0600 
    214 H214        0.2560  -23.7512  -52.2275 H         1 UNK         0.0600 
    215 H215       -4.3057  -24.3136  -51.6007 H         1 UNK         0.3000 
    216 H216       -5.2892  -22.7890  -49.4946 H         1 UNK         0.0600 
    217 H217       -7.5266  -23.3261  -50.5195 H         1 UNK         0.0600 
    218 H218       -6.4687  -24.7278  -50.4702 H         1 UNK         0.0600 
    219 H219       -6.7158  -23.8618  -51.9865 H         1 UNK         0.0600 
    220 H220       -6.3288  -20.8815  -49.2488 H         1 UNK         0.3000 
    221 H221       -5.4537  -18.6162  -50.4799 H         1 UNK         0.0600 
    222 H222       -8.0997  -19.0075  -48.9813 H         1 UNK         0.0600 
    223 H223       -6.5321  -18.7454  -48.2265 H         1 UNK         0.0600 
    224 H224       -7.2570  -17.4792  -49.2051 H         1 UNK         0.0600 
    225 H225       -5.7545  -17.7187  -52.3658 H         1 UNK         0.3000 
    226 H226       -6.4697  -16.9541  -54.2727 H         1 UNK         0.0600 
    227 H227       -8.4909  -16.0652  -53.1340 H         1 UNK         0.0600 
    228 H228       -8.8464  -16.5515  -54.7842 H         1 UNK         0.0600 
    229 H229       -9.3542  -17.5701  -53.4476 H         1 UNK         0.0600 
    230 H230       -8.1648  -19.9922  -53.5157 H         1 UNK         0.3000 
    231 H231       -8.6515  -20.9416  -56.1083 H         1 UNK         0.0600 
    232 H232       -8.1675  -22.4855  -53.5045 H         1 UNK         0.0600 
    233 H233       -8.9012  -23.1630  -54.9546 H         1 UNK         0.0600 
    234 H234       -9.7158  -21.8731  -54.0825 H         1 UNK         0.0600 
    235 H235       -5.7336  -21.3485  -54.0933 H         1 UNK         0.3000 
    236 H236       -4.1534  -21.9959  -56.5070 H         1 UNK         0.0600 
    237 H237       -4.5319  -24.1998  -55.4581 H         1 UNK         0.0600 
    238 H238       -2.8716  -23.7064  -55.1657 H         1 UNK         0.0600 
    239 H239       -4.0728  -23.5719  -53.8818 H         1 UNK         0.0600 
    240 H240       -4.6805  -19.5678  -55.4387 H         1 UNK         0.3000 
    241 H241       -3.8571  -17.6768  -54.8209 H         1 UNK         0.0600 
    242 H242       -2.2155  -20.0886  -52.6625 H         1 UNK         0.3800 
    243 H243       -2.6682  -19.2812  -51.1816 H         1 UNK         0.3800 
    244 H244       -0.9992  -18.6721  -54.4532 H         1 UNK         0.0800 
    245 H245       -1.6991  -18.5777  -56.0404 H         1 UNK         0.0800 
    246 H246        0.5069  -15.2033  -54.4021 H         1 UNK         0.0800 
    247 H247        0.8708  -16.8813  -54.7103 H         1 UNK         0.0800 
@<TRIPOS>BOND
     1    1    2 1    
     2    1  127 1    
     3    1  128 1    
     4    1  129 1    
     5    2    3 2    
     6    2    4 am   BACKBONE|DICT|INTERRES
     7    4    5 1    
     8    4  130 1    
     9    5    6 1    
    10    5   65 1    
    11    5  131 1    
    12    6    7 1    
    13    6  132 1    
    14    6  133 1    
    15    7    8 1    
    16    8    9 1    
    17    8  134 1    
    18    8  135 1    
    19    9   10 ar   
    20    9   14 ar   
    21   10   11 ar   
    22   10  136 1    
    23   11   12 ar   
    24   11  126 1    
    25   12   13 ar   
    26   12  137 1    
    27   13   14 ar   
    28   13   15 1    
    29   14  138 1    
    30   15   16 1    
    31   15  139 1    
    32   15  140 1    
    33   16   17 1    
    34   17   18 1    
    35   17  141 1    
    36   17  142 1    
    37   18   19 1    
    38   18   67 1    
    39   18  143 1    
    40   19   20 am   BACKBONE|DICT|INTERRES
    41   19  144 1    
    42   20   21 2    
    43   20   22 1    
    44   22   23 1    
    45   22   24 1    
    46   22  145 1    
    47   23  146 1    
    48   23  147 1    
    49   23  148 1    
    50   24   25 am   BACKBONE|DICT|INTERRES
    51   24  149 1    
    52   25   26 2    
    53   25   27 1    
    54   27   28 1    
    55   27   29 1    
    56   27  150 1    
    57   28  151 1    
    58   28  152 1    
    59   28  153 1    
    60   29   30 am   BACKBONE|DICT|INTERRES
    61   29  154 1    
    62   30   31 2    
    63   30   32 1    
    64   32   33 1    
    65   32   34 1    
    66   32  155 1    
    67   33  156 1    
    68   33  157 1    
    69   33  158 1    
    70   34   35 am   BACKBONE|DICT|INTERRES
    71   34  159 1    
    72   35   36 2    
    73   35   37 1    
    74   37   38 1    
    75   37   39 1    
    76   37  160 1    
    77   38  161 1    
    78   38  162 1    
    79   38  163 1    
    80   39   40 am   BACKBONE|DICT|INTERRES
    81   39  164 1    
    82   40   41 2    
    83   40   42 1    
    84   42   43 1    
    85   42   44 1    
    86   42  165 1    
    87   43  166 1    
    88   43  167 1    
    89   43  168 1    
    90   44   45 am   BACKBONE|DICT|INTERRES
    91   44  169 1    
    92   45   46 2    
    93   45   47 1    
    94   47   48 1    
    95   47   49 1    
    96   47  170 1    
    97   48  171 1    
    98   48  172 1    
    99   48  173 1    
   100   49   50 am   BACKBONE|DICT|INTERRES
   101   49  174 1    
   102   50   51 2    
   103   50   52 1    
   104   52   53 1    
   105   52   54 1    
   106   52  175 1    
   107   53  176 1    
   108   53  177 1    
   109   53  178 1    
   110   54   55 am   BACKBONE|DICT|INTERRES
   111   54  179 1    
   112   55   56 2    
   113   55   57 1    
   114   57   58 1    
   115   57   59 1    
   116   57  180 1    
   117   58  181 1    
   118   58  182 1    
   119   58  183 1    
   120   59   60 am   BACKBONE|DICT|INTERRES
   121   59  184 1    
   122   60   61 2    
   123   60   62 1    
   124   62   63 1    
   125   62   64 1    
   126   62  185 1    
   127   63  186 1    
   128   63  187 1    
   129   63  188 1    
   130   64   65 am   BACKBONE|DICT|INTERRES
   131   64  189 1    
   132   65   66 2    
   133   67   68 2    
   134   67   69 am   BACKBONE|DICT|INTERRES
   135   69   70 1    
   136   69  190 1    
   137   70   71 1    
   138   70   72 1    
   139   70  191 1    
   140   71  192 1    
   141   71  193 1    
   142   71  194 1    
   143   72   73 2    
   144   72   74 am   BACKBONE|DICT|INTERRES
   145   74   75 1    
   146   74  195 1    
   147   75   76 1    
   148   75   77 1    
   149   75  196 1    
   150   76  197 1    
   151   76  198 1    
   152   76  199 1    
   153   77   78 2    
   154   77   79 am   BACKBONE|DICT|INTERRES
   155   79   80 1    
   156   79  200 1    
   157   80   81 1    
   158   80   82 1    
   159   80  201 1    
   160   81  202 1    
   161   81  203 1    
   162   81  204 1    
   163   82   83 2    
   164   82   84 am   BACKBONE|DICT|INTERRES
   165   84   85 1    
   166   84  205 1    
   167   85   86 1    
   168   85   87 1    
   169   85  206 1    
   170   86  207 1    
   171   86  208 1    
   172   86  209 1    
   173   87   88 2    
   174   87   89 am   BACKBONE|DICT|INTERRES
   175   89   90 1    
   176   89  210 1    
   177   90   91 1    
   178   90   92 1    
   179   90  211 1    
   180   91  212 1    
   181   91  213 1    
   182   91  214 1    
   183   92   93 2    
   184   92   94 am   BACKBONE|DICT|INTERRES
   185   94   95 1    
   186   94  215 1    
   187   95   96 1    
   188   95   97 1    
   189   95  216 1    
   190   96  217 1    
   191   96  218 1    
   192   96  219 1    
   193   97   98 2    
   194   97   99 am   BACKBONE|DICT|INTERRES
   195   99  100 1    
   196   99  220 1    
   197  100  101 1    
   198  100  102 1    
   199  100  221 1    
   200  101  222 1    
   201  101  223 1    
   202  101  224 1    
   203  102  103 2    
   204  102  104 am   BACKBONE|DICT|INTERRES
   205  104  105 1    
   206  104  225 1    
   207  105  106 1    
   208  105  107 1    
   209  105  226 1    
   210  106  227 1    
   211  106  228 1    
   212  106  229 1    
   213  107  108 2    
   214  107  109 am   BACKBONE|DICT|INTERRES
   215  109  110 1    
   216  109  230 1    
   217  110  111 1    
   218  110  112 1    
   219  110  231 1    
   220  111  232 1    
   221  111  233 1    
   222  111  234 1    
   223  112  113 2    
   224  112  114 am   BACKBONE|DICT|INTERRES
   225  114  115 1    
   226  114  235 1    
   227  115  116 1    
   228  115  117 1    
   229  115  236 1    
   230  116  237 1    
   231  116  238 1    
   232  116  239 1    
   233  117  118 2    
   234  117  119 am   BACKBONE|DICT|INTERRES
   235  119  120 1    
   236  119  240 1    
   237  120  121 1    
   238  120  124 1    
   239  120  241 1    
   240  121  122 am   BACKBONE|DICT|INTERRES
   241  121  123 2    
   242  122  242 1    
   243  122  243 1    
   244  124  125 1    
   245  124  244 1    
   246  124  245 1    
   247  125  126 1    
   248  126  246 1    
   249  126  247 1    
@<TRIPOS>SUBSTRUCTURE
     1 UNK         1 GROUP             0       ****    0 ROOT    
