@<TRIPOS>MOLECULE
3R540
247   249    1
SMALL
USER_CHARGES


@<TRIPOS>ATOM
      1 CA         -3.9565  -12.1319  -46.1599 C.3       0 UNK        -0.1800 
      2 C          -2.6547  -12.1467  -46.9483 C.2       0 UNK         0.5000 
      3 O          -2.1904  -11.0939  -47.3860 O.2       0 UNK        -0.5000 
      4 N          -2.0629  -13.3348  -47.1269 N.am      1 UNK        -0.5000 
      5 CA         -0.8014  -13.5476  -47.8535 C.3       1 UNK         0.1400 
      6 C6         -0.6439  -15.0161  -48.3210 C.3       23 UNK        -0.0398 
      7 S7         -1.9684  -15.4998  -49.4826 S.3       23 UNK        -0.2404 
      8 C8         -1.1477  -15.2696  -51.0936 C.3       23 UNK        -0.0205 
      9 C9         -0.6921  -16.5943  -51.6874 C.ar      23 UNK        -0.0193 
     10 C10        -1.3784  -17.1498  -52.7719 C.ar      23 UNK        -0.1150 
     11 C11        -0.9746  -18.3708  -53.3185 C.ar      23 UNK        -0.0193 
     12 C12         0.1226  -19.0396  -52.7691 C.ar      23 UNK        -0.1150 
     13 C13         0.8126  -18.4992  -51.6818 C.ar      23 UNK        -0.0193 
     14 C14         0.4087  -17.2702  -51.1527 C.ar      23 UNK        -0.1150 
     15 C15         1.9730  -19.2608  -51.0583 C.3       23 UNK        -0.0205 
     16 S16         1.4168  -20.7676  -50.1974 S.3       23 UNK        -0.2404 
     17 C17         0.2216  -20.0769  -49.0045 C.3       23 UNK        -0.0398 
     18 CA         -0.3192  -21.1514  -48.0337 C.3       11 UNK         0.1400 
     19 N           0.7442  -21.7322  -47.1988 N.am      11 UNK        -0.5000 
     20 C           0.6240  -22.8238  -46.4307 C.2       10 UNK         0.5000 
     21 O          -0.4352  -23.4317  -46.2858 O.2       10 UNK        -0.5000 
     22 CA          1.8701  -23.3032  -45.6589 C.3       10 UNK         0.1400 
     23 CB          2.3715  -24.6320  -46.2446 C.3       10 UNK        -0.1800 
     24 N           2.9835  -22.3473  -45.6599 N.am      10 UNK        -0.5000 
     25 C           3.1333  -21.2419  -44.9143 C.2       9 UNK         0.5000 
     26 O           4.1550  -20.5599  -44.9973 O.2       9 UNK        -0.5000 
     27 CA          2.0329  -20.8253  -43.9064 C.3       9 UNK         0.1400 
     28 CB          2.3465  -21.3862  -42.5111 C.3       9 UNK        -0.1800 
     29 N           1.8762  -19.3734  -43.8071 N.am      9 UNK        -0.5000 
     30 C           1.5951  -18.5417  -44.8201 C.2       8 UNK         0.5000 
     31 O           1.3667  -18.9244  -45.9666 O.2       8 UNK        -0.5000 
     32 CA          1.5316  -17.0336  -44.5109 C.3       8 UNK         0.1400 
     33 CB          0.0725  -16.5535  -44.4505 C.3       8 UNK        -0.1800 
     34 N           2.2105  -16.6620  -43.2684 N.am      8 UNK        -0.5000 
     35 C           3.5404  -16.5929  -43.1122 C.2       7 UNK         0.5000 
     36 O           4.3486  -16.8158  -44.0134 O.2       7 UNK        -0.5000 
     37 CA          4.0536  -16.2216  -41.7093 C.3       7 UNK         0.1400 
     38 CB          4.1499  -14.6970  -41.5396 C.3       7 UNK        -0.1800 
     39 N           3.1967  -16.7717  -40.6595 N.am      7 UNK        -0.5000 
     40 C           3.2911  -18.0221  -40.1863 C.2       6 UNK         0.5000 
     41 O           4.1571  -18.8224  -40.5390 O.2       6 UNK        -0.5000 
     42 CA          2.2347  -18.4602  -39.1528 C.3       6 UNK         0.1400 
     43 CB          2.7418  -18.2054  -37.7253 C.3       6 UNK        -0.1800 
     44 N           0.9446  -17.7903  -39.3274 N.am      6 UNK        -0.5000 
     45 C           0.1221  -17.9828  -40.3680 C.2       5 UNK         0.5000 
     46 O           0.3508  -18.7732  -41.2809 O.2       5 UNK        -0.5000 
     47 CA         -1.1417  -17.1042  -40.4235 C.3       5 UNK         0.1400 
     48 CB         -2.3034  -17.7858  -39.6862 C.3       5 UNK        -0.1800 
     49 N          -0.9390  -15.7576  -39.8785 N.am      5 UNK        -0.5000 
     50 C          -0.0738  -14.8590  -40.3663 C.2       4 UNK         0.5000 
     51 O           0.6734  -15.0750  -41.3247 O.2       4 UNK        -0.5000 
     52 CA          0.0145  -13.5229  -39.6216 C.3       4 UNK         0.1400 
     53 CB          0.9697  -13.6350  -38.4207 C.3       4 UNK        -0.1800 
     54 N           0.5038  -12.5013  -40.5394 N.am      4 UNK        -0.5000 
     55 C           0.1909  -11.2016  -40.4902 C.2       3 UNK         0.5000 
     56 O          -0.5324  -10.7105  -39.6220 O.2       3 UNK        -0.5000 
     57 CA          0.7833  -10.2818  -41.5794 C.3       3 UNK         0.1400 
     58 CB          1.9230   -9.4312  -40.9961 C.3       3 UNK        -0.1800 
     59 N           1.2845  -10.9833  -42.7654 N.am      3 UNK        -0.5000 
     60 C           0.5210  -11.6107  -43.6683 C.2       2 UNK         0.5000 
     61 O          -0.7083  -11.6946  -43.5883 O.2       2 UNK        -0.5000 
     62 CA          1.2625  -12.2600  -44.8479 C.3       2 UNK         0.1400 
     63 CB          2.2475  -13.3407  -44.3696 C.3       2 UNK        -0.1800 
     64 N           0.2740  -12.8380  -45.7497 N.am      2 UNK        -0.5000 
     65 C           0.4383  -13.0822  -47.0545 C.2       1 UNK         0.5000 
     66 O           1.5121  -12.9383  -47.6406 O.2       1 UNK        -0.5000 
     67 C          -1.5317  -20.6144  -47.2366 C.2       11 UNK         0.5000 
     68 O          -2.5852  -20.3832  -47.8269 O.2       11 UNK        -0.5000 
     69 N          -1.3943  -20.4649  -45.9129 N.am      12 UNK        -0.5000 
     70 CA         -2.4916  -20.1926  -44.9844 C.3       12 UNK         0.1400 
     71 CB         -1.9089  -19.9506  -43.5835 C.3       12 UNK        -0.1800 
     72 C          -3.5449  -21.3209  -44.9327 C.2       12 UNK         0.5000 
     73 O          -4.7090  -21.0427  -44.6416 O.2       12 UNK        -0.5000 
     74 N          -3.1298  -22.5665  -45.2065 N.am      13 UNK        -0.5000 
     75 CA         -4.0017  -23.7369  -45.2244 C.3       13 UNK         0.1400 
     76 CB         -3.1562  -25.0020  -45.0133 C.3       13 UNK        -0.1800 
     77 C          -4.7828  -23.8296  -46.5456 C.2       13 UNK         0.5000 
     78 O          -4.2010  -23.6501  -47.6194 O.2       13 UNK        -0.5000 
     79 N          -6.0816  -24.1445  -46.4328 N.am      14 UNK        -0.5000 
     80 CA         -7.0190  -24.4710  -47.5166 C.3       14 UNK         0.1400 
     81 CB         -6.6782  -25.8611  -48.0944 C.3       14 UNK        -0.1800 
     82 C          -7.1376  -23.3923  -48.6157 C.2       14 UNK         0.5000 
     83 O          -7.3658  -23.7315  -49.7776 O.2       14 UNK        -0.5000 
     84 N          -6.9511  -22.1171  -48.2396 N.am      15 UNK        -0.5000 
     85 CA         -6.9047  -20.9433  -49.1220 C.3       15 UNK         0.1400 
     86 CB         -8.3074  -20.6330  -49.6858 C.3       15 UNK        -0.1800 
     87 C          -5.8324  -21.0882  -50.2239 C.2       15 UNK         0.5000 
     88 O          -6.1246  -20.9067  -51.4072 O.2       15 UNK        -0.5000 
     89 N          -4.6193  -21.4758  -49.8054 N.am      16 UNK        -0.5000 
     90 CA         -3.4520  -21.7795  -50.6376 C.3       16 UNK         0.1400 
     91 CB         -2.9458  -20.5087  -51.3467 C.3       16 UNK        -0.1800 
     92 C          -3.7113  -22.9613  -51.5917 C.2       16 UNK         0.5000 
     93 O          -3.3440  -22.9057  -52.7675 O.2       16 UNK        -0.5000 
     94 N          -4.3764  -23.9959  -51.0536 N.am      17 UNK        -0.5000 
     95 CA         -4.8785  -25.1872  -51.7462 C.3       17 UNK         0.1400 
     96 CB         -3.7053  -26.0705  -52.2212 C.3       17 UNK        -0.1800 
     97 C          -5.8585  -24.8190  -52.8793 C.2       17 UNK         0.5000 
     98 O          -5.6802  -25.2527  -54.0164 O.2       17 UNK        -0.5000 
     99 N          -6.8459  -23.9709  -52.5560 N.am      18 UNK        -0.5000 
    100 CA        -7.7939  -23.3294  -53.4767 C.3       18 UNK         0.1400 
    101 CB        -8.8002  -24.3609  -54.0268 C.3       18 UNK        -0.1800 
    102 C         -7.0748  -22.5279  -54.5859 C.2       18 UNK         0.5000 
    103 O         -7.4229  -22.6311  -55.7634 O.2       18 UNK        -0.5000 
    104 N         -6.0482  -21.7757  -54.1681 N.am      19 UNK        -0.5000 
    105 CA        -5.1059  -20.9850  -54.9631 C.3       19 UNK         0.1400 
    106 CB        -5.8298  -19.8394  -55.6984 C.3       19 UNK        -0.1800 
    107 C         -4.1843  -21.7958  -55.9025 C.2       19 UNK         0.5000 
    108 O         -3.4762  -21.1888  -56.7070 O.2       19 UNK        -0.5000 
    109 N         -4.1597  -23.1327  -55.7888 N.am      20 UNK        -0.5000 
    110 CA        -3.3153  -24.0032  -56.6115 C.3       20 UNK         0.1400 
    111 CB        -3.7780  -25.4611  -56.4876 C.3       20 UNK        -0.1800 
    112 C         -1.8158  -23.8916  -56.2822 C.2       20 UNK         0.5000 
    113 O         -0.9936  -24.1302  -57.1684 O.2       20 UNK        -0.5000 
    114 N         -1.4748  -23.5019  -55.0431 N.am      21 UNK        -0.5000 
    115 CA        -0.0949  -23.3658  -54.5582 C.3       21 UNK         0.1400 
    116 CB        -0.1120  -23.1330  -53.0401 C.3       21 UNK        -0.1800 
    117 C          0.7356  -22.2730  -55.2673 C.2       21 UNK         0.5000 
    118 O          1.9604  -22.2749  -55.1394 O.2       21 UNK        -0.5000 
    119 N          0.0683  -21.3788  -56.0049 N.am      22 UNK        -0.5000 
    120 CA         0.6673  -20.3438  -56.8579 C.3       22 UNK         0.1400 
    121 C          0.2522  -20.4767  -58.3534 C.2       22 UNK         0.5000 
    122 N         -0.3200  -21.5954  -58.7872 N.am      22 UNK        -0.7600 
    123 O          0.4810  -19.5678  -59.1471 O.2       22 UNK        -0.5000 
    124 C124        0.4708  -18.9209  -56.2679 C.3       23 UNK        -0.0398 
    125 S125       -1.2669  -18.3701  -56.1019 S.3       23 UNK        -0.2404 
    126 C126       -1.7592  -18.9956  -54.4621 C.3       23 UNK        -0.0205 
    127 H127       -3.8400  -11.5314  -45.2576 H         1 UNK         0.0600 
    128 H128       -4.7550  -11.6966  -46.7609 H         1 UNK         0.0600 
    129 H129       -4.2627  -13.1354  -45.8633 H         1 UNK         0.0600 
    130 H130       -2.5041  -14.1678  -46.7643 H         1 UNK         0.3000 
    131 H131       -0.8279  -12.9234  -48.7497 H         1 UNK         0.0600 
    132 H132        0.3255  -15.1716  -48.7965 H         1 UNK         0.0800 
    133 H133       -0.6704  -15.6949  -47.4677 H         1 UNK         0.0800 
    134 H134       -1.8509  -14.7778  -51.7674 H         1 UNK         0.0800 
    135 H135       -0.2987  -14.5908  -51.0034 H         1 UNK         0.0800 
    136 H136       -2.2353  -16.6380  -53.1870 H         1 UNK         0.1150 
    137 H137        0.4296  -19.9941  -53.1719 H         1 UNK         0.1150 
    138 H138        0.9378  -16.8507  -50.3096 H         1 UNK         0.1150 
    139 H139        2.6821  -19.5391  -51.8391 H         1 UNK         0.0800 
    140 H140        2.5200  -18.6295  -50.3563 H         1 UNK         0.0800 
    141 H141       -0.5966  -19.6351  -49.5752 H         1 UNK         0.0800 
    142 H142        0.6913  -19.2574  -48.4595 H         1 UNK         0.0800 
    143 H143       -0.7111  -21.9699  -48.6402 H         1 UNK         0.0600 
    144 H144        1.6401  -21.2671  -47.2451 H         1 UNK         0.3000 
    145 H145        1.5651  -23.4933  -44.6285 H         1 UNK         0.0600 
    146 H146        2.6969  -24.5188  -47.2796 H         1 UNK         0.0600 
    147 H147        3.2099  -25.0258  -45.6697 H         1 UNK         0.0600 
    148 H148        1.5865  -25.3895  -46.2289 H         1 UNK         0.0600 
    149 H149        3.7307  -22.5750  -46.2993 H         1 UNK         0.3000 
    150 H150        1.0649  -21.2122  -44.2172 H         1 UNK         0.0600 
    151 H151        2.4549  -22.4710  -42.5362 H         1 UNK         0.0600 
    152 H152        1.5493  -21.1578  -41.8036 H         1 UNK         0.0600 
    153 H153        3.2750  -20.9739  -42.1143 H         1 UNK         0.0600 
    154 H154        1.9798  -18.9731  -42.8847 H         1 UNK         0.3000 
    155 H155        2.0202  -16.5175  -45.3399 H         1 UNK         0.0600 
    156 H156       -0.4904  -16.8832  -45.3244 H         1 UNK         0.0600 
    157 H157        0.0126  -15.4665  -44.4169 H         1 UNK         0.0600 
    158 H158       -0.4368  -16.9378  -43.5689 H         1 UNK         0.0600 
    159 H159        1.6175  -16.3878  -42.4925 H         1 UNK         0.3000 
    160 H160        5.0603  -16.6321  -41.6044 H         1 UNK         0.0600 
    161 H161        3.1737  -14.2170  -41.5978 H         1 UNK         0.0600 
    162 H162        4.7796  -14.2576  -42.3141 H         1 UNK         0.0600 
    163 H163        4.5905  -14.4371  -40.5770 H         1 UNK         0.0600 
    164 H164        2.4283  -16.1915  -40.3539 H         1 UNK         0.3000 
    165 H165        2.0791  -19.5343  -39.2754 H         1 UNK         0.0600 
    166 H166        2.0368  -18.5806  -36.9833 H         1 UNK         0.0600 
    167 H167        3.6929  -18.7110  -37.5528 H         1 UNK         0.0600 
    168 H168        2.8959  -17.1422  -37.5362 H         1 UNK         0.0600 
    169 H169        0.6771  -17.1226  -38.6197 H         1 UNK         0.3000 
    170 H170       -1.4252  -16.9989  -41.4717 H         1 UNK         0.0600 
    171 H171       -2.0966  -17.8956  -38.6209 H         1 UNK         0.0600 
    172 H172       -3.2269  -17.2165  -39.7930 H         1 UNK         0.0600 
    173 H173       -2.4896  -18.7823  -40.0895 H         1 UNK         0.0600 
    174 H174       -1.5063  -15.5079  -39.0809 H         1 UNK         0.3000 
    175 H175       -0.9863  -13.2587  -39.2733 H         1 UNK         0.0600 
    176 H176        0.6313  -14.3960  -37.7166 H         1 UNK         0.0600 
    177 H177        1.9800  -13.9014  -38.7348 H         1 UNK         0.0600 
    178 H178        1.0281  -12.6933  -37.8747 H         1 UNK         0.0600 
    179 H179        1.0511  -12.8546  -41.3126 H         1 UNK         0.3000 
    180 H180       -0.0143   -9.6080  -41.8993 H         1 UNK         0.0600 
    181 H181        2.2961   -8.7145  -41.7280 H         1 UNK         0.0600 
    182 H182        2.7608  -10.0500  -40.6723 H         1 UNK         0.0600 
    183 H183        1.5833   -8.8606  -40.1306 H         1 UNK         0.0600 
    184 H184        2.2848  -10.9630  -42.9021 H         1 UNK         0.3000 
    185 H185        1.8077  -11.4755  -45.3768 H         1 UNK         0.0600 
    186 H186        3.0916  -12.8971  -43.8416 H         1 UNK         0.0600 
    187 H187        1.7622  -14.0347  -43.6858 H         1 UNK         0.0600 
    188 H188        2.6568  -13.9155  -45.2003 H         1 UNK         0.0600 
    189 H189       -0.6532  -12.9073  -45.3482 H         1 UNK         0.3000 
    190 H190       -0.4792  -20.6101  -45.5167 H         1 UNK         0.3000 
    191 H191       -2.9938  -19.2807  -45.3138 H         1 UNK         0.0600 
    192 H192       -1.3918  -20.8318  -43.2019 H         1 UNK         0.0600 
    193 H193       -2.6939  -19.6963  -42.8702 H         1 UNK         0.0600 
    194 H194       -1.1988  -19.1264  -43.5875 H         1 UNK         0.0600 
    195 H195       -2.1751  -22.7193  -45.5142 H         1 UNK         0.3000 
    196 H196       -4.7060  -23.6611  -44.3930 H         1 UNK         0.0600 
    197 H197       -3.7896  -25.8879  -44.9528 H         1 UNK         0.0600 
    198 H198       -2.5841  -24.9462  -44.0870 H         1 UNK         0.0600 
    199 H199       -2.4536  -25.1591  -45.8326 H         1 UNK         0.0600 
    200 H200       -6.4629  -24.2393  -45.5014 H         1 UNK         0.3000 
    201 H201       -8.0074  -24.5375  -47.0599 H         1 UNK         0.0600 
    202 H202       -6.6646  -26.6189  -47.3111 H         1 UNK         0.0600 
    203 H203       -5.7017  -25.8672  -48.5793 H         1 UNK         0.0600 
    204 H204       -7.4159  -26.1775  -48.8329 H         1 UNK         0.0600 
    205 H205       -6.7505  -21.9433  -47.2647 H         1 UNK         0.3000 
    206 H206       -6.5998  -20.0973  -48.5044 H         1 UNK         0.0600 
    207 H207       -8.6652  -21.4234  -50.3464 H         1 UNK         0.0600 
    208 H208       -9.0358  -20.5110  -48.8844 H         1 UNK         0.0600 
    209 H209       -8.2995  -19.7065  -50.2610 H         1 UNK         0.0600 
    210 H210       -4.4794  -21.6323  -48.8146 H         1 UNK         0.3000 
    211 H211       -2.6692  -22.1140  -49.9579 H         1 UNK         0.0600 
    212 H212       -3.6500  -20.1467  -52.0937 H         1 UNK         0.0600 
    213 H213       -1.9999  -20.6973  -51.8489 H         1 UNK         0.0600 
    214 H214       -2.7766  -19.7005  -50.6355 H         1 UNK         0.0600 
    215 H215       -4.6347  -23.9173  -50.0785 H         1 UNK         0.3000 
    216 H216       -5.4525  -25.7591  -51.0165 H         1 UNK         0.0600 
    217 H217       -4.0699  -27.0010  -52.6578 H         1 UNK         0.0600 
    218 H218       -3.0518  -26.3358  -51.3904 H         1 UNK         0.0600 
    219 H219       -3.0984  -25.5716  -52.9773 H         1 UNK         0.0600 
    220 H220       -6.9374  -23.7029  -51.5776 H         1 UNK         0.3000 
    221 H221       -8.3520  -22.6027  -52.8845 H         1 UNK         0.0600 
    222 H222       -8.3158  -25.1002  -54.6653 H         1 UNK         0.0600 
    223 H223       -9.2999  -24.8927  -53.2172 H         1 UNK         0.0600 
    224 H224       -9.5738  -23.8726  -54.6203 H         1 UNK         0.0600 
    225 H225       -5.8912  -21.7311  -53.1645 H         1 UNK         0.3000 
    226 H226       -4.4388  -20.5286  -54.2340 H         1 UNK         0.0600 
    227 H227       -6.4750  -20.2125  -56.4940 H         1 UNK         0.0600 
    228 H228       -6.4436  -19.2564  -55.0118 H         1 UNK         0.0600 
    229 H229       -5.1151  -19.1526  -56.1537 H         1 UNK         0.0600 
    230 H230       -4.7380  -23.5836  -55.0895 H         1 UNK         0.3000 
    231 H231       -3.4447  -23.7023  -57.6534 H         1 UNK         0.0600 
    232 H232       -3.2412  -26.0997  -57.1901 H         1 UNK         0.0600 
    233 H233       -4.8417  -25.5605  -56.7047 H         1 UNK         0.0600 
    234 H234       -3.5972  -25.8564  -55.4877 H         1 UNK         0.0600 
    235 H235       -2.2123  -23.3104  -54.3696 H         1 UNK         0.3000 
    236 H236        0.4098  -24.3158  -54.7448 H         1 UNK         0.0600 
    237 H237       -0.6030  -22.1951  -52.7885 H         1 UNK         0.0600 
    238 H238       -0.6347  -23.9367  -52.5212 H         1 UNK         0.0600 
    239 H239        0.9002  -23.0893  -52.6361 H         1 UNK         0.0600 
    240 H240       -0.9372  -21.4591  -56.0720 H         1 UNK         0.3000 
    241 H241        1.7457  -20.5067  -56.8904 H         1 UNK         0.0600 
    242 H242       -0.5747  -21.6704  -59.7593 H         1 UNK         0.3800 
    243 H243       -0.4681  -22.3853  -58.1706 H         1 UNK         0.3800 
    244 H244        0.9857  -18.1899  -56.8931 H         1 UNK         0.0800 
    245 H245        0.9708  -18.8547  -55.3037 H         1 UNK         0.0800 
    246 H246       -2.8186  -18.7779  -54.3240 H         1 UNK         0.0800 
    247 H247       -1.6761  -20.0817  -54.4325 H         1 UNK         0.0800 
@<TRIPOS>BOND
     1    1    2 1    
     2    1  127 1    
     3    1  128 1    
     4    1  129 1    
     5    2    3 2    
     6    2    4 am   BACKBONE|DICT|INTERRES
     7    4    5 1    
     8    4  130 1    
     9    5    6 1    
    10    5   65 1    
    11    5  131 1    
    12    6    7 1    
    13    6  132 1    
    14    6  133 1    
    15    7    8 1    
    16    8    9 1    
    17    8  134 1    
    18    8  135 1    
    19    9   10 ar   
    20    9   14 ar   
    21   10   11 ar   
    22   10  136 1    
    23   11   12 ar   
    24   11  126 1    
    25   12   13 ar   
    26   12  137 1    
    27   13   14 ar   
    28   13   15 1    
    29   14  138 1    
    30   15   16 1    
    31   15  139 1    
    32   15  140 1    
    33   16   17 1    
    34   17   18 1    
    35   17  141 1    
    36   17  142 1    
    37   18   19 1    
    38   18   67 1    
    39   18  143 1    
    40   19   20 am   BACKBONE|DICT|INTERRES
    41   19  144 1    
    42   20   21 2    
    43   20   22 1    
    44   22   23 1    
    45   22   24 1    
    46   22  145 1    
    47   23  146 1    
    48   23  147 1    
    49   23  148 1    
    50   24   25 am   BACKBONE|DICT|INTERRES
    51   24  149 1    
    52   25   26 2    
    53   25   27 1    
    54   27   28 1    
    55   27   29 1    
    56   27  150 1    
    57   28  151 1    
    58   28  152 1    
    59   28  153 1    
    60   29   30 am   BACKBONE|DICT|INTERRES
    61   29  154 1    
    62   30   31 2    
    63   30   32 1    
    64   32   33 1    
    65   32   34 1    
    66   32  155 1    
    67   33  156 1    
    68   33  157 1    
    69   33  158 1    
    70   34   35 am   BACKBONE|DICT|INTERRES
    71   34  159 1    
    72   35   36 2    
    73   35   37 1    
    74   37   38 1    
    75   37   39 1    
    76   37  160 1    
    77   38  161 1    
    78   38  162 1    
    79   38  163 1    
    80   39   40 am   BACKBONE|DICT|INTERRES
    81   39  164 1    
    82   40   41 2    
    83   40   42 1    
    84   42   43 1    
    85   42   44 1    
    86   42  165 1    
    87   43  166 1    
    88   43  167 1    
    89   43  168 1    
    90   44   45 am   BACKBONE|DICT|INTERRES
    91   44  169 1    
    92   45   46 2    
    93   45   47 1    
    94   47   48 1    
    95   47   49 1    
    96   47  170 1    
    97   48  171 1    
    98   48  172 1    
    99   48  173 1    
   100   49   50 am   BACKBONE|DICT|INTERRES
   101   49  174 1    
   102   50   51 2    
   103   50   52 1    
   104   52   53 1    
   105   52   54 1    
   106   52  175 1    
   107   53  176 1    
   108   53  177 1    
   109   53  178 1    
   110   54   55 am   BACKBONE|DICT|INTERRES
   111   54  179 1    
   112   55   56 2    
   113   55   57 1    
   114   57   58 1    
   115   57   59 1    
   116   57  180 1    
   117   58  181 1    
   118   58  182 1    
   119   58  183 1    
   120   59   60 am   BACKBONE|DICT|INTERRES
   121   59  184 1    
   122   60   61 2    
   123   60   62 1    
   124   62   63 1    
   125   62   64 1    
   126   62  185 1    
   127   63  186 1    
   128   63  187 1    
   129   63  188 1    
   130   64   65 am   BACKBONE|DICT|INTERRES
   131   64  189 1    
   132   65   66 2    
   133   67   68 2    
   134   67   69 am   BACKBONE|DICT|INTERRES
   135   69   70 1    
   136   69  190 1    
   137   70   71 1    
   138   70   72 1    
   139   70  191 1    
   140   71  192 1    
   141   71  193 1    
   142   71  194 1    
   143   72   73 2    
   144   72   74 am   BACKBONE|DICT|INTERRES
   145   74   75 1    
   146   74  195 1    
   147   75   76 1    
   148   75   77 1    
   149   75  196 1    
   150   76  197 1    
   151   76  198 1    
   152   76  199 1    
   153   77   78 2    
   154   77   79 am   BACKBONE|DICT|INTERRES
   155   79   80 1    
   156   79  200 1    
   157   80   81 1    
   158   80   82 1    
   159   80  201 1    
   160   81  202 1    
   161   81  203 1    
   162   81  204 1    
   163   82   83 2    
   164   82   84 am   BACKBONE|DICT|INTERRES
   165   84   85 1    
   166   84  205 1    
   167   85   86 1    
   168   85   87 1    
   169   85  206 1    
   170   86  207 1    
   171   86  208 1    
   172   86  209 1    
   173   87   88 2    
   174   87   89 am   BACKBONE|DICT|INTERRES
   175   89   90 1    
   176   89  210 1    
   177   90   91 1    
   178   90   92 1    
   179   90  211 1    
   180   91  212 1    
   181   91  213 1    
   182   91  214 1    
   183   92   93 2    
   184   92   94 am   BACKBONE|DICT|INTERRES
   185   94   95 1    
   186   94  215 1    
   187   95   96 1    
   188   95   97 1    
   189   95  216 1    
   190   96  217 1    
   191   96  218 1    
   192   96  219 1    
   193   97   98 2    
   194   97   99 am   BACKBONE|DICT|INTERRES
   195   99  100 1    
   196   99  220 1    
   197  100  101 1    
   198  100  102 1    
   199  100  221 1    
   200  101  222 1    
   201  101  223 1    
   202  101  224 1    
   203  102  103 2    
   204  102  104 am   BACKBONE|DICT|INTERRES
   205  104  105 1    
   206  104  225 1    
   207  105  106 1    
   208  105  107 1    
   209  105  226 1    
   210  106  227 1    
   211  106  228 1    
   212  106  229 1    
   213  107  108 2    
   214  107  109 am   BACKBONE|DICT|INTERRES
   215  109  110 1    
   216  109  230 1    
   217  110  111 1    
   218  110  112 1    
   219  110  231 1    
   220  111  232 1    
   221  111  233 1    
   222  111  234 1    
   223  112  113 2    
   224  112  114 am   BACKBONE|DICT|INTERRES
   225  114  115 1    
   226  114  235 1    
   227  115  116 1    
   228  115  117 1    
   229  115  236 1    
   230  116  237 1    
   231  116  238 1    
   232  116  239 1    
   233  117  118 2    
   234  117  119 am   BACKBONE|DICT|INTERRES
   235  119  120 1    
   236  119  240 1    
   237  120  121 1    
   238  120  124 1    
   239  120  241 1    
   240  121  122 am   BACKBONE|DICT|INTERRES
   241  121  123 2    
   242  122  242 1    
   243  122  243 1    
   244  124  125 1    
   245  124  244 1    
   246  124  245 1    
   247  125  126 1    
   248  126  246 1    
   249  126  247 1    
@<TRIPOS>SUBSTRUCTURE
     1 UNK         1 GROUP             0       ****    0 ROOT    
