@<TRIPOS>MOLECULE
3R540
247   249    1
SMALL
USER_CHARGES


@<TRIPOS>ATOM
      1 CA         -4.4405  -17.9413  -44.1902 C.3       0 UNK        -0.1800 
      2 C          -4.1691  -16.5158  -44.6516 C.2       0 UNK         0.5000 
      3 O          -4.9578  -15.6181  -44.3533 O.2       0 UNK        -0.5000 
      4 N          -3.0626  -16.3107  -45.3778 N.am      1 UNK        -0.5000 
      5 CA         -2.5821  -15.0185  -45.8788 C.3       1 UNK         0.1400 
      6 C6         -1.3081  -15.1599  -46.7530 C.3       23 UNK        -0.0398 
      7 S7         -1.4650  -16.3992  -48.0858 S.3       23 UNK        -0.2404 
      8 C8          0.1916  -17.1725  -48.0417 C.3       23 UNK        -0.0205 
      9 C9          0.3763  -18.3367  -49.0159 C.ar      23 UNK        -0.0193 
     10 C10        -0.2576  -18.3548  -50.2644 C.ar      23 UNK        -0.1150 
     11 C11        -0.0489  -19.3998  -51.1685 C.ar      23 UNK        -0.0193 
     12 C12         0.8324  -20.4300  -50.8168 C.ar      23 UNK        -0.1150 
     13 C13         1.4882  -20.4240  -49.5824 C.ar      23 UNK        -0.0193 
     14 C14         1.2475  -19.3808  -48.6827 C.ar      23 UNK        -0.1150 
     15 C15         2.5069  -21.5116  -49.2631 C.3       23 UNK        -0.0205 
     16 S16         1.7536  -22.9757  -48.4833 S.3       23 UNK        -0.2404 
     17 C17         1.7883  -22.5188  -46.7190 C.3       23 UNK        -0.0398 
     18 CA          1.8813  -23.7404  -45.7696 C.3       11 UNK         0.1400 
     19 N           2.3867  -23.3458  -44.4519 N.am      11 UNK        -0.5000 
     20 C           2.7850  -24.1807  -43.4823 C.2       10 UNK         0.5000 
     21 O           2.8236  -25.4054  -43.6039 O.2       10 UNK        -0.5000 
     22 CA          3.1984  -23.5361  -42.1447 C.3       10 UNK         0.1400 
     23 CB          4.6542  -23.0477  -42.1960 C.3       10 UNK        -0.1800 
     24 N           2.3234  -22.4254  -41.7653 N.am      10 UNK        -0.5000 
     25 C           1.0532  -22.5698  -41.3605 C.2       9 UNK         0.5000 
     26 O           0.5054  -23.6608  -41.2007 O.2       9 UNK        -0.5000 
     27 CA          0.2478  -21.2793  -41.1173 C.3       9 UNK         0.1400 
     28 CB          0.4945  -20.7436  -39.6991 C.3       9 UNK        -0.1800 
     29 N           0.5390  -20.2269  -42.0915 N.am      9 UNK        -0.5000 
     30 C           0.2990  -20.3164  -43.4072 C.2       8 UNK         0.5000 
     31 O          -0.2240  -21.2918  -43.9444 O.2       8 UNK        -0.5000 
     32 CA          0.7785  -19.1402  -44.2760 C.3       8 UNK         0.1400 
     33 CB         -0.1913  -17.9566  -44.1605 C.3       8 UNK        -0.1800 
     34 N           2.1326  -18.7052  -43.9309 N.am      8 UNK        -0.5000 
     35 C           3.2242  -19.4812  -43.9926 C.2       7 UNK         0.5000 
     36 O           3.2144  -20.6402  -44.4002 O.2       7 UNK        -0.5000 
     37 CA          4.5350  -18.8874  -43.4555 C.3       7 UNK         0.1400 
     38 CB          5.2412  -18.0508  -44.5325 C.3       7 UNK        -0.1800 
     39 N           4.3003  -18.0792  -42.2597 N.am      7 UNK        -0.5000 
     40 C           4.0004  -18.5901  -41.0567 C.2       6 UNK         0.5000 
     41 O           3.9536  -19.7980  -40.8209 O.2       6 UNK        -0.5000 
     42 CA          3.6564  -17.5820  -39.9433 C.3       6 UNK         0.1400 
     43 CB          4.9348  -17.0594  -39.2713 C.3       6 UNK        -0.1800 
     44 N           2.8672  -16.4494  -40.4330 N.am      6 UNK        -0.5000 
     45 C           1.6064  -16.5470  -40.8779 C.2       5 UNK         0.5000 
     46 O           0.9632  -17.5961  -40.8638 O.2       5 UNK        -0.5000 
     47 CA          0.9728  -15.2766  -41.4814 C.3       5 UNK         0.1400 
     48 CB          0.2214  -14.4810  -40.4045 C.3       5 UNK        -0.1800 
     49 N           1.9206  -14.3888  -42.1637 N.am      5 UNK        -0.5000 
     50 C           2.6956  -14.7374  -43.2005 C.2       4 UNK         0.5000 
     51 O           2.7492  -15.8822  -43.6514 O.2       4 UNK        -0.5000 
     52 CA          3.5434  -13.6081  -43.8240 C.3       4 UNK         0.1400 
     53 CB          4.3365  -14.0641  -45.0667 C.3       4 UNK        -0.1800 
     54 N           2.7463  -12.4123  -44.1246 N.am      4 UNK        -0.5000 
     55 C           1.6809  -12.3461  -44.9357 C.2       3 UNK         0.5000 
     56 O           1.2409  -13.2943  -45.5897 O.2       3 UNK        -0.5000 
     57 CA          0.9899  -10.9785  -45.0471 C.3       3 UNK         0.1400 
     58 CB          1.3139  -10.3114  -46.3927 C.3       3 UNK        -0.1800 
     59 N          -0.4526  -11.1677  -44.9396 N.am      3 UNK        -0.5000 
     60 C          -1.1183  -11.2626  -43.7819 C.2       2 UNK         0.5000 
     61 O          -0.6171  -11.0391  -42.6792 O.2       2 UNK        -0.5000 
     62 CA         -2.5857  -11.7182  -43.8788 C.3       2 UNK         0.1400 
     63 CB         -3.5045  -10.5341  -44.2173 C.3       2 UNK        -0.1800 
     64 N          -2.7748  -12.7827  -44.8691 N.am      2 UNK        -0.5000 
     65 C          -2.3150  -14.0332  -44.7197 C.2       1 UNK         0.5000 
     66 O          -1.6972  -14.4200  -43.7248 O.2       1 UNK        -0.5000 
     67 C           0.5344  -24.4903  -45.6677 C.2       11 UNK         0.5000 
     68 O           0.3337  -25.4803  -46.3734 O.2       11 UNK        -0.5000 
     69 N          -0.3525  -24.0096  -44.7825 N.am      12 UNK        -0.5000 
     70 CA         -1.7018  -24.4899  -44.4580 C.3       12 UNK         0.1400 
     71 CB         -1.6915  -25.9488  -43.9644 C.3       12 UNK        -0.1800 
     72 C          -2.7194  -24.2734  -45.5937 C.2       12 UNK         0.5000 
     73 O          -3.7778  -23.6890  -45.3575 O.2       12 UNK        -0.5000 
     74 N          -2.3686  -24.6966  -46.8131 N.am      13 UNK        -0.5000 
     75 CA         -3.0405  -24.3384  -48.0586 C.3       13 UNK         0.1400 
     76 CB         -2.7268  -25.4041  -49.1232 C.3       13 UNK        -0.1800 
     77 C          -2.5674  -22.9348  -48.4727 C.2       13 UNK         0.5000 
     78 O          -1.6508  -22.8070  -49.2830 O.2       13 UNK        -0.5000 
     79 N          -3.1562  -21.9153  -47.8414 N.am      14 UNK        -0.5000 
     80 CA         -2.7544  -20.5186  -47.9482 C.3       14 UNK         0.1400 
     81 CB         -1.8753  -20.1631  -46.7382 C.3       14 UNK        -0.1800 
     82 C          -3.9922  -19.6193  -48.0761 C.2       14 UNK         0.5000 
     83 O          -4.1185  -18.6320  -47.3542 O.2       14 UNK        -0.5000 
     84 N          -4.8960  -19.9697  -49.0001 N.am      15 UNK        -0.5000 
     85 CA         -6.0922  -19.1831  -49.3218 C.3       15 UNK         0.1400 
     86 CB         -7.1320  -20.1029  -49.9832 C.3       15 UNK        -0.1800 
     87 C          -5.7959  -17.9664  -50.2256 C.2       15 UNK         0.5000 
     88 O          -6.7143  -17.2017  -50.5188 O.2       15 UNK        -0.5000 
     89 N          -4.5417  -17.8377  -50.6882 N.am      16 UNK        -0.5000 
     90 CA         -3.9827  -16.8141  -51.5853 C.3       16 UNK         0.1400 
     91 CB         -4.2066  -15.3913  -51.0363 C.3       16 UNK        -0.1800 
     92 C          -4.4245  -16.9395  -53.0590 C.2       16 UNK         0.5000 
     93 O          -3.8439  -16.2779  -53.9207 O.2       16 UNK        -0.5000 
     94 N          -5.4055  -17.8047  -53.3413 N.am      17 UNK        -0.5000 
     95 CA         -5.9117  -18.1242  -54.6715 C.3       17 UNK         0.1400 
     96 CB         -7.3348  -18.6929  -54.5296 C.3       17 UNK        -0.1800 
     97 C          -4.9644  -19.1040  -55.3853 C.2       17 UNK         0.5000 
     98 O          -5.2513  -20.2998  -55.4571 O.2       17 UNK        -0.5000 
     99 N          -3.8339  -18.5929  -55.8882 N.am      18 UNK        -0.5000 
    100 CA        -2.7920  -19.3641  -56.5786 C.3       18 UNK         0.1400 
    101 CB        -1.6237  -18.4330  -56.9308 C.3       18 UNK        -0.1800 
    102 C         -3.2903  -20.1173  -57.8298 C.2       18 UNK         0.5000 
    103 O         -2.7839  -21.1983  -58.1307 O.2       18 UNK        -0.5000 
    104 N         -4.3183  -19.5697  -58.4945 N.am      19 UNK        -0.5000 
    105 CA        -5.0378  -20.1963  -59.6078 C.3       19 UNK         0.1400 
    106 CB        -5.9679  -19.1527  -60.2449 C.3       19 UNK        -0.1800 
    107 C         -5.8389  -21.4528  -59.2009 C.2       19 UNK         0.5000 
    108 O         -6.1184  -22.2925  -60.0567 O.2       19 UNK        -0.5000 
    109 N         -6.1708  -21.5705  -57.9084 N.am      20 UNK        -0.5000 
    110 CA        -6.8233  -22.7215  -57.2843 C.3       20 UNK         0.1400 
    111 CB        -8.0231  -22.2195  -56.4608 C.3       20 UNK        -0.1800 
    112 C         -5.8195  -23.5117  -56.4176 C.2       20 UNK         0.5000 
    113 O         -6.2194  -24.1502  -55.4418 O.2       20 UNK        -0.5000 
    114 N         -4.5251  -23.4287  -56.7672 N.am      21 UNK        -0.5000 
    115 CA        -3.3785  -24.0725  -56.1151 C.3       21 UNK         0.1400 
    116 CB        -3.4348  -25.6019  -56.3120 C.3       21 UNK        -0.1800 
    117 C         -3.1962  -23.6644  -54.6370 C.2       21 UNK         0.5000 
    118 O         -2.6934  -24.4577  -53.8397 O.2       21 UNK        -0.5000 
    119 N         -3.6169  -22.4364  -54.3042 N.am      22 UNK        -0.5000 
    120 CA        -3.6195  -21.8437  -52.9568 C.3       22 UNK         0.1400 
    121 C         -4.6897  -22.4461  -51.9987 C.2       22 UNK         0.5000 
    122 N         -5.6487  -23.2331  -52.4737 N.am      22 UNK        -0.7600 
    123 O         -4.6811  -22.1581  -50.8061 O.2       22 UNK        -0.5000 
    124 C124       -2.2119  -21.7535  -52.3024 C.3       23 UNK        -0.0398 
    125 S125       -0.9713  -20.9437  -53.3712 S.3       23 UNK        -0.2404 
    126 C126       -0.7442  -19.3404  -52.5312 C.3       23 UNK        -0.0205 
    127 H127       -5.3644  -18.3092  -44.6366 H         1 UNK         0.0600 
    128 H128       -4.5452  -17.9733  -43.1059 H         1 UNK         0.0600 
    129 H129       -3.6355  -18.6192  -44.4734 H         1 UNK         0.0600 
    130 H130       -2.5051  -17.1054  -45.6501 H         1 UNK         0.3000 
    131 H131       -3.3781  -14.6105  -46.5050 H         1 UNK         0.0600 
    132 H132       -0.4485  -15.4141  -46.1315 H         1 UNK         0.0800 
    133 H133       -1.0623  -14.2029  -47.2165 H         1 UNK         0.0800 
    134 H134        0.9412  -16.4123  -48.2649 H         1 UNK         0.0800 
    135 H135        0.3893  -17.5147  -47.0262 H         1 UNK         0.0800 
    136 H136       -0.9026  -17.5367  -50.5465 H         1 UNK         0.1150 
    137 H137        1.0335  -21.2336  -51.5100 H         1 UNK         0.1150 
    138 H138        1.7651  -19.3676  -47.7338 H         1 UNK         0.1150 
    139 H139        2.9909  -21.8313  -50.1871 H         1 UNK         0.0800 
    140 H140        3.3070  -21.1134  -48.6378 H         1 UNK         0.0800 
    141 H141        0.9272  -21.8953  -46.4841 H         1 UNK         0.0800 
    142 H142        2.6629  -21.8863  -46.5713 H         1 UNK         0.0800 
    143 H143        2.6121  -24.4377  -46.1850 H         1 UNK         0.0600 
    144 H144        2.4677  -22.3458  -44.2859 H         1 UNK         0.3000 
    145 H145        3.1288  -24.3030  -41.3702 H         1 UNK         0.0600 
    146 H146        4.9644  -22.6323  -41.2370 H         1 UNK         0.0600 
    147 H147        5.3323  -23.8691  -42.4304 H         1 UNK         0.0600 
    148 H148        4.7977  -22.2783  -42.9545 H         1 UNK         0.0600 
    149 H149        2.7083  -21.4925  -41.8399 H         1 UNK         0.3000 
    150 H150       -0.8113  -21.5296  -41.2073 H         1 UNK         0.0600 
    151 H151        0.2699  -21.5028  -38.9490 H         1 UNK         0.0600 
    152 H152       -0.1381  -19.8810  -39.4887 H         1 UNK         0.0600 
    153 H153        1.5320  -20.4383  -39.5591 H         1 UNK         0.0600 
    154 H154        0.9217  -19.3609  -41.7231 H         1 UNK         0.3000 
    155 H155        0.7976  -19.4710  -45.3160 H         1 UNK         0.0600 
    156 H156       -0.3807  -17.6830  -43.1238 H         1 UNK         0.0600 
    157 H157       -1.1538  -18.2075  -44.6017 H         1 UNK         0.0600 
    158 H158        0.1921  -17.0736  -44.6691 H         1 UNK         0.0600 
    159 H159        2.2481  -17.7387  -43.6389 H         1 UNK         0.3000 
    160 H160        5.1951  -19.7149  -43.1868 H         1 UNK         0.0600 
    161 H161        4.6065  -17.2481  -44.9066 H         1 UNK         0.0600 
    162 H162        5.5122  -18.6725  -45.3866 H         1 UNK         0.0600 
    163 H163        6.1595  -17.6051  -44.1500 H         1 UNK         0.0600 
    164 H164        4.2351  -17.0805  -42.3972 H         1 UNK         0.3000 
    165 H165        3.0659  -18.1083  -39.1901 H         1 UNK         0.0600 
    166 H166        4.6994  -16.4042  -38.4324 H         1 UNK         0.0600 
    167 H167        5.5342  -17.8829  -38.8808 H         1 UNK         0.0600 
    168 H168        5.5593  -16.5009  -39.9696 H         1 UNK         0.0600 
    169 H169        3.3256  -15.5512  -40.4743 H         1 UNK         0.3000 
    170 H170        0.2457  -15.6009  -42.2269 H         1 UNK         0.0600 
    171 H171       -0.3228  -13.6442  -40.8438 H         1 UNK         0.0600 
    172 H172       -0.5100  -15.1092  -39.8942 H         1 UNK         0.0600 
    173 H173        0.9001  -14.0840  -39.6488 H         1 UNK         0.0600 
    174 H174        1.9221  -13.4239  -41.8668 H         1 UNK         0.3000 
    175 H175        4.2686  -13.3141  -43.0640 H         1 UNK         0.0600 
    176 H176        3.6823  -14.4522  -45.8482 H         1 UNK         0.0600 
    177 H177        4.9137  -13.2423  -45.4901 H         1 UNK         0.0600 
    178 H178        5.0419  -14.8542  -44.8083 H         1 UNK         0.0600 
    179 H179        3.0248  -11.5733  -43.6346 H         1 UNK         0.3000 
    180 H180        1.3364  -10.3235  -44.2446 H         1 UNK         0.0600 
    181 H181        0.9927  -10.9242  -47.2361 H         1 UNK         0.0600 
    182 H182        2.3871  -10.1466  -46.4968 H         1 UNK         0.0600 
    183 H183        0.8258   -9.3404  -46.4786 H         1 UNK         0.0600 
    184 H184       -0.9325  -11.4233  -45.7894 H         1 UNK         0.3000 
    185 H185       -2.8789  -12.1059  -42.9007 H         1 UNK         0.0600 
    186 H186       -3.3942   -9.7337  -43.4844 H         1 UNK         0.0600 
    187 H187       -3.2794  -10.1140  -45.1983 H         1 UNK         0.0600 
    188 H188       -4.5525  -10.8347  -44.2127 H         1 UNK         0.0600 
    189 H189       -3.2913  -12.5392  -45.7020 H         1 UNK         0.3000 
    190 H190       -0.1114  -23.1340  -44.3232 H         1 UNK         0.3000 
    191 H191       -2.0304  -23.8694  -43.6225 H         1 UNK         0.0600 
    192 H192       -1.0008  -26.0747  -43.1302 H         1 UNK         0.0600 
    193 H193       -2.6813  -26.2456  -43.6158 H         1 UNK         0.0600 
    194 H194       -1.4015  -26.6478  -44.7489 H         1 UNK         0.0600 
    195 H195       -1.4502  -25.1231  -46.9024 H         1 UNK         0.3000 
    196 H196       -4.1219  -24.3148  -47.9082 H         1 UNK         0.0600 
    197 H197       -3.1840  -25.1432  -50.0789 H         1 UNK         0.0600 
    198 H198       -3.1152  -26.3792  -48.8297 H         1 UNK         0.0600 
    199 H199       -1.6535  -25.5076  -49.2890 H         1 UNK         0.0600 
    200 H200       -3.8879  -22.1174  -47.1722 H         1 UNK         0.3000 
    201 H201       -2.1657  -20.3594  -48.8541 H         1 UNK         0.0600 
    202 H202       -0.9737  -20.7706  -46.7260 H         1 UNK         0.0600 
    203 H203       -2.3990  -20.3245  -45.7956 H         1 UNK         0.0600 
    204 H204       -1.5615  -19.1217  -46.7738 H         1 UNK         0.0600 
    205 H205       -4.7480  -20.8149  -49.5510 H         1 UNK         0.3000 
    206 H206       -6.5219  -18.8023  -48.3929 H         1 UNK         0.0600 
    207 H207       -7.3316  -20.9812  -49.3691 H         1 UNK         0.0600 
    208 H208       -8.0807  -19.5833  -50.1232 H         1 UNK         0.0600 
    209 H209       -6.8023  -20.4468  -50.9639 H         1 UNK         0.0600 
    210 H210       -3.8850  -18.5393  -50.3806 H         1 UNK         0.3000 
    211 H211       -2.9068  -16.9836  -51.5862 H         1 UNK         0.0600 
    212 H212       -5.2554  -15.0970  -51.0753 H         1 UNK         0.0600 
    213 H213       -3.6446  -14.6590  -51.6169 H         1 UNK         0.0600 
    214 H214       -3.8713  -15.3107  -50.0021 H         1 UNK         0.0600 
    215 H215       -5.8340  -18.2931  -52.5698 H         1 UNK         0.3000 
    216 H216       -5.9704  -17.2110  -55.2673 H         1 UNK         0.0600 
    217 H217       -7.7512  -18.9515  -55.5041 H         1 UNK         0.0600 
    218 H218       -8.0053  -17.9646  -54.0732 H         1 UNK         0.0600 
    219 H219       -7.3527  -19.5938  -53.9144 H         1 UNK         0.0600 
    220 H220       -3.6448  -17.6107  -55.7289 H         1 UNK         0.3000 
    221 H221       -2.4256  -20.1167  -55.8785 H         1 UNK         0.0600 
    222 H222       -1.9360  -17.6313  -57.6011 H         1 UNK         0.0600 
    223 H223       -1.2002  -17.9779  -56.0350 H         1 UNK         0.0600 
    224 H224       -0.8211  -18.9823  -57.4247 H         1 UNK         0.0600 
    225 H225       -4.6678  -18.6777  -58.1766 H         1 UNK         0.3000 
    226 H226       -4.3030  -20.5038  -60.3547 H         1 UNK         0.0600 
    227 H227       -5.4062  -18.2910  -60.6060 H         1 UNK         0.0600 
    228 H228       -6.4999  -19.5728  -61.0996 H         1 UNK         0.0600 
    229 H229       -6.7160  -18.7947  -59.5364 H         1 UNK         0.0600 
    230 H230       -5.8561  -20.8606  -57.2556 H         1 UNK         0.3000 
    231 H231       -7.1976  -23.4078  -58.0461 H         1 UNK         0.0600 
    232 H232       -8.7055  -21.6323  -57.0754 H         1 UNK         0.0600 
    233 H233       -7.7035  -21.5963  -55.6250 H         1 UNK         0.0600 
    234 H234       -8.5939  -23.0528  -56.0496 H         1 UNK         0.0600 
    235 H235       -4.2889  -22.8353  -57.5521 H         1 UNK         0.3000 
    236 H236       -2.4922  -23.7068  -56.6355 H         1 UNK         0.0600 
    237 H237       -2.5177  -26.0767  -55.9618 H         1 UNK         0.0600 
    238 H238       -4.2645  -26.0497  -55.7643 H         1 UNK         0.0600 
    239 H239       -3.5492  -25.8599  -57.3648 H         1 UNK         0.0600 
    240 H240       -4.0792  -21.8745  -55.0101 H         1 UNK         0.3000 
    241 H241       -3.9525  -20.8167  -53.1038 H         1 UNK         0.0600 
    242 H242       -6.3404  -23.5997  -51.8405 H         1 UNK         0.3800 
    243 H243       -5.6897  -23.4772  -53.4556 H         1 UNK         0.3800 
    244 H244       -1.8431  -22.7467  -52.0442 H         1 UNK         0.0800 
    245 H245       -2.2692  -21.2091  -51.3592 H         1 UNK         0.0800 
    246 H246       -1.7228  -18.8708  -52.4335 H         1 UNK         0.0800 
    247 H247       -0.1566  -18.6940  -53.1841 H         1 UNK         0.0800 
@<TRIPOS>BOND
     1    1    2 1    
     2    1  127 1    
     3    1  128 1    
     4    1  129 1    
     5    2    3 2    
     6    2    4 am   BACKBONE|DICT|INTERRES
     7    4    5 1    
     8    4  130 1    
     9    5    6 1    
    10    5   65 1    
    11    5  131 1    
    12    6    7 1    
    13    6  132 1    
    14    6  133 1    
    15    7    8 1    
    16    8    9 1    
    17    8  134 1    
    18    8  135 1    
    19    9   10 ar   
    20    9   14 ar   
    21   10   11 ar   
    22   10  136 1    
    23   11   12 ar   
    24   11  126 1    
    25   12   13 ar   
    26   12  137 1    
    27   13   14 ar   
    28   13   15 1    
    29   14  138 1    
    30   15   16 1    
    31   15  139 1    
    32   15  140 1    
    33   16   17 1    
    34   17   18 1    
    35   17  141 1    
    36   17  142 1    
    37   18   19 1    
    38   18   67 1    
    39   18  143 1    
    40   19   20 am   BACKBONE|DICT|INTERRES
    41   19  144 1    
    42   20   21 2    
    43   20   22 1    
    44   22   23 1    
    45   22   24 1    
    46   22  145 1    
    47   23  146 1    
    48   23  147 1    
    49   23  148 1    
    50   24   25 am   BACKBONE|DICT|INTERRES
    51   24  149 1    
    52   25   26 2    
    53   25   27 1    
    54   27   28 1    
    55   27   29 1    
    56   27  150 1    
    57   28  151 1    
    58   28  152 1    
    59   28  153 1    
    60   29   30 am   BACKBONE|DICT|INTERRES
    61   29  154 1    
    62   30   31 2    
    63   30   32 1    
    64   32   33 1    
    65   32   34 1    
    66   32  155 1    
    67   33  156 1    
    68   33  157 1    
    69   33  158 1    
    70   34   35 am   BACKBONE|DICT|INTERRES
    71   34  159 1    
    72   35   36 2    
    73   35   37 1    
    74   37   38 1    
    75   37   39 1    
    76   37  160 1    
    77   38  161 1    
    78   38  162 1    
    79   38  163 1    
    80   39   40 am   BACKBONE|DICT|INTERRES
    81   39  164 1    
    82   40   41 2    
    83   40   42 1    
    84   42   43 1    
    85   42   44 1    
    86   42  165 1    
    87   43  166 1    
    88   43  167 1    
    89   43  168 1    
    90   44   45 am   BACKBONE|DICT|INTERRES
    91   44  169 1    
    92   45   46 2    
    93   45   47 1    
    94   47   48 1    
    95   47   49 1    
    96   47  170 1    
    97   48  171 1    
    98   48  172 1    
    99   48  173 1    
   100   49   50 am   BACKBONE|DICT|INTERRES
   101   49  174 1    
   102   50   51 2    
   103   50   52 1    
   104   52   53 1    
   105   52   54 1    
   106   52  175 1    
   107   53  176 1    
   108   53  177 1    
   109   53  178 1    
   110   54   55 am   BACKBONE|DICT|INTERRES
   111   54  179 1    
   112   55   56 2    
   113   55   57 1    
   114   57   58 1    
   115   57   59 1    
   116   57  180 1    
   117   58  181 1    
   118   58  182 1    
   119   58  183 1    
   120   59   60 am   BACKBONE|DICT|INTERRES
   121   59  184 1    
   122   60   61 2    
   123   60   62 1    
   124   62   63 1    
   125   62   64 1    
   126   62  185 1    
   127   63  186 1    
   128   63  187 1    
   129   63  188 1    
   130   64   65 am   BACKBONE|DICT|INTERRES
   131   64  189 1    
   132   65   66 2    
   133   67   68 2    
   134   67   69 am   BACKBONE|DICT|INTERRES
   135   69   70 1    
   136   69  190 1    
   137   70   71 1    
   138   70   72 1    
   139   70  191 1    
   140   71  192 1    
   141   71  193 1    
   142   71  194 1    
   143   72   73 2    
   144   72   74 am   BACKBONE|DICT|INTERRES
   145   74   75 1    
   146   74  195 1    
   147   75   76 1    
   148   75   77 1    
   149   75  196 1    
   150   76  197 1    
   151   76  198 1    
   152   76  199 1    
   153   77   78 2    
   154   77   79 am   BACKBONE|DICT|INTERRES
   155   79   80 1    
   156   79  200 1    
   157   80   81 1    
   158   80   82 1    
   159   80  201 1    
   160   81  202 1    
   161   81  203 1    
   162   81  204 1    
   163   82   83 2    
   164   82   84 am   BACKBONE|DICT|INTERRES
   165   84   85 1    
   166   84  205 1    
   167   85   86 1    
   168   85   87 1    
   169   85  206 1    
   170   86  207 1    
   171   86  208 1    
   172   86  209 1    
   173   87   88 2    
   174   87   89 am   BACKBONE|DICT|INTERRES
   175   89   90 1    
   176   89  210 1    
   177   90   91 1    
   178   90   92 1    
   179   90  211 1    
   180   91  212 1    
   181   91  213 1    
   182   91  214 1    
   183   92   93 2    
   184   92   94 am   BACKBONE|DICT|INTERRES
   185   94   95 1    
   186   94  215 1    
   187   95   96 1    
   188   95   97 1    
   189   95  216 1    
   190   96  217 1    
   191   96  218 1    
   192   96  219 1    
   193   97   98 2    
   194   97   99 am   BACKBONE|DICT|INTERRES
   195   99  100 1    
   196   99  220 1    
   197  100  101 1    
   198  100  102 1    
   199  100  221 1    
   200  101  222 1    
   201  101  223 1    
   202  101  224 1    
   203  102  103 2    
   204  102  104 am   BACKBONE|DICT|INTERRES
   205  104  105 1    
   206  104  225 1    
   207  105  106 1    
   208  105  107 1    
   209  105  226 1    
   210  106  227 1    
   211  106  228 1    
   212  106  229 1    
   213  107  108 2    
   214  107  109 am   BACKBONE|DICT|INTERRES
   215  109  110 1    
   216  109  230 1    
   217  110  111 1    
   218  110  112 1    
   219  110  231 1    
   220  111  232 1    
   221  111  233 1    
   222  111  234 1    
   223  112  113 2    
   224  112  114 am   BACKBONE|DICT|INTERRES
   225  114  115 1    
   226  114  235 1    
   227  115  116 1    
   228  115  117 1    
   229  115  236 1    
   230  116  237 1    
   231  116  238 1    
   232  116  239 1    
   233  117  118 2    
   234  117  119 am   BACKBONE|DICT|INTERRES
   235  119  120 1    
   236  119  240 1    
   237  120  121 1    
   238  120  124 1    
   239  120  241 1    
   240  121  122 am   BACKBONE|DICT|INTERRES
   241  121  123 2    
   242  122  242 1    
   243  122  243 1    
   244  124  125 1    
   245  124  244 1    
   246  124  245 1    
   247  125  126 1    
   248  126  246 1    
   249  126  247 1    
@<TRIPOS>SUBSTRUCTURE
     1 UNK         1 GROUP             0       ****    0 ROOT    
