@<TRIPOS>MOLECULE
3R540
247   249    1
SMALL
USER_CHARGES


@<TRIPOS>ATOM
      1 CA          1.0354  -16.8339  -47.6293 C.3       0 UNK        -0.1800 
      2 C           0.4741  -15.6658  -48.4277 C.2       0 UNK         0.5000 
      3 O           0.9705  -14.5455  -48.3092 O.2       0 UNK        -0.5000 
      4 N          -0.5622  -15.9235  -49.2379 N.am      1 UNK        -0.5000 
      5 CA         -1.2788  -14.9450  -50.0681 C.3       1 UNK         0.1400 
      6 C6         -0.4298  -14.4025  -51.2530 C.3       23 UNK        -0.0398 
      7 S7         -0.0468  -15.7194  -52.4544 S.3       23 UNK        -0.2404 
      8 C8          1.6494  -16.1837  -51.9927 C.3       23 UNK        -0.0205 
      9 C9          1.8479  -17.6808  -52.1537 C.ar      23 UNK        -0.0193 
     10 C10         2.3591  -18.2046  -53.3428 C.ar      23 UNK        -0.1150 
     11 C11         2.5131  -19.5854  -53.5038 C.ar      23 UNK        -0.0193 
     12 C12         2.1607  -20.4438  -52.4567 C.ar      23 UNK        -0.1150 
     13 C13         1.6561  -19.9281  -51.2586 C.ar      23 UNK        -0.0193 
     14 C14         1.5034  -18.5474  -51.1142 C.ar      23 UNK        -0.1150 
     15 C15         1.2515  -20.8556  -50.1253 C.3       23 UNK        -0.0205 
     16 S16         2.6772  -21.3219  -49.0876 S.3       23 UNK        -0.2404 
     17 C17         2.0321  -21.0665  -47.3963 C.3       23 UNK        -0.0398 
     18 CA          1.2324  -22.2783  -46.8500 C.3       11 UNK         0.1400 
     19 N           1.1684  -22.2909  -45.3847 N.am      11 UNK        -0.5000 
     20 C           0.6829  -23.3089  -44.6536 C.2       10 UNK         0.5000 
     21 O           0.3046  -24.3745  -45.1354 O.2       10 UNK        -0.5000 
     22 CA          0.5340  -23.0848  -43.1372 C.3       10 UNK         0.1400 
     23 CB          1.8094  -23.5157  -42.4002 C.3       10 UNK        -0.1800 
     24 N           0.2128  -21.6968  -42.8049 N.am      10 UNK        -0.5000 
     25 C          -0.9184  -21.0752  -43.1739 C.2       9 UNK         0.5000 
     26 O          -1.8416  -21.6454  -43.7551 O.2       9 UNK        -0.5000 
     27 CA         -1.0172  -19.5596  -42.9067 C.3       9 UNK         0.1400 
     28 CB         -1.9186  -19.2801  -41.6967 C.3       9 UNK        -0.1800 
     29 N           0.2899  -18.9252  -42.7098 N.am      9 UNK        -0.5000 
     30 C           1.2186  -18.7963  -43.6701 C.2       8 UNK         0.5000 
     31 O           1.0312  -19.1417  -44.8376 O.2       8 UNK        -0.5000 
     32 CA          2.5982  -18.2501  -43.2572 C.3       8 UNK         0.1400 
     33 CB          2.7676  -16.7904  -43.6914 C.3       8 UNK        -0.1800 
     34 N           2.8530  -18.3607  -41.8184 N.am      8 UNK        -0.5000 
     35 C           3.1871  -19.5055  -41.2056 C.2       7 UNK         0.5000 
     36 O           3.2913  -20.5791  -41.7972 O.2       7 UNK        -0.5000 
     37 CA          3.4253  -19.4601  -39.6833 C.3       7 UNK         0.1400 
     38 CB          4.9192  -19.2697  -39.3807 C.3       7 UNK        -0.1800 
     39 N           2.6623  -18.4169  -38.9957 N.am      7 UNK        -0.5000 
     40 C           1.3276  -18.3935  -38.8872 C.2       6 UNK         0.5000 
     41 O           0.5966  -19.2646  -39.3602 O.2       6 UNK        -0.5000 
     42 CA          0.6863  -17.1892  -38.1623 C.3       6 UNK         0.1400 
     43 CB          1.7038  -16.1851  -37.5738 C.3       6 UNK        -0.1800 
     44 N          -0.2759  -16.4913  -39.0229 N.am      6 UNK        -0.5000 
     45 C          -0.0293  -15.9756  -40.2347 C.2       5 UNK         0.5000 
     46 O           1.0751  -16.0077  -40.7849 O.2       5 UNK        -0.5000 
     47 CA         -1.2148  -15.3100  -40.9466 C.3       5 UNK         0.1400 
     48 CB         -1.3768  -13.8486  -40.4994 C.3       5 UNK        -0.1800 
     49 N          -0.9693  -15.3472  -42.3820 N.am      5 UNK        -0.5000 
     50 C          -1.8668  -15.6040  -43.3345 C.2       4 UNK         0.5000 
     51 O          -3.0686  -15.7615  -43.1130 O.2       4 UNK        -0.5000 
     52 CA         -1.3175  -15.6974  -44.7746 C.3       4 UNK         0.1400 
     53 CB         -2.3205  -16.3614  -45.7345 C.3       4 UNK        -0.1800 
     54 N          -0.9241  -14.3946  -45.3200 N.am      4 UNK        -0.5000 
     55 C           0.1358  -13.6676  -44.9322 C.2       3 UNK         0.5000 
     56 O           0.9205  -14.0370  -44.0595 O.2       3 UNK        -0.5000 
     57 CA          0.3794  -12.3132  -45.6271 C.3       3 UNK         0.1400 
     58 CB          1.8767  -12.0760  -45.8944 C.3       3 UNK        -0.1800 
     59 N          -0.3370  -12.2091  -46.8969 N.am      3 UNK        -0.5000 
     60 C          -1.4217  -11.4551  -47.1196 C.2       2 UNK         0.5000 
     61 O          -1.9653  -10.7703  -46.2525 O.2       2 UNK        -0.5000 
     62 CA         -2.0038  -11.4569  -48.5495 C.3       2 UNK         0.1400 
     63 CB         -1.6509  -10.1483  -49.2736 C.3       2 UNK        -0.1800 
     64 N          -1.5502  -12.5836  -49.3691 N.am      2 UNK        -0.5000 
     65 C          -1.9156  -13.8576  -49.1731 C.2       1 UNK         0.5000 
     66 O          -2.7071  -14.2007  -48.2933 O.2       1 UNK        -0.5000 
     67 C          -0.1842  -22.3195  -47.4512 C.2       11 UNK         0.5000 
     68 O          -0.4527  -23.1424  -48.3259 O.2       11 UNK        -0.5000 
     69 N          -1.0666  -21.4467  -46.9410 N.am      12 UNK        -0.5000 
     70 CA         -2.4681  -21.3404  -47.3463 C.3       12 UNK         0.1400 
     71 CB         -3.1340  -20.1784  -46.5939 C.3       12 UNK        -0.1800 
     72 C          -3.2441  -22.6464  -47.1177 C.2       12 UNK         0.5000 
     73 O          -3.9818  -23.0721  -48.0060 O.2       12 UNK        -0.5000 
     74 N          -3.0229  -23.2677  -45.9512 N.am      13 UNK        -0.5000 
     75 CA         -3.5904  -24.5572  -45.5672 C.3       13 UNK         0.1400 
     76 CB         -3.3095  -24.8120  -44.0784 C.3       13 UNK        -0.1800 
     77 C          -3.0722  -25.7232  -46.4291 C.2       13 UNK         0.5000 
     78 O          -3.8760  -26.5429  -46.8734 O.2       13 UNK        -0.5000 
     79 N          -1.7513  -25.7753  -46.6582 N.am      14 UNK        -0.5000 
     80 CA         -1.0883  -26.8179  -47.4454 C.3       14 UNK         0.1400 
     81 CB          0.4341  -26.7235  -47.2616 C.3       14 UNK        -0.1800 
     82 C          -1.4531  -26.7679  -48.9380 C.2       14 UNK         0.5000 
     83 O          -1.7138  -27.8138  -49.5342 O.2       14 UNK        -0.5000 
     84 N          -1.4778  -25.5573  -49.5108 N.am      15 UNK        -0.5000 
     85 CA         -1.8665  -25.3183  -50.9008 C.3       15 UNK         0.1400 
     86 CB         -1.3588  -23.9334  -51.3316 C.3       15 UNK        -0.1800 
     87 C          -3.3867  -25.4199  -51.1240 C.2       15 UNK         0.5000 
     88 O          -3.8092  -25.6789  -52.2511 O.2       15 UNK        -0.5000 
     89 N          -4.1690  -25.1875  -50.0571 N.am      16 UNK        -0.5000 
     90 CA         -5.6245  -25.0034  -50.0405 C.3       16 UNK         0.1400 
     91 CB         -6.3554  -26.3135  -50.4002 C.3       16 UNK        -0.1800 
     92 C          -6.0315  -23.8039  -50.9219 C.2       16 UNK         0.5000 
     93 O          -6.9325  -23.9162  -51.7559 O.2       16 UNK        -0.5000 
     94 N          -5.3013  -22.6937  -50.7557 N.am      17 UNK        -0.5000 
     95 CA         -5.3225  -21.5446  -51.6521 C.3       17 UNK         0.1400 
     96 CB         -4.3381  -21.7798  -52.8144 C.3       17 UNK        -0.1800 
     97 C          -5.0881  -20.2459  -50.8640 C.2       17 UNK         0.5000 
     98 O          -5.9203  -19.9104  -50.0211 O.2       17 UNK        -0.5000 
     99 N          -4.0237  -19.4969  -51.1953 N.am      18 UNK        -0.5000 
    100 CA        -3.6904  -18.1252  -50.7804 C.3       18 UNK         0.1400 
    101 CB        -3.5567  -17.9705  -49.2558 C.3       18 UNK        -0.1800 
    102 C         -4.6318  -17.0756  -51.3960 C.2       18 UNK         0.5000 
    103 O         -4.1575  -16.1505  -52.0543 O.2       18 UNK        -0.5000 
    104 N         -5.9476  -17.2851  -51.2626 N.am      19 UNK        -0.5000 
    105 CA        -6.9911  -16.5510  -51.9863 C.3       19 UNK         0.1400 
    106 CB        -8.3606  -16.9176  -51.3957 C.3       19 UNK        -0.1800 
    107 C         -6.9637  -16.8281  -53.5055 C.2       19 UNK         0.5000 
    108 O         -7.3682  -15.9712  -54.2910 O.2       19 UNK        -0.5000 
    109 N         -6.4514  -18.0078  -53.8802 N.am      20 UNK        -0.5000 
    110 CA        -6.1809  -18.4442  -55.2504 C.3       20 UNK         0.1400 
    111 CB        -6.8933  -19.7884  -55.4874 C.3       20 UNK        -0.1800 
    112 C         -4.6600  -18.5394  -55.5006 C.2       20 UNK         0.5000 
    113 O         -4.2194  -19.3732  -56.2949 O.2       20 UNK        -0.5000 
    114 N         -3.8797  -17.7048  -54.7948 N.am      21 UNK        -0.5000 
    115 CA        -2.4155  -17.6427  -54.7942 C.3       21 UNK         0.1400 
    116 CB        -1.8975  -17.0431  -56.1204 C.3       21 UNK        -0.1800 
    117 C         -1.7931  -19.0041  -54.4216 C.2       21 UNK         0.5000 
    118 O         -2.0634  -19.5022  -53.3273 O.2       21 UNK        -0.5000 
    119 N         -1.0124  -19.5933  -55.3337 N.am      22 UNK        -0.5000 
    120 CA        -0.4177  -20.9302  -55.1863 C.3       22 UNK         0.1400 
    121 C         -1.4308  -22.1069  -55.3223 C.2       22 UNK         0.5000 
    122 N         -2.6702  -21.8857  -55.7470 N.am      22 UNK        -0.7600 
    123 O         -1.0786  -23.2500  -55.0466 O.2       22 UNK        -0.5000 
    124 C124        0.7841  -21.1552  -56.1440 C.3       23 UNK        -0.0398 
    125 S125        1.9874  -19.7834  -56.2226 S.3       23 UNK        -0.2404 
    126 C126        3.0767  -20.1362  -54.8057 C.3       23 UNK        -0.0205 
    127 H127        0.4093  -17.7228  -47.7102 H         1 UNK         0.0600 
    128 H128        1.1026  -16.5657  -46.5764 H         1 UNK         0.0600 
    129 H129        2.0359  -17.0848  -47.9813 H         1 UNK         0.0600 
    130 H130       -0.9302  -16.8612  -49.2745 H         1 UNK         0.3000 
    131 H131       -2.1244  -15.4772  -50.5005 H         1 UNK         0.0600 
    132 H132        0.4905  -13.9275  -50.9100 H         1 UNK         0.0800 
    133 H133       -0.9853  -13.6417  -51.8039 H         1 UNK         0.0800 
    134 H134        1.8633  -15.8975  -50.9631 H         1 UNK         0.0800 
    135 H135        2.3556  -15.6325  -52.6154 H         1 UNK         0.0800 
    136 H136        2.6248  -17.5387  -54.1519 H         1 UNK         0.1150 
    137 H137        2.2778  -21.5124  -52.5709 H         1 UNK         0.1150 
    138 H138        1.1047  -18.1467  -50.1950 H         1 UNK         0.1150 
    139 H139        0.4784  -20.3755  -49.5243 H         1 UNK         0.0800 
    140 H140        0.7970  -21.7599  -50.5316 H         1 UNK         0.0800 
    141 H141        1.4590  -20.1388  -47.3493 H         1 UNK         0.0800 
    142 H142        2.9036  -20.8964  -46.7626 H         1 UNK         0.0800 
    143 H143        1.7474  -23.1934  -47.1512 H         1 UNK         0.0600 
    144 H144        1.4149  -21.4300  -44.9155 H         1 UNK         0.3000 
    145 H145       -0.2891  -23.7101  -42.7855 H         1 UNK         0.0600 
    146 H146        1.7239  -23.3497  -41.3262 H         1 UNK         0.0600 
    147 H147        2.0034  -24.5784  -42.5515 H         1 UNK         0.0600 
    148 H148        2.6845  -22.9720  -42.7571 H         1 UNK         0.0600 
    149 H149        0.9312  -21.1655  -42.3326 H         1 UNK         0.3000 
    150 H150       -1.4812  -19.1046  -43.7843 H         1 UNK         0.0600 
    151 H151       -2.9244  -19.6666  -41.8662 H         1 UNK         0.0600 
    152 H152       -2.0117  -18.2117  -41.5084 H         1 UNK         0.0600 
    153 H153       -1.5381  -19.7522  -40.7912 H         1 UNK         0.0600 
    154 H154        0.5295  -18.6556  -41.7650 H         1 UNK         0.3000 
    155 H155        3.3477  -18.8406  -43.7885 H         1 UNK         0.0600 
    156 H156        2.0581  -16.1418  -43.1824 H         1 UNK         0.0600 
    157 H157        2.6109  -16.6753  -44.7638 H         1 UNK         0.0600 
    158 H158        3.7706  -16.4261  -43.4698 H         1 UNK         0.0600 
    159 H159        2.7197  -17.5217  -41.2667 H         1 UNK         0.3000 
    160 H160        3.1161  -20.4253  -39.2765 H         1 UNK         0.0600 
    161 H161        5.2840  -18.3079  -39.7435 H         1 UNK         0.0600 
    162 H162        5.5167  -20.0483  -39.8570 H         1 UNK         0.0600 
    163 H163        5.1151  -19.3219  -38.3095 H         1 UNK         0.0600 
    164 H164        3.1916  -17.6532  -38.6009 H         1 UNK         0.3000 
    165 H165        0.1158  -17.6064  -37.3313 H         1 UNK         0.0600 
    166 H166        1.1920  -15.3862  -37.0371 H         1 UNK         0.0600 
    167 H167        2.3706  -16.6696  -36.8594 H         1 UNK         0.0600 
    168 H168        2.3183  -15.7185  -38.3448 H         1 UNK         0.0600 
    169 H169       -1.2182  -16.4412  -38.6619 H         1 UNK         0.3000 
    170 H170       -2.1218  -15.8676  -40.7044 H         1 UNK         0.0600 
    171 H171       -1.5580  -13.7835  -39.4260 H         1 UNK         0.0600 
    172 H172       -0.4845  -13.2610  -40.7200 H         1 UNK         0.0600 
    173 H173       -2.2209  -13.3754  -41.0014 H         1 UNK         0.0600 
    174 H174       -0.0025  -15.1895  -42.6533 H         1 UNK         0.3000 
    175 H175       -0.4324  -16.3351  -44.7358 H         1 UNK         0.0600 
    176 H176       -3.1992  -15.7357  -45.8952 H         1 UNK         0.0600 
    177 H177       -1.8715  -16.5595  -46.7063 H         1 UNK         0.0600 
    178 H178       -2.6671  -17.3158  -45.3375 H         1 UNK         0.0600 
    179 H179       -1.5228  -14.0145  -46.0403 H         1 UNK         0.3000 
    180 H180        0.0393  -11.5416  -44.9339 H         1 UNK         0.0600 
    181 H181        2.2989  -12.8548  -46.5306 H         1 UNK         0.0600 
    182 H182        2.4477  -12.0647  -44.9652 H         1 UNK         0.0600 
    183 H183        2.0420  -11.1166  -46.3848 H         1 UNK         0.0600 
    184 H184        0.0263  -12.7884  -47.6467 H         1 UNK         0.3000 
    185 H185       -3.0906  -11.5144  -48.4590 H         1 UNK         0.0600 
    186 H186       -2.0040   -9.2824  -48.7119 H         1 UNK         0.0600 
    187 H187       -0.5734  -10.0379  -49.4029 H         1 UNK         0.0600 
    188 H188       -2.1148  -10.1043  -50.2592 H         1 UNK         0.0600 
    189 H189       -0.8766  -12.3661  -50.0884 H         1 UNK         0.3000 
    190 H190       -0.7637  -20.8345  -46.1976 H         1 UNK         0.3000 
    191 H191       -2.4870  -21.1178  -48.4154 H         1 UNK         0.0600 
    192 H192       -3.2430  -20.3846  -45.5298 H         1 UNK         0.0600 
    193 H193       -4.1328  -19.9864  -46.9875 H         1 UNK         0.0600 
    194 H194       -2.5567  -19.2607  -46.6930 H         1 UNK         0.0600 
    195 H195       -2.4343  -22.8064  -45.2643 H         1 UNK         0.3000 
    196 H196       -4.6723  -24.4980  -45.7028 H         1 UNK         0.0600 
    197 H197       -3.7539  -25.7532  -43.7524 H         1 UNK         0.0600 
    198 H198       -3.7291  -24.0205  -43.4572 H         1 UNK         0.0600 
    199 H199       -2.2400  -24.8648  -43.8736 H         1 UNK         0.0600 
    200 H200       -1.1435  -25.0851  -46.2265 H         1 UNK         0.3000 
    201 H201       -1.4132  -27.7860  -47.0584 H         1 UNK         0.0600 
    202 H202        0.7142  -26.8718  -46.2187 H         1 UNK         0.0600 
    203 H203        0.8178  -25.7525  -47.5774 H         1 UNK         0.0600 
    204 H204        0.9481  -27.4871  -47.8467 H         1 UNK         0.0600 
    205 H205       -1.2049  -24.7413  -48.9667 H         1 UNK         0.3000 
    206 H206       -1.3857  -26.0680  -51.5328 H         1 UNK         0.0600 
    207 H207       -0.2756  -23.8642  -51.2339 H         1 UNK         0.0600 
    208 H208       -1.6037  -23.7358  -52.3756 H         1 UNK         0.0600 
    209 H209       -1.8031  -23.1367  -50.7335 H         1 UNK         0.0600 
    210 H210       -3.7074  -24.9526  -49.1878 H         1 UNK         0.3000 
    211 H211       -5.8959  -24.7457  -49.0159 H         1 UNK         0.0600 
    212 H212       -6.1765  -26.6118  -51.4334 H         1 UNK         0.0600 
    213 H213       -7.4330  -26.2036  -50.2745 H         1 UNK         0.0600 
    214 H214       -6.0344  -27.1310  -49.7546 H         1 UNK         0.0600 
    215 H215       -4.6447  -22.6612  -49.9831 H         1 UNK         0.3000 
    216 H216       -6.3219  -21.4452  -52.0810 H         1 UNK         0.0600 
    217 H217       -4.3690  -20.9600  -53.5318 H         1 UNK         0.0600 
    218 H218       -4.5881  -22.6879  -53.3632 H         1 UNK         0.0600 
    219 H219       -3.3105  -21.8832  -52.4652 H         1 UNK         0.0600 
    220 H220       -3.4061  -19.8459  -51.9251 H         1 UNK         0.3000 
    221 H221       -2.7035  -17.9272  -51.2021 H         1 UNK         0.0600 
    222 H222       -4.4632  -18.2546  -48.7232 H         1 UNK         0.0600 
    223 H223       -2.7348  -18.5812  -48.8875 H         1 UNK         0.0600 
    224 H224       -3.3426  -16.9380  -48.9799 H         1 UNK         0.0600 
    225 H225       -6.2416  -18.0797  -50.7021 H         1 UNK         0.3000 
    226 H226       -6.8242  -15.4820  -51.8387 H         1 UNK         0.0600 
    227 H227       -8.4127  -16.6662  -50.3363 H         1 UNK         0.0600 
    228 H228       -9.1614  -16.3734  -51.8981 H         1 UNK         0.0600 
    229 H229       -8.5714  -17.9829  -51.4986 H         1 UNK         0.0600 
    230 H230       -6.1396  -18.6297  -53.1505 H         1 UNK         0.3000 
    231 H231       -6.5740  -17.7198  -55.9662 H         1 UNK         0.0600 
    232 H232       -7.9641  -19.7031  -55.3021 H         1 UNK         0.0600 
    233 H233       -6.5030  -20.5730  -54.8385 H         1 UNK         0.0600 
    234 H234       -6.7712  -20.1225  -56.5185 H         1 UNK         0.0600 
    235 H235       -4.3292  -17.0735  -54.1447 H         1 UNK         0.3000 
    236 H236       -2.1449  -16.9565  -53.9929 H         1 UNK         0.0600 
    237 H237       -0.8132  -16.9241  -56.1008 H         1 UNK         0.0600 
    238 H238       -2.1533  -17.6604  -56.9822 H         1 UNK         0.0600 
    239 H239       -2.3223  -16.0534  -56.2885 H         1 UNK         0.0600 
    240 H240       -0.8450  -19.1260  -56.2119 H         1 UNK         0.3000 
    241 H241       -0.0342  -20.9936  -54.1671 H         1 UNK         0.0600 
    242 H242       -2.9956  -20.9521  -55.9736 H         1 UNK         0.3800 
    243 H243       -3.3013  -22.6648  -55.8356 H         1 UNK         0.3800 
    244 H244        0.4206  -21.3096  -57.1615 H         1 UNK         0.0800 
    245 H245        1.3142  -22.0713  -55.8779 H         1 UNK         0.0800 
    246 H246        4.0459  -19.6703  -54.9882 H         1 UNK         0.0800 
    247 H247        3.2639  -21.2087  -54.7354 H         1 UNK         0.0800 
@<TRIPOS>BOND
     1    1    2 1    
     2    1  127 1    
     3    1  128 1    
     4    1  129 1    
     5    2    3 2    
     6    2    4 am   BACKBONE|DICT|INTERRES
     7    4    5 1    
     8    4  130 1    
     9    5    6 1    
    10    5   65 1    
    11    5  131 1    
    12    6    7 1    
    13    6  132 1    
    14    6  133 1    
    15    7    8 1    
    16    8    9 1    
    17    8  134 1    
    18    8  135 1    
    19    9   10 ar   
    20    9   14 ar   
    21   10   11 ar   
    22   10  136 1    
    23   11   12 ar   
    24   11  126 1    
    25   12   13 ar   
    26   12  137 1    
    27   13   14 ar   
    28   13   15 1    
    29   14  138 1    
    30   15   16 1    
    31   15  139 1    
    32   15  140 1    
    33   16   17 1    
    34   17   18 1    
    35   17  141 1    
    36   17  142 1    
    37   18   19 1    
    38   18   67 1    
    39   18  143 1    
    40   19   20 am   BACKBONE|DICT|INTERRES
    41   19  144 1    
    42   20   21 2    
    43   20   22 1    
    44   22   23 1    
    45   22   24 1    
    46   22  145 1    
    47   23  146 1    
    48   23  147 1    
    49   23  148 1    
    50   24   25 am   BACKBONE|DICT|INTERRES
    51   24  149 1    
    52   25   26 2    
    53   25   27 1    
    54   27   28 1    
    55   27   29 1    
    56   27  150 1    
    57   28  151 1    
    58   28  152 1    
    59   28  153 1    
    60   29   30 am   BACKBONE|DICT|INTERRES
    61   29  154 1    
    62   30   31 2    
    63   30   32 1    
    64   32   33 1    
    65   32   34 1    
    66   32  155 1    
    67   33  156 1    
    68   33  157 1    
    69   33  158 1    
    70   34   35 am   BACKBONE|DICT|INTERRES
    71   34  159 1    
    72   35   36 2    
    73   35   37 1    
    74   37   38 1    
    75   37   39 1    
    76   37  160 1    
    77   38  161 1    
    78   38  162 1    
    79   38  163 1    
    80   39   40 am   BACKBONE|DICT|INTERRES
    81   39  164 1    
    82   40   41 2    
    83   40   42 1    
    84   42   43 1    
    85   42   44 1    
    86   42  165 1    
    87   43  166 1    
    88   43  167 1    
    89   43  168 1    
    90   44   45 am   BACKBONE|DICT|INTERRES
    91   44  169 1    
    92   45   46 2    
    93   45   47 1    
    94   47   48 1    
    95   47   49 1    
    96   47  170 1    
    97   48  171 1    
    98   48  172 1    
    99   48  173 1    
   100   49   50 am   BACKBONE|DICT|INTERRES
   101   49  174 1    
   102   50   51 2    
   103   50   52 1    
   104   52   53 1    
   105   52   54 1    
   106   52  175 1    
   107   53  176 1    
   108   53  177 1    
   109   53  178 1    
   110   54   55 am   BACKBONE|DICT|INTERRES
   111   54  179 1    
   112   55   56 2    
   113   55   57 1    
   114   57   58 1    
   115   57   59 1    
   116   57  180 1    
   117   58  181 1    
   118   58  182 1    
   119   58  183 1    
   120   59   60 am   BACKBONE|DICT|INTERRES
   121   59  184 1    
   122   60   61 2    
   123   60   62 1    
   124   62   63 1    
   125   62   64 1    
   126   62  185 1    
   127   63  186 1    
   128   63  187 1    
   129   63  188 1    
   130   64   65 am   BACKBONE|DICT|INTERRES
   131   64  189 1    
   132   65   66 2    
   133   67   68 2    
   134   67   69 am   BACKBONE|DICT|INTERRES
   135   69   70 1    
   136   69  190 1    
   137   70   71 1    
   138   70   72 1    
   139   70  191 1    
   140   71  192 1    
   141   71  193 1    
   142   71  194 1    
   143   72   73 2    
   144   72   74 am   BACKBONE|DICT|INTERRES
   145   74   75 1    
   146   74  195 1    
   147   75   76 1    
   148   75   77 1    
   149   75  196 1    
   150   76  197 1    
   151   76  198 1    
   152   76  199 1    
   153   77   78 2    
   154   77   79 am   BACKBONE|DICT|INTERRES
   155   79   80 1    
   156   79  200 1    
   157   80   81 1    
   158   80   82 1    
   159   80  201 1    
   160   81  202 1    
   161   81  203 1    
   162   81  204 1    
   163   82   83 2    
   164   82   84 am   BACKBONE|DICT|INTERRES
   165   84   85 1    
   166   84  205 1    
   167   85   86 1    
   168   85   87 1    
   169   85  206 1    
   170   86  207 1    
   171   86  208 1    
   172   86  209 1    
   173   87   88 2    
   174   87   89 am   BACKBONE|DICT|INTERRES
   175   89   90 1    
   176   89  210 1    
   177   90   91 1    
   178   90   92 1    
   179   90  211 1    
   180   91  212 1    
   181   91  213 1    
   182   91  214 1    
   183   92   93 2    
   184   92   94 am   BACKBONE|DICT|INTERRES
   185   94   95 1    
   186   94  215 1    
   187   95   96 1    
   188   95   97 1    
   189   95  216 1    
   190   96  217 1    
   191   96  218 1    
   192   96  219 1    
   193   97   98 2    
   194   97   99 am   BACKBONE|DICT|INTERRES
   195   99  100 1    
   196   99  220 1    
   197  100  101 1    
   198  100  102 1    
   199  100  221 1    
   200  101  222 1    
   201  101  223 1    
   202  101  224 1    
   203  102  103 2    
   204  102  104 am   BACKBONE|DICT|INTERRES
   205  104  105 1    
   206  104  225 1    
   207  105  106 1    
   208  105  107 1    
   209  105  226 1    
   210  106  227 1    
   211  106  228 1    
   212  106  229 1    
   213  107  108 2    
   214  107  109 am   BACKBONE|DICT|INTERRES
   215  109  110 1    
   216  109  230 1    
   217  110  111 1    
   218  110  112 1    
   219  110  231 1    
   220  111  232 1    
   221  111  233 1    
   222  111  234 1    
   223  112  113 2    
   224  112  114 am   BACKBONE|DICT|INTERRES
   225  114  115 1    
   226  114  235 1    
   227  115  116 1    
   228  115  117 1    
   229  115  236 1    
   230  116  237 1    
   231  116  238 1    
   232  116  239 1    
   233  117  118 2    
   234  117  119 am   BACKBONE|DICT|INTERRES
   235  119  120 1    
   236  119  240 1    
   237  120  121 1    
   238  120  124 1    
   239  120  241 1    
   240  121  122 am   BACKBONE|DICT|INTERRES
   241  121  123 2    
   242  122  242 1    
   243  122  243 1    
   244  124  125 1    
   245  124  244 1    
   246  124  245 1    
   247  125  126 1    
   248  126  246 1    
   249  126  247 1    
@<TRIPOS>SUBSTRUCTURE
     1 UNK         1 GROUP             0       ****    0 ROOT    
