@<TRIPOS>MOLECULE
3R540
247   249    1
SMALL
USER_CHARGES


@<TRIPOS>ATOM
      1 CA          3.2642   -9.7074  -47.6203 C.3       0 UNK        -0.1800 
      2 C           3.0049  -11.1516  -47.2190 C.2       0 UNK         0.5000 
      3 O           2.6636  -11.4091  -46.0652 O.2       0 UNK        -0.5000 
      4 N           3.1399  -12.0836  -48.1732 N.am      1 UNK        -0.5000 
      5 CA          2.9770  -13.5390  -48.0157 C.3       1 UNK         0.1400 
      6 C6          3.2936  -14.3028  -49.3275 C.3       23 UNK        -0.0398 
      7 S7          2.3563  -13.6946  -50.7760 S.3       23 UNK        -0.2404 
      8 C8          2.0239  -15.2335  -51.6952 C.3       23 UNK        -0.0205 
      9 C9          0.9436  -16.1128  -51.0729 C.ar      23 UNK        -0.0193 
     10 C10        -0.2879  -15.5736  -50.6826 C.ar      23 UNK        -0.1150 
     11 C11        -1.3006  -16.4005  -50.1887 C.ar      23 UNK        -0.0193 
     12 C12        -1.0772  -17.7753  -50.0815 C.ar      23 UNK        -0.1150 
     13 C13         0.1443  -18.3287  -50.4706 C.ar      23 UNK        -0.0193 
     14 C14         1.1516  -17.4919  -50.9605 C.ar      23 UNK        -0.1150 
     15 C15         0.3586  -19.8342  -50.4066 C.3       23 UNK        -0.0205 
     16 S16         1.4100  -20.3216  -49.0077 S.3       23 UNK        -0.2404 
     17 C17         0.2643  -20.1142  -47.6048 C.3       23 UNK        -0.0398 
     18 CA         -0.0610  -21.4490  -46.8939 C.3       11 UNK         0.1400 
     19 N          -0.4982  -21.2250  -45.5171 N.am      11 UNK        -0.5000 
     20 C          -0.6651  -22.1764  -44.5910 C.2       10 UNK         0.5000 
     21 O          -0.4355  -23.3679  -44.7864 O.2       10 UNK        -0.5000 
     22 CA         -1.2304  -21.7292  -43.2331 C.3       10 UNK         0.1400 
     23 CB         -0.1212  -21.1939  -42.3179 C.3       10 UNK        -0.1800 
     24 N          -2.2750  -20.7173  -43.3781 N.am      10 UNK        -0.5000 
     25 C          -3.4923  -20.9566  -43.8825 C.2       9 UNK         0.5000 
     26 O          -3.8660  -22.0612  -44.2775 O.2       9 UNK        -0.5000 
     27 CA         -4.4368  -19.7471  -43.9882 C.3       9 UNK         0.1400 
     28 CB         -5.0778  -19.4347  -42.6277 C.3       9 UNK        -0.1800 
     29 N          -3.7629  -18.5509  -44.4961 N.am      9 UNK        -0.5000 
     30 C          -3.3209  -18.4235  -45.7535 C.2       8 UNK         0.5000 
     31 O          -3.4222  -19.3057  -46.6081 O.2       8 UNK        -0.5000 
     32 CA         -2.6464  -17.0881  -46.1177 C.3       8 UNK         0.1400 
     33 CB         -3.7088  -15.9936  -46.3135 C.3       8 UNK        -0.1800 
     34 N          -1.6296  -16.6064  -45.1751 N.am      8 UNK        -0.5000 
     35 C          -0.5945  -17.3149  -44.7045 C.2       7 UNK         0.5000 
     36 O          -0.4914  -18.5317  -44.8445 O.2       7 UNK        -0.5000 
     37 CA          0.5016  -16.5321  -43.9570 C.3       7 UNK         0.1400 
     38 CB          0.4409  -16.7656  -42.4365 C.3       7 UNK        -0.1800 
     39 N           1.8353  -16.8011  -44.5089 N.am      7 UNK        -0.5000 
     40 C           2.5694  -17.9261  -44.4545 C.2       6 UNK         0.5000 
     41 O           2.2852  -18.9240  -43.7942 O.2       6 UNK        -0.5000 
     42 CA          3.8888  -17.9146  -45.2438 C.3       6 UNK         0.1400 
     43 CB          3.6504  -17.9178  -46.7621 C.3       6 UNK        -0.1800 
     44 N           4.6801  -16.7469  -44.8735 N.am      6 UNK        -0.5000 
     45 C           5.5943  -16.7226  -43.8995 C.2       5 UNK         0.5000 
     46 O           5.9625  -17.7176  -43.2756 O.2       5 UNK        -0.5000 
     47 CA          6.1805  -15.3455  -43.5398 C.3       5 UNK         0.1400 
     48 CB          6.9316  -14.7058  -44.7257 C.3       5 UNK        -0.1800 
     49 N           5.1853  -14.4307  -42.9663 N.am      5 UNK        -0.5000 
     50 C           4.1148  -13.8855  -43.5603 C.2       4 UNK         0.5000 
     51 O           3.8049  -14.0831  -44.7366 O.2       4 UNK        -0.5000 
     52 CA          3.2509  -12.9732  -42.6788 C.3       4 UNK         0.1400 
     53 CB          4.0424  -11.7452  -42.1888 C.3       4 UNK        -0.1800 
     54 N           2.0813  -12.5149  -43.4213 N.am      4 UNK        -0.5000 
     55 C           0.8968  -12.2199  -42.8770 C.2       3 UNK         0.5000 
     56 O           0.6303  -12.3933  -41.6870 O.2       3 UNK        -0.5000 
     57 CA         -0.1661  -11.6033  -43.7988 C.3       3 UNK         0.1400 
     58 CB         -0.0080  -10.0749  -43.8358 C.3       3 UNK        -0.1800 
     59 N          -0.0935  -12.1128  -45.1668 N.am      3 UNK        -0.5000 
     60 C          -0.8700  -13.0902  -45.6493 C.2       2 UNK         0.5000 
     61 O          -1.6485  -13.7489  -44.9593 O.2       2 UNK        -0.5000 
     62 CA         -0.7744  -13.3811  -47.1590 C.3       2 UNK         0.1400 
     63 CB         -1.7600  -12.4913  -47.9319 C.3       2 UNK        -0.1800 
     64 N           0.5661  -13.1733  -47.6946 N.am      2 UNK        -0.5000 
     65 C           1.6113  -13.9694  -47.4376 C.2       1 UNK         0.5000 
     66 O           1.5336  -14.9936  -46.7602 O.2       1 UNK        -0.5000 
     67 C          -1.0749  -22.3078  -47.6796 C.2       11 UNK         0.5000 
     68 O          -0.6711  -23.2658  -48.3397 O.2       11 UNK        -0.5000 
     69 N          -2.3741  -21.9995  -47.5424 N.am      12 UNK        -0.5000 
     70 CA         -3.4683  -22.7901  -48.1112 C.3       12 UNK         0.1400 
     71 CB         -4.7981  -22.0488  -47.9211 C.3       12 UNK        -0.1800 
     72 C          -3.5471  -24.2095  -47.5193 C.2       12 UNK         0.5000 
     73 O          -3.7316  -25.1690  -48.2678 O.2       12 UNK        -0.5000 
     74 N          -3.3668  -24.3294  -46.1955 N.am      13 UNK        -0.5000 
     75 CA         -3.3244  -25.6086  -45.4839 C.3       13 UNK         0.1400 
     76 CB         -3.3332  -25.3626  -43.9679 C.3       13 UNK        -0.1800 
     77 C          -2.1237  -26.4833  -45.8923 C.2       13 UNK         0.5000 
     78 O          -2.2914  -27.6897  -46.0712 O.2       13 UNK        -0.5000 
     79 N          -0.9486  -25.8605  -46.0615 N.am      14 UNK        -0.5000 
     80 CA          0.2808  -26.5028  -46.5291 C.3       14 UNK         0.1400 
     81 CB          1.4671  -25.5444  -46.3432 C.3       14 UNK        -0.1800 
     82 C           0.1856  -26.9740  -47.9911 C.2       14 UNK         0.5000 
     83 O           0.6482  -28.0718  -48.3047 O.2       14 UNK        -0.5000 
     84 N          -0.4310  -26.1516  -48.8518 N.am      15 UNK        -0.5000 
     85 CA         -0.7268  -26.4846  -50.2467 C.3       15 UNK         0.1400 
     86 CB         -1.1524  -25.2081  -50.9894 C.3       15 UNK        -0.1800 
     87 C          -1.8169  -27.5646  -50.3882 C.2       15 UNK         0.5000 
     88 O          -1.8033  -28.3096  -51.3686 O.2       15 UNK        -0.5000 
     89 N          -2.7415  -27.6061  -49.4166 N.am      16 UNK        -0.5000 
     90 CA         -3.9627  -28.4153  -49.3661 C.3       16 UNK         0.1400 
     91 CB         -3.6297  -29.9179  -49.2625 C.3       16 UNK        -0.1800 
     92 C          -4.9183  -28.0734  -50.5284 C.2       16 UNK         0.5000 
     93 O          -5.5267  -28.9658  -51.1228 O.2       16 UNK        -0.5000 
     94 N          -5.0045  -26.7772  -50.8473 N.am      17 UNK        -0.5000 
     95 CA         -5.7019  -26.2160  -51.9982 C.3       17 UNK         0.1400 
     96 CB         -4.9034  -26.5184  -53.2845 C.3       17 UNK        -0.1800 
     97 C          -5.8668  -24.7021  -51.7928 C.2       17 UNK         0.5000 
     98 O          -5.3890  -24.1574  -50.7953 O.2       17 UNK        -0.5000 
     99 N          -6.5142  -24.0393  -52.7604 N.am      18 UNK        -0.5000 
    100 CA        -6.7100  -22.5858  -52.7929 C.3       18 UNK         0.1400 
    101 CB        -7.7317  -22.2448  -53.8890 C.3       18 UNK        -0.1800 
    102 C         -5.4116  -21.7777  -53.0004 C.2       18 UNK         0.5000 
    103 O         -5.4174  -20.5734  -52.7496 O.2       18 UNK        -0.5000 
    104 N         -4.3383  -22.4411  -53.4592 N.am      19 UNK        -0.5000 
    105 CA        -2.9812  -21.9214  -53.6459 C.3       19 UNK         0.1400 
    106 CB        -2.3158  -21.6792  -52.2730 C.3       19 UNK        -0.1800 
    107 C         -2.9527  -20.6962  -54.5838 C.2       19 UNK         0.5000 
    108 O         -3.2221  -20.8461  -55.7761 O.2       19 UNK        -0.5000 
    109 N         -2.6614  -19.5114  -54.0332 N.am      20 UNK        -0.5000 
    110 CA        -2.6297  -18.2240  -54.7315 C.3       20 UNK         0.1400 
    111 CB        -1.5681  -17.3382  -54.0547 C.3       20 UNK        -0.1800 
    112 C         -4.0131  -17.5329  -54.7884 C.2       20 UNK         0.5000 
    113 O         -4.0736  -16.3216  -55.0023 O.2       20 UNK        -0.5000 
    114 N         -5.0899  -18.3087  -54.5898 N.am      21 UNK        -0.5000 
    115 CA        -6.4873  -17.8996  -54.4080 C.3       21 UNK         0.1400 
    116 CB        -7.0229  -17.0911  -55.6087 C.3       21 UNK        -0.1800 
    117 C         -6.6974  -17.2101  -53.0450 C.2       21 UNK         0.5000 
    118 O         -7.4478  -16.2379  -52.9417 O.2       21 UNK        -0.5000 
    119 N         -6.0225  -17.7434  -52.0229 N.am      22 UNK        -0.5000 
    120 CA        -5.9861  -17.2663  -50.6393 C.3       22 UNK         0.1400 
    121 C         -5.2508  -18.2973  -49.7437 C.2       22 UNK         0.5000 
    122 N         -5.5769  -18.3580  -48.4609 N.am      22 UNK        -0.7600 
    123 O         -4.3553  -19.0117  -50.1859 O.2       22 UNK        -0.5000 
    124 C124       -5.3821  -15.8377  -50.4885 C.3       23 UNK        -0.0398 
    125 S125       -3.7289  -15.6286  -51.2443 S.3       23 UNK        -0.2404 
    126 C126       -2.6484  -15.8220  -49.7963 C.3       23 UNK        -0.0205 
    127 H127        3.5331   -9.6201  -48.6733 H         1 UNK         0.0600 
    128 H128        4.0788   -9.2951  -47.0250 H         1 UNK         0.0600 
    129 H129        2.3734   -9.1044  -47.4447 H         1 UNK         0.0600 
    130 H130        3.3908  -11.7891  -49.1064 H         1 UNK         0.3000 
    131 H131        3.7248  -13.8478  -47.2847 H         1 UNK         0.0600 
    132 H132        4.3552  -14.2016  -49.5566 H         1 UNK         0.0800 
    133 H133        3.1248  -15.3740  -49.1990 H         1 UNK         0.0800 
    134 H134        1.7035  -14.9690  -52.7035 H         1 UNK         0.0800 
    135 H135        2.9591  -15.7846  -51.8073 H         1 UNK         0.0800 
    136 H136       -0.4686  -14.5130  -50.7857 H         1 UNK         0.1150 
    137 H137       -1.8651  -18.4183  -49.7150 H         1 UNK         0.1150 
    138 H138        2.0911  -17.9234  -51.2762 H         1 UNK         0.1150 
    139 H139       -0.5950  -20.3584  -50.3339 H         1 UNK         0.0800 
    140 H140        0.8253  -20.1709  -51.3333 H         1 UNK         0.0800 
    141 H141        0.7674  -19.4407  -46.9112 H         1 UNK         0.0800 
    142 H142       -0.6464  -19.5949  -47.9059 H         1 UNK         0.0800 
    143 H143        0.8639  -22.0260  -46.8248 H         1 UNK         0.0600 
    144 H144       -0.6536  -20.2543  -45.2463 H         1 UNK         0.3000 
    145 H145       -1.6690  -22.6057  -42.7517 H         1 UNK         0.0600 
    146 H146       -0.5036  -20.9751  -41.3209 H         1 UNK         0.0600 
    147 H147        0.6820  -21.9234  -42.2072 H         1 UNK         0.0600 
    148 H148        0.3173  -20.2795  -42.7159 H         1 UNK         0.0600 
    149 H149       -2.0229  -19.7674  -43.1479 H         1 UNK         0.3000 
    150 H150       -5.2349  -20.0107  -44.6859 H         1 UNK         0.0600 
    151 H151       -5.5978  -20.3083  -42.2322 H         1 UNK         0.0600 
    152 H152       -5.8112  -18.6326  -42.7130 H         1 UNK         0.0600 
    153 H153       -4.3342  -19.1328  -41.8891 H         1 UNK         0.0600 
    154 H154       -3.6326  -17.7833  -43.8539 H         1 UNK         0.3000 
    155 H155       -2.1358  -17.2451  -47.0692 H         1 UNK         0.0600 
    156 H156       -3.2820  -15.0985  -46.7622 H         1 UNK         0.0600 
    157 H157       -4.1655  -15.7038  -45.3665 H         1 UNK         0.0600 
    158 H158       -4.5100  -16.3269  -46.9720 H         1 UNK         0.0600 
    159 H159       -1.6576  -15.6079  -44.9816 H         1 UNK         0.3000 
    160 H160        0.3345  -15.4682  -44.1275 H         1 UNK         0.0600 
    161 H161        0.5407  -17.8198  -42.1779 H         1 UNK         0.0600 
    162 H162       -0.5121  -16.4226  -42.0324 H         1 UNK         0.0600 
    163 H163        1.2293  -16.2157  -41.9224 H         1 UNK         0.0600 
    164 H164        2.1503  -16.0764  -45.1466 H         1 UNK         0.3000 
    165 H165        4.4381  -18.8259  -44.9976 H         1 UNK         0.0600 
    166 H166        3.0792  -17.0524  -47.0945 H         1 UNK         0.0600 
    167 H167        4.5940  -17.9224  -47.3075 H         1 UNK         0.0600 
    168 H168        3.1015  -18.8095  -47.0617 H         1 UNK         0.0600 
    169 H169        4.3770  -15.8474  -45.2340 H         1 UNK         0.3000 
    170 H170        6.9154  -15.5150  -42.7512 H         1 UNK         0.0600 
    171 H171        7.7184  -15.3685  -45.0874 H         1 UNK         0.0600 
    172 H172        6.2756  -14.4923  -45.5697 H         1 UNK         0.0600 
    173 H173        7.4061  -13.7706  -44.4293 H         1 UNK         0.0600 
    174 H174        5.3292  -14.2226  -41.9881 H         1 UNK         0.3000 
    175 H175        2.9311  -13.5666  -41.8197 H         1 UNK         0.0600 
    176 H176        4.4005  -11.1437  -43.0256 H         1 UNK         0.0600 
    177 H177        3.4261  -11.1042  -41.5582 H         1 UNK         0.0600 
    178 H178        4.9101  -12.0358  -41.5960 H         1 UNK         0.0600 
    179 H179        2.2380  -12.3647  -44.4156 H         1 UNK         0.3000 
    180 H180       -1.1457  -11.8255  -43.3698 H         1 UNK         0.0600 
    181 H181        0.9525   -9.7796  -44.2606 H         1 UNK         0.0600 
    182 H182       -0.0685   -9.6506  -42.8327 H         1 UNK         0.0600 
    183 H183       -0.7945   -9.6122  -44.4322 H         1 UNK         0.0600 
    184 H184        0.6038  -11.6919  -45.7692 H         1 UNK         0.3000 
    185 H185       -1.0444  -14.4262  -47.3223 H         1 UNK         0.0600 
    186 H186       -1.7033  -12.6720  -49.0053 H         1 UNK         0.0600 
    187 H187       -2.7873  -12.6851  -47.6209 H         1 UNK         0.0600 
    188 H188       -1.5614  -11.4319  -47.7645 H         1 UNK         0.0600 
    189 H189        0.7155  -12.3559  -48.2675 H         1 UNK         0.3000 
    190 H190       -2.6393  -21.1811  -47.0045 H         1 UNK         0.3000 
    191 H191       -3.2887  -22.8890  -49.1839 H         1 UNK         0.0600 
    192 H192       -5.6304  -22.6316  -48.3179 H         1 UNK         0.0600 
    193 H193       -4.7893  -21.0990  -48.4527 H         1 UNK         0.0600 
    194 H194       -5.0043  -21.8465  -46.8696 H         1 UNK         0.0600 
    195 H195       -3.2686  -23.4906  -45.6333 H         1 UNK         0.3000 
    196 H196       -4.2330  -26.1578  -45.7392 H         1 UNK         0.0600 
    197 H197       -3.3354  -26.3055  -43.4199 H         1 UNK         0.0600 
    198 H198       -4.2209  -24.8078  -43.6638 H         1 UNK         0.0600 
    199 H199       -2.4589  -24.7980  -43.6452 H         1 UNK         0.0600 
    200 H200       -0.8796  -24.8746  -45.8212 H         1 UNK         0.3000 
    201 H201        0.4561  -27.3830  -45.9071 H         1 UNK         0.0600 
    202 H202        1.5951  -25.2755  -45.2946 H         1 UNK         0.0600 
    203 H203        1.3330  -24.6226  -46.9103 H         1 UNK         0.0600 
    204 H204        2.3980  -26.0042  -46.6771 H         1 UNK         0.0600 
    205 H205       -0.7181  -25.2305  -48.5324 H         1 UNK         0.3000 
    206 H206        0.1855  -26.8651  -50.7105 H         1 UNK         0.0600 
    207 H207       -0.3711  -24.4487  -50.9511 H         1 UNK         0.0600 
    208 H208       -1.3560  -25.4144  -52.0409 H         1 UNK         0.0600 
    209 H209       -2.0576  -24.7787  -50.5583 H         1 UNK         0.0600 
    210 H210       -2.6881  -26.8859  -48.7050 H         1 UNK         0.3000 
    211 H211       -4.4793  -28.1273  -48.4494 H         1 UNK         0.0600 
    212 H212       -3.1635  -30.2959  -50.1727 H         1 UNK         0.0600 
    213 H213       -4.5318  -30.5056  -49.0895 H         1 UNK         0.0600 
    214 H214       -2.9513  -30.1123  -48.4316 H         1 UNK         0.0600 
    215 H215       -4.5448  -26.0868  -50.2606 H         1 UNK         0.3000 
    216 H216       -6.6972  -26.6597  -52.0649 H         1 UNK         0.0600 
    217 H217       -5.4048  -26.1293  -54.1709 H         1 UNK         0.0600 
    218 H218       -4.7838  -27.5910  -53.4374 H         1 UNK         0.0600 
    219 H219       -3.9062  -26.0778  -53.2473 H         1 UNK         0.0600 
    220 H220       -6.8834  -24.5566  -53.5453 H         1 UNK         0.3000 
    221 H221       -7.1266  -22.2800  -51.8308 H         1 UNK         0.0600 
    222 H222       -7.3703  -22.5286  -54.8783 H         1 UNK         0.0600 
    223 H223       -8.6801  -22.7542  -53.7175 H         1 UNK         0.0600 
    224 H224       -7.9406  -21.1746  -53.9104 H         1 UNK         0.0600 
    225 H225       -4.4635  -23.4166  -53.6833 H         1 UNK         0.3000 
    226 H226       -2.4150  -22.7057  -54.1503 H         1 UNK         0.0600 
    227 H227       -2.3055  -22.5925  -51.6795 H         1 UNK         0.0600 
    228 H228       -1.2792  -21.3655  -52.3964 H         1 UNK         0.0600 
    229 H229       -2.8340  -20.9198  -51.6855 H         1 UNK         0.0600 
    230 H230       -2.5157  -19.4749  -53.0342 H         1 UNK         0.3000 
    231 H231       -2.3164  -18.3861  -55.7647 H         1 UNK         0.0600 
    232 H232       -1.4572  -16.3836  -54.5700 H         1 UNK         0.0600 
    233 H233       -0.5903  -17.8202  -54.0566 H         1 UNK         0.0600 
    234 H234       -1.8293  -17.1239  -53.0188 H         1 UNK         0.0600 
    235 H235       -4.9113  -19.2793  -54.3624 H         1 UNK         0.3000 
    236 H236       -7.0624  -18.8252  -54.3648 H         1 UNK         0.0600 
    237 H237       -6.8241  -17.6031  -56.5501 H         1 UNK         0.0600 
    238 H238       -8.1026  -16.9579  -55.5332 H         1 UNK         0.0600 
    239 H239       -6.5796  -16.0968  -55.6647 H         1 UNK         0.0600 
    240 H240       -5.4728  -18.5839  -52.1807 H         1 UNK         0.3000 
    241 H241       -7.0218  -17.2336  -50.2967 H         1 UNK         0.0600 
    242 H242       -6.3237  -17.8074  -48.0688 H         1 UNK         0.3800 
    243 H243       -5.0398  -18.9792  -47.8690 H         1 UNK         0.3800 
    244 H244       -6.0458  -15.1132  -50.9606 H         1 UNK         0.0800 
    245 H245       -5.3469  -15.5421  -49.4387 H         1 UNK         0.0800 
    246 H246       -2.5244  -14.8580  -49.3070 H         1 UNK         0.0800 
    247 H247       -3.1242  -16.4791  -49.0708 H         1 UNK         0.0800 
@<TRIPOS>BOND
     1    1    2 1    
     2    1  127 1    
     3    1  128 1    
     4    1  129 1    
     5    2    3 2    
     6    2    4 am   BACKBONE|DICT|INTERRES
     7    4    5 1    
     8    4  130 1    
     9    5    6 1    
    10    5   65 1    
    11    5  131 1    
    12    6    7 1    
    13    6  132 1    
    14    6  133 1    
    15    7    8 1    
    16    8    9 1    
    17    8  134 1    
    18    8  135 1    
    19    9   10 ar   
    20    9   14 ar   
    21   10   11 ar   
    22   10  136 1    
    23   11   12 ar   
    24   11  126 1    
    25   12   13 ar   
    26   12  137 1    
    27   13   14 ar   
    28   13   15 1    
    29   14  138 1    
    30   15   16 1    
    31   15  139 1    
    32   15  140 1    
    33   16   17 1    
    34   17   18 1    
    35   17  141 1    
    36   17  142 1    
    37   18   19 1    
    38   18   67 1    
    39   18  143 1    
    40   19   20 am   BACKBONE|DICT|INTERRES
    41   19  144 1    
    42   20   21 2    
    43   20   22 1    
    44   22   23 1    
    45   22   24 1    
    46   22  145 1    
    47   23  146 1    
    48   23  147 1    
    49   23  148 1    
    50   24   25 am   BACKBONE|DICT|INTERRES
    51   24  149 1    
    52   25   26 2    
    53   25   27 1    
    54   27   28 1    
    55   27   29 1    
    56   27  150 1    
    57   28  151 1    
    58   28  152 1    
    59   28  153 1    
    60   29   30 am   BACKBONE|DICT|INTERRES
    61   29  154 1    
    62   30   31 2    
    63   30   32 1    
    64   32   33 1    
    65   32   34 1    
    66   32  155 1    
    67   33  156 1    
    68   33  157 1    
    69   33  158 1    
    70   34   35 am   BACKBONE|DICT|INTERRES
    71   34  159 1    
    72   35   36 2    
    73   35   37 1    
    74   37   38 1    
    75   37   39 1    
    76   37  160 1    
    77   38  161 1    
    78   38  162 1    
    79   38  163 1    
    80   39   40 am   BACKBONE|DICT|INTERRES
    81   39  164 1    
    82   40   41 2    
    83   40   42 1    
    84   42   43 1    
    85   42   44 1    
    86   42  165 1    
    87   43  166 1    
    88   43  167 1    
    89   43  168 1    
    90   44   45 am   BACKBONE|DICT|INTERRES
    91   44  169 1    
    92   45   46 2    
    93   45   47 1    
    94   47   48 1    
    95   47   49 1    
    96   47  170 1    
    97   48  171 1    
    98   48  172 1    
    99   48  173 1    
   100   49   50 am   BACKBONE|DICT|INTERRES
   101   49  174 1    
   102   50   51 2    
   103   50   52 1    
   104   52   53 1    
   105   52   54 1    
   106   52  175 1    
   107   53  176 1    
   108   53  177 1    
   109   53  178 1    
   110   54   55 am   BACKBONE|DICT|INTERRES
   111   54  179 1    
   112   55   56 2    
   113   55   57 1    
   114   57   58 1    
   115   57   59 1    
   116   57  180 1    
   117   58  181 1    
   118   58  182 1    
   119   58  183 1    
   120   59   60 am   BACKBONE|DICT|INTERRES
   121   59  184 1    
   122   60   61 2    
   123   60   62 1    
   124   62   63 1    
   125   62   64 1    
   126   62  185 1    
   127   63  186 1    
   128   63  187 1    
   129   63  188 1    
   130   64   65 am   BACKBONE|DICT|INTERRES
   131   64  189 1    
   132   65   66 2    
   133   67   68 2    
   134   67   69 am   BACKBONE|DICT|INTERRES
   135   69   70 1    
   136   69  190 1    
   137   70   71 1    
   138   70   72 1    
   139   70  191 1    
   140   71  192 1    
   141   71  193 1    
   142   71  194 1    
   143   72   73 2    
   144   72   74 am   BACKBONE|DICT|INTERRES
   145   74   75 1    
   146   74  195 1    
   147   75   76 1    
   148   75   77 1    
   149   75  196 1    
   150   76  197 1    
   151   76  198 1    
   152   76  199 1    
   153   77   78 2    
   154   77   79 am   BACKBONE|DICT|INTERRES
   155   79   80 1    
   156   79  200 1    
   157   80   81 1    
   158   80   82 1    
   159   80  201 1    
   160   81  202 1    
   161   81  203 1    
   162   81  204 1    
   163   82   83 2    
   164   82   84 am   BACKBONE|DICT|INTERRES
   165   84   85 1    
   166   84  205 1    
   167   85   86 1    
   168   85   87 1    
   169   85  206 1    
   170   86  207 1    
   171   86  208 1    
   172   86  209 1    
   173   87   88 2    
   174   87   89 am   BACKBONE|DICT|INTERRES
   175   89   90 1    
   176   89  210 1    
   177   90   91 1    
   178   90   92 1    
   179   90  211 1    
   180   91  212 1    
   181   91  213 1    
   182   91  214 1    
   183   92   93 2    
   184   92   94 am   BACKBONE|DICT|INTERRES
   185   94   95 1    
   186   94  215 1    
   187   95   96 1    
   188   95   97 1    
   189   95  216 1    
   190   96  217 1    
   191   96  218 1    
   192   96  219 1    
   193   97   98 2    
   194   97   99 am   BACKBONE|DICT|INTERRES
   195   99  100 1    
   196   99  220 1    
   197  100  101 1    
   198  100  102 1    
   199  100  221 1    
   200  101  222 1    
   201  101  223 1    
   202  101  224 1    
   203  102  103 2    
   204  102  104 am   BACKBONE|DICT|INTERRES
   205  104  105 1    
   206  104  225 1    
   207  105  106 1    
   208  105  107 1    
   209  105  226 1    
   210  106  227 1    
   211  106  228 1    
   212  106  229 1    
   213  107  108 2    
   214  107  109 am   BACKBONE|DICT|INTERRES
   215  109  110 1    
   216  109  230 1    
   217  110  111 1    
   218  110  112 1    
   219  110  231 1    
   220  111  232 1    
   221  111  233 1    
   222  111  234 1    
   223  112  113 2    
   224  112  114 am   BACKBONE|DICT|INTERRES
   225  114  115 1    
   226  114  235 1    
   227  115  116 1    
   228  115  117 1    
   229  115  236 1    
   230  116  237 1    
   231  116  238 1    
   232  116  239 1    
   233  117  118 2    
   234  117  119 am   BACKBONE|DICT|INTERRES
   235  119  120 1    
   236  119  240 1    
   237  120  121 1    
   238  120  124 1    
   239  120  241 1    
   240  121  122 am   BACKBONE|DICT|INTERRES
   241  121  123 2    
   242  122  242 1    
   243  122  243 1    
   244  124  125 1    
   245  124  244 1    
   246  124  245 1    
   247  125  126 1    
   248  126  246 1    
   249  126  247 1    
@<TRIPOS>SUBSTRUCTURE
     1 UNK         1 GROUP             0       ****    0 ROOT    
