@<TRIPOS>MOLECULE
3R540
247   249    1
SMALL
USER_CHARGES


@<TRIPOS>ATOM
      1 CA          3.3837  -17.8752  -47.8613 C.3       0 UNK        -0.1800 
      2 C           3.2094  -17.1567  -46.5320 C.2       0 UNK         0.5000 
      3 O           3.8945  -17.4886  -45.5649 O.2       0 UNK        -0.5000 
      4 N           2.3125  -16.1606  -46.4869 N.am      1 UNK        -0.5000 
      5 CA          1.9132  -15.4106  -45.2855 C.3       1 UNK         0.1400 
      6 C6          0.8217  -14.3524  -45.5832 C.3       23 UNK        -0.0398 
      7 S7         -0.6474  -15.0643  -46.4007 S.3       23 UNK        -0.2404 
      8 C8         -0.4660  -14.4497  -48.1063 C.3       23 UNK        -0.0205 
      9 C9         -0.8829  -15.4985  -49.1267 C.ar      23 UNK        -0.0193 
     10 C10        -2.2338  -15.6975  -49.4237 C.ar      23 UNK        -0.1150 
     11 C11        -2.6218  -16.6427  -50.3791 C.ar      23 UNK        -0.0193 
     12 C12        -1.6435  -17.3948  -51.0378 C.ar      23 UNK        -0.1150 
     13 C13        -0.2873  -17.1977  -50.7574 C.ar      23 UNK        -0.0193 
     14 C14         0.0843  -16.2530  -49.7967 C.ar      23 UNK        -0.1150 
     15 C15         0.7839  -17.9638  -51.5217 C.3       23 UNK        -0.0205 
     16 S16         1.3775  -19.4279  -50.6157 S.3       23 UNK        -0.2404 
     17 C17        -0.0072  -20.5932  -50.8461 C.3       23 UNK        -0.0398 
     18 CA         -0.6940  -20.9916  -49.5192 C.3       11 UNK         0.1400 
     19 N          -1.1192  -19.8244  -48.7355 N.am      11 UNK        -0.5000 
     20 C          -1.6379  -19.8624  -47.5017 C.2       10 UNK         0.5000 
     21 O          -1.8953  -20.9043  -46.8944 O.2       10 UNK        -0.5000 
     22 CA         -1.9987  -18.5030  -46.8854 C.3       10 UNK         0.1400 
     23 CB         -3.4821  -18.1872  -47.1282 C.3       10 UNK        -0.1800 
     24 N          -1.7394  -18.4277  -45.4514 N.am      10 UNK        -0.5000 
     25 C          -0.5546  -18.5750  -44.8487 C.2       9 UNK         0.5000 
     26 O           0.4898  -18.8397  -45.4446 O.2       9 UNK        -0.5000 
     27 CA         -0.5445  -18.3279  -43.3237 C.3       9 UNK         0.1400 
     28 CB          0.8104  -18.6608  -42.6750 C.3       9 UNK        -0.1800 
     29 N          -0.8969  -16.9436  -42.9933 N.am      9 UNK        -0.5000 
     30 C          -2.1225  -16.4093  -43.0641 C.2       8 UNK         0.5000 
     31 O          -3.1317  -17.0606  -43.3432 O.2       8 UNK        -0.5000 
     32 CA         -2.2302  -14.9054  -42.7493 C.3       8 UNK         0.1400 
     33 CB         -3.5853  -14.3092  -43.1695 C.3       8 UNK        -0.1800 
     34 N          -2.0254  -14.6602  -41.3238 N.am      8 UNK        -0.5000 
     35 C          -0.8337  -14.5781  -40.7233 C.2       7 UNK         0.5000 
     36 O           0.2431  -14.6792  -41.3174 O.2       7 UNK        -0.5000 
     37 CA         -0.8565  -14.3846  -39.2026 C.3       7 UNK         0.1400 
     38 CB         -0.9618  -15.7392  -38.4825 C.3       7 UNK        -0.1800 
     39 N           0.3690  -13.7129  -38.7885 N.am      7 UNK        -0.5000 
     40 C           0.4602  -12.7751  -37.8382 C.2       6 UNK         0.5000 
     41 O          -0.5010  -12.3876  -37.1720 O.2       6 UNK        -0.5000 
     42 CA          1.8526  -12.1696  -37.5671 C.3       6 UNK         0.1400 
     43 CB          2.3828  -12.6321  -36.2006 C.3       6 UNK        -0.1800 
     44 N           2.8433  -12.5148  -38.5863 N.am      6 UNK        -0.5000 
     45 C           2.9617  -11.9471  -39.7907 C.2       5 UNK         0.5000 
     46 O           2.2487  -11.0213  -40.1785 O.2       5 UNK        -0.5000 
     47 CA          4.0414  -12.5207  -40.7298 C.3       5 UNK         0.1400 
     48 CB          5.4313  -11.9420  -40.4074 C.3       5 UNK        -0.1800 
     49 N           4.0740  -13.9878  -40.7979 N.am      5 UNK        -0.5000 
     50 C           4.3965  -14.8857  -39.8541 C.2       4 UNK         0.5000 
     51 O           4.7239  -14.5933  -38.7036 O.2       4 UNK        -0.5000 
     52 CA          4.3332  -16.3635  -40.2676 C.3       4 UNK         0.1400 
     53 CB          2.8799  -16.8571  -40.3029 C.3       4 UNK        -0.1800 
     54 N           4.9488  -16.5631  -41.5777 N.am      4 UNK        -0.5000 
     55 C           6.2396  -16.8690  -41.7677 C.2       3 UNK         0.5000 
     56 O           7.0296  -17.1129  -40.8548 O.2       3 UNK        -0.5000 
     57 CA          6.7400  -16.8909  -43.2247 C.3       3 UNK         0.1400 
     58 CB          6.5884  -18.2960  -43.8263 C.3       3 UNK        -0.1800 
     59 N           6.0443  -15.9151  -44.0670 N.am      3 UNK        -0.5000 
     60 C           6.2245  -14.5878  -43.9727 C.2       2 UNK         0.5000 
     61 O           7.0561  -14.0701  -43.2267 O.2       2 UNK        -0.5000 
     62 CA          5.3319  -13.6720  -44.8355 C.3       2 UNK         0.1400 
     63 CB          6.1191  -13.1376  -46.0418 C.3       2 UNK        -0.1800 
     64 N           4.1011  -14.2992  -45.3194 N.am      2 UNK        -0.5000 
     65 C           3.0979  -14.7490  -44.5529 C.2       1 UNK         0.5000 
     66 O           3.1026  -14.6994  -43.3234 O.2       1 UNK        -0.5000 
     67 C          -1.8467  -21.9775  -49.8010 C.2       11 UNK         0.5000 
     68 O          -1.6012  -23.1743  -49.9418 O.2       11 UNK        -0.5000 
     69 N          -3.0866  -21.4686  -49.8265 N.am      12 UNK        -0.5000 
     70 CA         -4.3241  -22.2379  -49.9571 C.3       12 UNK         0.1400 
     71 CB         -5.5013  -21.2532  -50.0294 C.3       12 UNK        -0.1800 
     72 C          -4.5506  -23.2685  -48.8308 C.2       12 UNK         0.5000 
     73 O          -5.2429  -24.2608  -49.0538 O.2       12 UNK        -0.5000 
     74 N          -3.9576  -23.0368  -47.6506 N.am      13 UNK        -0.5000 
     75 CA         -3.9678  -23.9865  -46.5376 C.3       13 UNK         0.1400 
     76 CB         -3.7590  -23.2189  -45.2227 C.3       13 UNK        -0.1800 
     77 C          -2.9012  -25.0896  -46.6925 C.2       13 UNK         0.5000 
     78 O          -3.0185  -26.1293  -46.0425 O.2       13 UNK        -0.5000 
     79 N          -1.8779  -24.8461  -47.5231 N.am      14 UNK        -0.5000 
     80 CA         -0.7436  -25.7421  -47.7331 C.3       14 UNK         0.1400 
     81 CB          0.5427  -24.9075  -47.8449 C.3       14 UNK        -0.1800 
     82 C          -0.9181  -26.6273  -48.9779 C.2       14 UNK         0.5000 
     83 O          -0.5113  -27.7896  -48.9383 O.2       14 UNK        -0.5000 
     84 N          -1.4970  -26.0804  -50.0559 N.am      15 UNK        -0.5000 
     85 CA         -1.6392  -26.7580  -51.3417 C.3       15 UNK         0.1400 
     86 CB         -0.5189  -26.2887  -52.2853 C.3       15 UNK        -0.1800 
     87 C          -3.0109  -26.4741  -51.9642 C.2       15 UNK         0.5000 
     88 O          -3.4322  -25.3172  -52.0321 O.2       15 UNK        -0.5000 
     89 N          -3.6469  -27.5303  -52.4885 N.am      16 UNK        -0.5000 
     90 CA         -4.9051  -27.4618  -53.2372 C.3       16 UNK         0.1400 
     91 CB         -5.4473  -28.8825  -53.4511 C.3       16 UNK        -0.1800 
     92 C          -4.7605  -26.7306  -54.5861 C.2       16 UNK         0.5000 
     93 O          -5.7051  -26.0799  -55.0320 O.2       16 UNK        -0.5000 
     94 N          -3.5657  -26.8128  -55.1897 N.am      17 UNK        -0.5000 
     95 CA         -3.1968  -26.0950  -56.4113 C.3       17 UNK         0.1400 
     96 CB         -1.8385  -26.6108  -56.9094 C.3       17 UNK        -0.1800 
     97 C          -3.1570  -24.5677  -56.2148 C.2       17 UNK         0.5000 
     98 O          -3.4968  -23.8287  -57.1386 O.2       17 UNK        -0.5000 
     99 N          -2.7743  -24.1253  -55.0084 N.am      18 UNK        -0.5000 
    100 CA        -2.8317  -22.7246  -54.5993 C.3       18 UNK         0.1400 
    101 CB        -1.8647  -22.4806  -53.4353 C.3       18 UNK        -0.1800 
    102 C         -4.2618  -22.3127  -54.2187 C.2       18 UNK         0.5000 
    103 O         -4.6833  -21.2128  -54.5732 O.2       18 UNK        -0.5000 
    104 N         -5.0019  -23.2083  -53.5467 N.am      19 UNK        -0.5000 
    105 CA        -6.4017  -23.0098  -53.1527 C.3       19 UNK         0.1400 
    106 CB        -6.8765  -24.1908  -52.2957 C.3       19 UNK        -0.1800 
    107 C         -7.3544  -22.7970  -54.3429 C.2       19 UNK         0.5000 
    108 O         -8.3218  -22.0470  -54.2175 O.2       19 UNK        -0.5000 
    109 N         -7.0354  -23.4079  -55.4906 N.am      20 UNK        -0.5000 
    110 CA        -7.7331  -23.2187  -56.7629 C.3       20 UNK         0.1400 
    111 CB        -7.1634  -24.2082  -57.7906 C.3       20 UNK        -0.1800 
    112 C         -7.6692  -21.7745  -57.3085 C.2       20 UNK         0.5000 
    113 O         -8.5430  -21.3955  -58.0898 O.2       20 UNK        -0.5000 
    114 N         -6.6545  -21.0014  -56.8956 N.am      21 UNK        -0.5000 
    115 CA        -6.4521  -19.6074  -57.2875 C.3       21 UNK         0.1400 
    116 CB        -5.0056  -19.4349  -57.7791 C.3       21 UNK        -0.1800 
    117 C         -6.7422  -18.6361  -56.1296 C.2       21 UNK         0.5000 
    118 O         -7.3897  -17.6122  -56.3520 O.2       21 UNK        -0.5000 
    119 N         -6.2421  -18.9575  -54.9301 N.am      22 UNK        -0.5000 
    120 CA        -6.2271  -18.0834  -53.7453 C.3       22 UNK         0.1400 
    121 C         -7.1977  -18.5257  -52.6088 C.2       22 UNK         0.5000 
    122 N         -7.9847  -19.5813  -52.7627 N.am      22 UNK        -0.7600 
    123 O         -7.2653  -17.8866  -51.5635 O.2       22 UNK        -0.5000 
    124 C124       -4.7660  -17.8959  -53.2473 C.3       23 UNK        -0.0398 
    125 S125       -4.4948  -16.3009  -52.3957 S.3       23 UNK        -0.2404 
    126 C126       -4.0970  -16.8397  -50.7010 C.3       23 UNK        -0.0205 
    127 H127        2.9066  -17.3376  -48.6797 H         1 UNK         0.0600 
    128 H128        2.9445  -18.8713  -47.8049 H         1 UNK         0.0600 
    129 H129        4.4423  -17.9800  -48.0982 H         1 UNK         0.0600 
    130 H130        1.7669  -15.9616  -47.3112 H         1 UNK         0.3000 
    131 H131        1.4893  -16.1408  -44.5949 H         1 UNK         0.0600 
    132 H132        0.4873  -13.8912  -44.6524 H         1 UNK         0.0800 
    133 H133        1.2227  -13.5371  -46.1877 H         1 UNK         0.0800 
    134 H134       -1.0742  -13.5521  -48.2273 H         1 UNK         0.0800 
    135 H135        0.5634  -14.1443  -48.2977 H         1 UNK         0.0800 
    136 H136       -2.9822  -15.1098  -48.9105 H         1 UNK         0.1150 
    137 H137       -1.9411  -18.1108  -51.7906 H         1 UNK         0.1150 
    138 H138        1.1317  -16.0892  -49.5904 H         1 UNK         0.1150 
    139 H139        0.4181  -18.2597  -52.5062 H         1 UNK         0.0800 
    140 H140        1.6336  -17.3050  -51.7070 H         1 UNK         0.0800 
    141 H141        0.3905  -21.4798  -51.3440 H         1 UNK         0.0800 
    142 H142       -0.7306  -20.1610  -51.5372 H         1 UNK         0.0800 
    143 H143        0.0373  -21.5292  -48.9118 H         1 UNK         0.0600 
    144 H144       -0.9328  -18.9259  -49.1600 H         1 UNK         0.3000 
    145 H145       -1.3913  -17.7381  -47.3699 H         1 UNK         0.0600 
    146 H146       -3.7233  -17.1711  -46.8146 H         1 UNK         0.0600 
    147 H147       -3.7370  -18.2703  -48.1840 H         1 UNK         0.0600 
    148 H148       -4.1324  -18.8719  -46.5822 H         1 UNK         0.0600 
    149 H149       -2.5238  -18.1636  -44.8646 H         1 UNK         0.3000 
    150 H150       -1.2915  -18.9922  -42.8841 H         1 UNK         0.0600 
    151 H151        1.6070  -18.0097  -43.0367 H         1 UNK         0.0600 
    152 H152        1.1047  -19.6889  -42.8892 H         1 UNK         0.0600 
    153 H153        0.7566  -18.5601  -41.5913 H         1 UNK         0.0600 
    154 H154       -0.1390  -16.3388  -42.7010 H         1 UNK         0.3000 
    155 H155       -1.4555  -14.3900  -43.3197 H         1 UNK         0.0600 
    156 H156       -4.4146  -14.7587  -42.6219 H         1 UNK         0.0600 
    157 H157       -3.7670  -14.4693  -44.2332 H         1 UNK         0.0600 
    158 H158       -3.6126  -13.2334  -42.9952 H         1 UNK         0.0600 
    159 H159       -2.8613  -14.6079  -40.7594 H         1 UNK         0.3000 
    160 H160       -1.7241  -13.7710  -38.9507 H         1 UNK         0.0600 
    161 H161       -0.1183  -16.3880  -38.7218 H         1 UNK         0.0600 
    162 H162       -1.8731  -16.2661  -38.7677 H         1 UNK         0.0600 
    163 H163       -0.9872  -15.6089  -37.4005 H         1 UNK         0.0600 
    164 H164        1.1825  -13.9277  -39.3492 H         1 UNK         0.3000 
    165 H165        1.7389  -11.0839  -37.5415 H         1 UNK         0.0600 
    166 H166        1.6916  -12.3660  -35.3998 H         1 UNK         0.0600 
    167 H167        2.5220  -13.7136  -36.1697 H         1 UNK         0.0600 
    168 H168        3.3401  -12.1642  -35.9704 H         1 UNK         0.0600 
    169 H169        3.4867  -13.2721  -38.3670 H         1 UNK         0.3000 
    170 H170        3.7801  -12.1936  -41.7376 H         1 UNK         0.0600 
    171 H171        5.4209  -10.8530  -40.4635 H         1 UNK         0.0600 
    172 H172        5.7653  -12.2126  -39.4055 H         1 UNK         0.0600 
    173 H173        6.1787  -12.2973  -41.1170 H         1 UNK         0.0600 
    174 H174        3.7497  -14.3536  -41.6920 H         1 UNK         0.3000 
    175 H175        4.8640  -16.9463  -39.5117 H         1 UNK         0.0600 
    176 H176        2.8411  -17.9316  -40.4802 H         1 UNK         0.0600 
    177 H177        2.3755  -16.6654  -39.3550 H         1 UNK         0.0600 
    178 H178        2.3048  -16.3663  -41.0882 H         1 UNK         0.0600 
    179 H179        4.3834  -16.3366  -42.3850 H         1 UNK         0.3000 
    180 H180        7.8031  -16.6408  -43.2176 H         1 UNK         0.0600 
    181 H181        5.5513  -18.6328  -43.8085 H         1 UNK         0.0600 
    182 H182        7.1766  -19.0236  -43.2658 H         1 UNK         0.0600 
    183 H183        6.9334  -18.3243  -44.8600 H         1 UNK         0.0600 
    184 H184        5.3335  -16.2811  -44.6922 H         1 UNK         0.3000 
    185 H185        5.0459  -12.8235  -44.2104 H         1 UNK         0.0600 
    186 H186        5.5310  -12.4165  -46.6097 H         1 UNK         0.0600 
    187 H187        7.0302  -12.6301  -45.7217 H         1 UNK         0.0600 
    188 H188        6.4116  -13.9417  -46.7182 H         1 UNK         0.0600 
    189 H189        4.0232  -14.4198  -46.3187 H         1 UNK         0.3000 
    190 H190       -3.1907  -20.4763  -49.6819 H         1 UNK         0.3000 
    191 H191       -4.2699  -22.7924  -50.8949 H         1 UNK         0.0600 
    192 H192       -5.4079  -20.5871  -50.8872 H         1 UNK         0.0600 
    193 H193       -6.4503  -21.7816  -50.1288 H         1 UNK         0.0600 
    194 H194       -5.5649  -20.6365  -49.1320 H         1 UNK         0.0600 
    195 H195       -3.3865  -22.2073  -47.5279 H         1 UNK         0.3000 
    196 H196       -4.9445  -24.4729  -46.4899 H         1 UNK         0.0600 
    197 H197       -3.8436  -23.8868  -44.3646 H         1 UNK         0.0600 
    198 H198       -4.5058  -22.4345  -45.0990 H         1 UNK         0.0600 
    199 H199       -2.7734  -22.7546  -45.1780 H         1 UNK         0.0600 
    200 H200       -1.8871  -24.0000  -48.0785 H         1 UNK         0.3000 
    201 H201       -0.6313  -26.4021  -46.8701 H         1 UNK         0.0600 
    202 H202        1.4163  -25.5522  -47.9490 H         1 UNK         0.0600 
    203 H203        0.5240  -24.2427  -48.7088 H         1 UNK         0.0600 
    204 H204        0.6944  -24.2960  -46.9552 H         1 UNK         0.0600 
    205 H205       -1.7958  -25.1088  -50.0319 H         1 UNK         0.3000 
    206 H206       -1.5481  -27.8382  -51.2104 H         1 UNK         0.0600 
    207 H207        0.4626  -26.5464  -51.8872 H         1 UNK         0.0600 
    208 H208       -0.6049  -26.7581  -53.2660 H         1 UNK         0.0600 
    209 H209       -0.5444  -25.2080  -52.4319 H         1 UNK         0.0600 
    210 H210       -3.2328  -28.4469  -52.3953 H         1 UNK         0.3000 
    211 H211       -5.6257  -26.9110  -52.6312 H         1 UNK         0.0600 
    212 H212       -4.7579  -29.4947  -54.0338 H         1 UNK         0.0600 
    213 H213       -6.3984  -28.8603  -53.9849 H         1 UNK         0.0600 
    214 H214       -5.6223  -29.3853  -52.4997 H         1 UNK         0.0600 
    215 H215       -2.8511  -27.3836  -54.7636 H         1 UNK         0.3000 
    216 H216       -3.9488  -26.3124  -57.1729 H         1 UNK         0.0600 
    217 H217       -1.5451  -26.1083  -57.8321 H         1 UNK         0.0600 
    218 H218       -1.8757  -27.6796  -57.1209 H         1 UNK         0.0600 
    219 H219       -1.0484  -26.4398  -56.1770 H         1 UNK         0.0600 
    220 H220       -2.5405  -24.7982  -54.2936 H         1 UNK         0.3000 
    221 H221       -2.5148  -22.0957  -55.4343 H         1 UNK         0.0600 
    222 H222       -2.1045  -23.1050  -52.5761 H         1 UNK         0.0600 
    223 H223       -0.8350  -22.6900  -53.7250 H         1 UNK         0.0600 
    224 H224       -1.9102  -21.4409  -53.1122 H         1 UNK         0.0600 
    225 H225       -4.5637  -24.0721  -53.2471 H         1 UNK         0.3000 
    226 H226       -6.4385  -22.1063  -52.5441 H         1 UNK         0.0600 
    227 H227       -7.8200  -23.9541  -51.8028 H         1 UNK         0.0600 
    228 H228       -7.0426  -25.0833  -52.8979 H         1 UNK         0.0600 
    229 H229       -6.1555  -24.4400  -51.5187 H         1 UNK         0.0600 
    230 H230       -6.2696  -24.0717  -55.4824 H         1 UNK         0.3000 
    231 H231       -8.7856  -23.4605  -56.6021 H         1 UNK         0.0600 
    232 H232       -6.1083  -24.0170  -57.9886 H         1 UNK         0.0600 
    233 H233       -7.6944  -24.1355  -58.7404 H         1 UNK         0.0600 
    234 H234       -7.2577  -25.2373  -57.4430 H         1 UNK         0.0600 
    235 H235       -5.9929  -21.3829  -56.2311 H         1 UNK         0.3000 
    236 H236       -7.1156  -19.3412  -58.1129 H         1 UNK         0.0600 
    237 H237       -4.8088  -20.0652  -58.6465 H         1 UNK         0.0600 
    238 H238       -4.8136  -18.4031  -58.0764 H         1 UNK         0.0600 
    239 H239       -4.2806  -19.6955  -57.0068 H         1 UNK         0.0600 
    240 H240       -5.7141  -19.8230  -54.8315 H         1 UNK         0.3000 
    241 H241       -6.5927  -17.1004  -54.0469 H         1 UNK         0.0600 
    242 H242       -7.9809  -20.1450  -53.6035 H         1 UNK         0.3800 
    243 H243       -8.6153  -19.8243  -52.0163 H         1 UNK         0.3800 
    244 H244       -4.0843  -17.8942  -54.0993 H         1 UNK         0.0800 
    245 H245       -4.4496  -18.7396  -52.6326 H         1 UNK         0.0800 
    246 H246       -4.3738  -17.8826  -50.5461 H         1 UNK         0.0800 
    247 H247       -4.7165  -16.2655  -50.0104 H         1 UNK         0.0800 
@<TRIPOS>BOND
     1    1    2 1    
     2    1  127 1    
     3    1  128 1    
     4    1  129 1    
     5    2    3 2    
     6    2    4 am   BACKBONE|DICT|INTERRES
     7    4    5 1    
     8    4  130 1    
     9    5    6 1    
    10    5   65 1    
    11    5  131 1    
    12    6    7 1    
    13    6  132 1    
    14    6  133 1    
    15    7    8 1    
    16    8    9 1    
    17    8  134 1    
    18    8  135 1    
    19    9   10 ar   
    20    9   14 ar   
    21   10   11 ar   
    22   10  136 1    
    23   11   12 ar   
    24   11  126 1    
    25   12   13 ar   
    26   12  137 1    
    27   13   14 ar   
    28   13   15 1    
    29   14  138 1    
    30   15   16 1    
    31   15  139 1    
    32   15  140 1    
    33   16   17 1    
    34   17   18 1    
    35   17  141 1    
    36   17  142 1    
    37   18   19 1    
    38   18   67 1    
    39   18  143 1    
    40   19   20 am   BACKBONE|DICT|INTERRES
    41   19  144 1    
    42   20   21 2    
    43   20   22 1    
    44   22   23 1    
    45   22   24 1    
    46   22  145 1    
    47   23  146 1    
    48   23  147 1    
    49   23  148 1    
    50   24   25 am   BACKBONE|DICT|INTERRES
    51   24  149 1    
    52   25   26 2    
    53   25   27 1    
    54   27   28 1    
    55   27   29 1    
    56   27  150 1    
    57   28  151 1    
    58   28  152 1    
    59   28  153 1    
    60   29   30 am   BACKBONE|DICT|INTERRES
    61   29  154 1    
    62   30   31 2    
    63   30   32 1    
    64   32   33 1    
    65   32   34 1    
    66   32  155 1    
    67   33  156 1    
    68   33  157 1    
    69   33  158 1    
    70   34   35 am   BACKBONE|DICT|INTERRES
    71   34  159 1    
    72   35   36 2    
    73   35   37 1    
    74   37   38 1    
    75   37   39 1    
    76   37  160 1    
    77   38  161 1    
    78   38  162 1    
    79   38  163 1    
    80   39   40 am   BACKBONE|DICT|INTERRES
    81   39  164 1    
    82   40   41 2    
    83   40   42 1    
    84   42   43 1    
    85   42   44 1    
    86   42  165 1    
    87   43  166 1    
    88   43  167 1    
    89   43  168 1    
    90   44   45 am   BACKBONE|DICT|INTERRES
    91   44  169 1    
    92   45   46 2    
    93   45   47 1    
    94   47   48 1    
    95   47   49 1    
    96   47  170 1    
    97   48  171 1    
    98   48  172 1    
    99   48  173 1    
   100   49   50 am   BACKBONE|DICT|INTERRES
   101   49  174 1    
   102   50   51 2    
   103   50   52 1    
   104   52   53 1    
   105   52   54 1    
   106   52  175 1    
   107   53  176 1    
   108   53  177 1    
   109   53  178 1    
   110   54   55 am   BACKBONE|DICT|INTERRES
   111   54  179 1    
   112   55   56 2    
   113   55   57 1    
   114   57   58 1    
   115   57   59 1    
   116   57  180 1    
   117   58  181 1    
   118   58  182 1    
   119   58  183 1    
   120   59   60 am   BACKBONE|DICT|INTERRES
   121   59  184 1    
   122   60   61 2    
   123   60   62 1    
   124   62   63 1    
   125   62   64 1    
   126   62  185 1    
   127   63  186 1    
   128   63  187 1    
   129   63  188 1    
   130   64   65 am   BACKBONE|DICT|INTERRES
   131   64  189 1    
   132   65   66 2    
   133   67   68 2    
   134   67   69 am   BACKBONE|DICT|INTERRES
   135   69   70 1    
   136   69  190 1    
   137   70   71 1    
   138   70   72 1    
   139   70  191 1    
   140   71  192 1    
   141   71  193 1    
   142   71  194 1    
   143   72   73 2    
   144   72   74 am   BACKBONE|DICT|INTERRES
   145   74   75 1    
   146   74  195 1    
   147   75   76 1    
   148   75   77 1    
   149   75  196 1    
   150   76  197 1    
   151   76  198 1    
   152   76  199 1    
   153   77   78 2    
   154   77   79 am   BACKBONE|DICT|INTERRES
   155   79   80 1    
   156   79  200 1    
   157   80   81 1    
   158   80   82 1    
   159   80  201 1    
   160   81  202 1    
   161   81  203 1    
   162   81  204 1    
   163   82   83 2    
   164   82   84 am   BACKBONE|DICT|INTERRES
   165   84   85 1    
   166   84  205 1    
   167   85   86 1    
   168   85   87 1    
   169   85  206 1    
   170   86  207 1    
   171   86  208 1    
   172   86  209 1    
   173   87   88 2    
   174   87   89 am   BACKBONE|DICT|INTERRES
   175   89   90 1    
   176   89  210 1    
   177   90   91 1    
   178   90   92 1    
   179   90  211 1    
   180   91  212 1    
   181   91  213 1    
   182   91  214 1    
   183   92   93 2    
   184   92   94 am   BACKBONE|DICT|INTERRES
   185   94   95 1    
   186   94  215 1    
   187   95   96 1    
   188   95   97 1    
   189   95  216 1    
   190   96  217 1    
   191   96  218 1    
   192   96  219 1    
   193   97   98 2    
   194   97   99 am   BACKBONE|DICT|INTERRES
   195   99  100 1    
   196   99  220 1    
   197  100  101 1    
   198  100  102 1    
   199  100  221 1    
   200  101  222 1    
   201  101  223 1    
   202  101  224 1    
   203  102  103 2    
   204  102  104 am   BACKBONE|DICT|INTERRES
   205  104  105 1    
   206  104  225 1    
   207  105  106 1    
   208  105  107 1    
   209  105  226 1    
   210  106  227 1    
   211  106  228 1    
   212  106  229 1    
   213  107  108 2    
   214  107  109 am   BACKBONE|DICT|INTERRES
   215  109  110 1    
   216  109  230 1    
   217  110  111 1    
   218  110  112 1    
   219  110  231 1    
   220  111  232 1    
   221  111  233 1    
   222  111  234 1    
   223  112  113 2    
   224  112  114 am   BACKBONE|DICT|INTERRES
   225  114  115 1    
   226  114  235 1    
   227  115  116 1    
   228  115  117 1    
   229  115  236 1    
   230  116  237 1    
   231  116  238 1    
   232  116  239 1    
   233  117  118 2    
   234  117  119 am   BACKBONE|DICT|INTERRES
   235  119  120 1    
   236  119  240 1    
   237  120  121 1    
   238  120  124 1    
   239  120  241 1    
   240  121  122 am   BACKBONE|DICT|INTERRES
   241  121  123 2    
   242  122  242 1    
   243  122  243 1    
   244  124  125 1    
   245  124  244 1    
   246  124  245 1    
   247  125  126 1    
   248  126  246 1    
   249  126  247 1    
@<TRIPOS>SUBSTRUCTURE
     1 UNK         1 GROUP             0       ****    0 ROOT    
