@<TRIPOS>MOLECULE
3R540
247   249    1
SMALL
USER_CHARGES


@<TRIPOS>ATOM
      1 CA          3.5549  -18.7949  -46.9423 C.3       0 UNK        -0.1800 
      2 C           3.0380  -17.3659  -46.9051 C.2       0 UNK         0.5000 
      3 O           3.2453  -16.6707  -45.9141 O.2       0 UNK        -0.5000 
      4 N           2.3926  -16.9119  -47.9883 N.am      1 UNK        -0.5000 
      5 CA          1.7970  -15.5731  -48.1317 C.3       1 UNK         0.1400 
      6 C6          1.0211  -15.4319  -49.4657 C.3       23 UNK        -0.0398 
      7 S7         -0.4076  -16.5642  -49.5693 S.3       23 UNK        -0.2404 
      8 C8         -1.7815  -15.3782  -49.4402 C.3       23 UNK        -0.0205 
      9 C9         -3.1175  -16.0667  -49.2060 C.ar      23 UNK        -0.0193 
     10 C10        -4.1031  -16.0834  -50.1974 C.ar      23 UNK        -0.1150 
     11 C11        -5.3541  -16.6525  -49.9380 C.ar      23 UNK        -0.0193 
     12 C12        -5.6139  -17.2064  -48.6820 C.ar      23 UNK        -0.1150 
     13 C13        -4.6285  -17.2210  -47.6887 C.ar      23 UNK        -0.0193 
     14 C14        -3.3857  -16.6453  -47.9640 C.ar      23 UNK        -0.1150 
     15 C15        -4.8828  -17.7966  -46.2968 C.3       23 UNK        -0.0205 
     16 S16        -6.1103  -19.1455  -46.2195 S.3       23 UNK        -0.2404 
     17 C17        -5.3440  -20.4591  -47.2337 C.3       23 UNK        -0.0398 
     18 CA         -3.8958  -20.8534  -46.8440 C.3       11 UNK         0.1400 
     19 N          -3.7255  -20.9801  -45.3879 N.am      11 UNK        -0.5000 
     20 C          -2.5894  -21.2826  -44.7477 C.2       10 UNK         0.5000 
     21 O          -1.5574  -21.6287  -45.3211 O.2       10 UNK        -0.5000 
     22 CA         -2.6176  -21.1580  -43.2169 C.3       10 UNK         0.1400 
     23 CB         -1.5536  -22.0315  -42.5314 C.3       10 UNK        -0.1800 
     24 N          -2.3851  -19.7670  -42.8468 N.am      10 UNK        -0.5000 
     25 C          -3.3448  -18.8630  -42.6157 C.2       9 UNK         0.5000 
     26 O          -4.5471  -19.1152  -42.7017 O.2       9 UNK        -0.5000 
     27 CA         -2.9002  -17.4445  -42.2050 C.3       9 UNK         0.1400 
     28 CB         -2.9982  -17.2799  -40.6807 C.3       9 UNK        -0.1800 
     29 N          -1.5410  -17.1086  -42.6344 N.am      9 UNK        -0.5000 
     30 C          -1.1922  -16.8593  -43.9035 C.2       8 UNK         0.5000 
     31 O          -1.9988  -16.8235  -44.8285 O.2       8 UNK        -0.5000 
     32 CA          0.2999  -16.6282  -44.2029 C.3       8 UNK         0.1400 
     33 CB          0.6422  -15.1330  -44.1338 C.3       8 UNK        -0.1800 
     34 N           1.1985  -17.3745  -43.3222 N.am      8 UNK        -0.5000 
     35 C           1.2807  -18.7110  -43.2689 C.2       7 UNK         0.5000 
     36 O           0.5712  -19.4679  -43.9277 O.2       7 UNK        -0.5000 
     37 CA          2.3001  -19.2998  -42.2829 C.3       7 UNK         0.1400 
     38 CB          3.7227  -19.2379  -42.8604 C.3       7 UNK        -0.1800 
     39 N           2.2543  -18.5925  -41.0049 N.am      7 UNK        -0.5000 
     40 C           1.3528  -18.8351  -40.0434 C.2       6 UNK         0.5000 
     41 O           0.5138  -19.7342  -40.1036 O.2       6 UNK        -0.5000 
     42 CA          1.3790  -17.9083  -38.8119 C.3       6 UNK         0.1400 
     43 CB          2.3222  -18.4685  -37.7366 C.3       6 UNK        -0.1800 
     44 N           1.7753  -16.5345  -39.1274 N.am      6 UNK        -0.5000 
     45 C           1.0576  -15.6911  -39.8822 C.2       5 UNK         0.5000 
     46 O          -0.0303  -15.9770  -40.3793 O.2       5 UNK        -0.5000 
     47 CA          1.6823  -14.3123  -40.1700 C.3       5 UNK         0.1400 
     48 CB          1.3125  -13.3152  -39.0618 C.3       5 UNK        -0.1800 
     49 N           3.1397  -14.3294  -40.3389 N.am      5 UNK        -0.5000 
     50 C           3.8101  -15.0817  -41.2221 C.2       4 UNK         0.5000 
     51 O           3.2774  -15.9271  -41.9443 O.2       4 UNK        -0.5000 
     52 CA          5.3383  -14.8947  -41.2535 C.3       4 UNK         0.1400 
     53 CB          5.9926  -15.7189  -40.1334 C.3       4 UNK        -0.1800 
     54 N           5.9277  -15.2973  -42.5311 N.am      4 UNK        -0.5000 
     55 C           5.7036  -14.7060  -43.7123 C.2       3 UNK         0.5000 
     56 O           5.0183  -13.6880  -43.8429 O.2       3 UNK        -0.5000 
     57 CA          6.3961  -15.3411  -44.9368 C.3       3 UNK         0.1400 
     58 CB          6.4839  -16.8783  -44.8516 C.3       3 UNK        -0.1800 
     59 N           5.7025  -14.9824  -46.1728 N.am      3 UNK        -0.5000 
     60 C           6.0486  -13.9775  -46.9890 C.2       2 UNK         0.5000 
     61 O           7.0144  -13.2402  -46.7826 O.2       2 UNK        -0.5000 
     62 CA          5.2098  -13.7646  -48.2675 C.3       2 UNK         0.1400 
     63 CB          6.0841  -13.9298  -49.5224 C.3       2 UNK        -0.1800 
     64 N           4.0822  -14.6926  -48.3717 N.am      2 UNK        -0.5000 
     65 C           2.8251  -14.4261  -47.9933 C.2       1 UNK         0.5000 
     66 O           2.4611  -13.3384  -47.5454 O.2       1 UNK        -0.5000 
     67 C          -3.4715  -22.1027  -47.6494 C.2       11 UNK         0.5000 
     68 O          -3.0202  -21.9684  -48.7885 O.2       11 UNK        -0.5000 
     69 N          -3.6348  -23.2914  -47.0518 N.am      12 UNK        -0.5000 
     70 CA         -3.2402  -24.5742  -47.6333 C.3       12 UNK         0.1400 
     71 CB         -4.0641  -25.6970  -46.9870 C.3       12 UNK        -0.1800 
     72 C          -1.7334  -24.8533  -47.4858 C.2       12 UNK         0.5000 
     73 O          -1.1456  -25.4492  -48.3872 O.2       12 UNK        -0.5000 
     74 N          -1.1257  -24.3979  -46.3800 N.am      13 UNK        -0.5000 
     75 CA          0.3151  -24.5050  -46.1241 C.3       13 UNK         0.1400 
     76 CB          0.5932  -24.3308  -44.6243 C.3       13 UNK        -0.1800 
     77 C           1.1083  -23.4754  -46.9468 C.2       13 UNK         0.5000 
     78 O           2.1901  -23.7885  -47.4435 O.2       13 UNK        -0.5000 
     79 N           0.5175  -22.2857  -47.1264 N.am      14 UNK        -0.5000 
     80 CA          0.9674  -21.2393  -48.0445 C.3       14 UNK         0.1400 
     81 CB          0.2013  -19.9463  -47.7245 C.3       14 UNK        -0.1800 
     82 C           0.7910  -21.6149  -49.5310 C.2       14 UNK         0.5000 
     83 O           1.3544  -20.9428  -50.3940 O.2       14 UNK        -0.5000 
     84 N           0.0068  -22.6714  -49.7904 N.am      15 UNK        -0.5000 
     85 CA         -0.3161  -23.2931  -51.0764 C.3       15 UNK         0.1400 
     86 CB          0.9541  -23.7578  -51.8160 C.3       15 UNK        -0.1800 
     87 C          -1.2424  -22.4582  -51.9788 C.2       15 UNK         0.5000 
     88 O          -1.5344  -22.8909  -53.0929 O.2       15 UNK        -0.5000 
     89 N          -1.7412  -21.3183  -51.4845 N.am      16 UNK        -0.5000 
     90 CA         -2.6780  -20.4450  -52.1890 C.3       16 UNK         0.1400 
     91 CB         -2.8469  -19.1366  -51.4054 C.3       16 UNK        -0.1800 
     92 C          -4.0358  -21.1261  -52.4213 C.2       16 UNK         0.5000 
     93 O          -4.5683  -21.0638  -53.5303 O.2       16 UNK        -0.5000 
     94 N          -4.5393  -21.8158  -51.3883 N.am      17 UNK        -0.5000 
     95 CA         -5.7687  -22.6048  -51.4659 C.3       17 UNK         0.1400 
     96 CB         -6.2872  -22.8931  -50.0501 C.3       17 UNK        -0.1800 
     97 C          -5.5759  -23.9148  -52.2516 C.2       17 UNK         0.5000 
     98 O          -6.5116  -24.3644  -52.9123 O.2       17 UNK        -0.5000 
     99 N          -4.3668  -24.4913  -52.1825 N.am      18 UNK        -0.5000 
    100 CA        -3.9932  -25.7270  -52.8748 C.3       18 UNK         0.1400 
    101 CB        -2.6820  -26.2716  -52.2869 C.3       18 UNK        -0.1800 
    102 C         -3.8730  -25.5294  -54.3967 C.2       18 UNK         0.5000 
    103 O         -4.3638  -26.3611  -55.1606 O.2       18 UNK        -0.5000 
    104 N         -3.2515  -24.4153  -54.8068 N.am      19 UNK        -0.5000 
    105 CA        -3.1211  -23.9955  -56.2038 C.3       19 UNK         0.1400 
    106 CB        -1.9710  -22.9807  -56.3056 C.3       19 UNK        -0.1800 
    107 C         -4.4148  -23.3847  -56.7783 C.2       19 UNK         0.5000 
    108 O         -4.5073  -23.2157  -57.9947 O.2       19 UNK        -0.5000 
    109 N         -5.3667  -23.0409  -55.8969 N.am      20 UNK        -0.5000 
    110 CA        -6.6156  -22.3197  -56.1633 C.3       20 UNK         0.1400 
    111 CB        -7.5572  -23.1405  -57.0684 C.3       20 UNK        -0.1800 
    112 C         -6.3657  -20.8865  -56.6797 C.2       20 UNK         0.5000 
    113 O         -7.1364  -20.3681  -57.4901 O.2       20 UNK        -0.5000 
    114 N         -5.2967  -20.2583  -56.1703 N.am      21 UNK        -0.5000 
    115 CA        -4.8884  -18.8852  -56.4729 C.3       21 UNK         0.1400 
    116 CB        -3.4708  -18.6589  -55.9251 C.3       21 UNK        -0.1800 
    117 C         -5.8613  -17.8373  -55.9005 C.2       21 UNK         0.5000 
    118 O         -5.9172  -16.7154  -56.4051 O.2       21 UNK        -0.5000 
    119 N         -6.6172  -18.2337  -54.8700 N.am      22 UNK        -0.5000 
    120 CA        -7.6769  -17.4462  -54.2261 C.3       22 UNK         0.1400 
    121 C         -8.9558  -17.2444  -55.0940 C.2       22 UNK         0.5000 
    122 N         -9.1241  -17.9369  -56.2155 N.am      22 UNK        -0.7600 
    123 O         -9.8129  -16.4385  -54.7425 O.2       22 UNK        -0.5000 
    124 C124       -8.0521  -18.0256  -52.8373 C.3       23 UNK        -0.0398 
    125 S125       -6.6132  -18.3028  -51.7493 S.3       23 UNK        -0.2404 
    126 C126       -6.4417  -16.6572  -50.9983 C.3       23 UNK        -0.0205 
    127 H127        4.5966  -18.8263  -46.6233 H         1 UNK         0.0600 
    128 H128        3.4972  -19.2165  -47.9457 H         1 UNK         0.0600 
    129 H129        2.9720  -19.4191  -46.2651 H         1 UNK         0.0600 
    130 H130        2.2514  -17.5296  -48.7748 H         1 UNK         0.3000 
    131 H131        1.0857  -15.4509  -47.3119 H         1 UNK         0.0600 
    132 H132        0.6692  -14.4073  -49.6019 H         1 UNK         0.0800 
    133 H133        1.6791  -15.6343  -50.3125 H         1 UNK         0.0800 
    134 H134       -1.5921  -14.6933  -48.6121 H         1 UNK         0.0800 
    135 H135       -1.8149  -14.7692  -50.3450 H         1 UNK         0.0800 
    136 H136       -3.9030  -15.6410  -51.1630 H         1 UNK         0.1150 
    137 H137       -6.5899  -17.6270  -48.4875 H         1 UNK         0.1150 
    138 H138       -2.6191  -16.6285  -47.2046 H         1 UNK         0.1150 
    139 H139       -5.2219  -16.9864  -45.6506 H         1 UNK         0.0800 
    140 H140       -3.9502  -18.1561  -45.8631 H         1 UNK         0.0800 
    141 H141       -5.3759  -20.1422  -48.2781 H         1 UNK         0.0800 
    142 H142       -6.0049  -21.3250  -47.1611 H         1 UNK         0.0800 
    143 H143       -3.2322  -20.0472  -47.1615 H         1 UNK         0.0600 
    144 H144       -4.5149  -20.6724  -44.8351 H         1 UNK         0.3000 
    145 H145       -3.5956  -21.4908  -42.8629 H         1 UNK         0.0600 
    146 H146       -1.6665  -23.0793  -42.8115 H         1 UNK         0.0600 
    147 H147       -1.6403  -21.9733  -41.4463 H         1 UNK         0.0600 
    148 H148       -0.5425  -21.7209  -42.7964 H         1 UNK         0.0600 
    149 H149       -1.4187  -19.4651  -42.8508 H         1 UNK         0.3000 
    150 H150       -3.5923  -16.7382  -42.6682 H         1 UNK         0.0600 
    151 H151       -3.9979  -17.5275  -40.3212 H         1 UNK         0.0600 
    152 H152       -2.7931  -16.2517  -40.3822 H         1 UNK         0.0600 
    153 H153       -2.2903  -17.9275  -40.1614 H         1 UNK         0.0600 
    154 H154       -0.8379  -17.0288  -41.9069 H         1 UNK         0.3000 
    155 H155        0.4827  -16.9718  -45.2229 H         1 UNK         0.0600 
    156 H156        0.4428  -14.7242  -43.1440 H         1 UNK         0.0600 
    157 H157        0.0490  -14.5644  -44.8508 H         1 UNK         0.0600 
    158 H158        1.6927  -14.9551  -44.3665 H         1 UNK         0.0600 
    159 H159        1.8603  -16.8266  -42.7781 H         1 UNK         0.3000 
    160 H160        2.0484  -20.3506  -42.1225 H         1 UNK         0.0600 
    161 H161        4.0366  -18.2121  -43.0518 H         1 UNK         0.0600 
    162 H162        3.7832  -19.7794  -43.8050 H         1 UNK         0.0600 
    163 H163        4.4450  -19.6877  -42.1793 H         1 UNK         0.0600 
    164 H164        2.8539  -17.7820  -40.9194 H         1 UNK         0.3000 
    165 H165        0.3681  -17.8806  -38.3993 H         1 UNK         0.0600 
    166 H166        2.2871  -17.8668  -36.8283 H         1 UNK         0.0600 
    167 H167        2.0405  -19.4860  -37.4620 H         1 UNK         0.0600 
    168 H168        3.3563  -18.4961  -38.0826 H         1 UNK         0.0600 
    169 H169        2.6627  -16.2190  -38.7649 H         1 UNK         0.3000 
    170 H170        1.2535  -13.9487  -41.1048 H         1 UNK         0.0600 
    171 H171        1.6547  -12.3091  -39.3050 H         1 UNK         0.0600 
    172 H172        1.7501  -13.5974  -38.1035 H         1 UNK         0.0600 
    173 H173        0.2311  -13.2644  -38.9268 H         1 UNK         0.0600 
    174 H174        3.6583  -13.6786  -39.7668 H         1 UNK         0.3000 
    175 H175        5.5625  -13.8379  -41.0949 H         1 UNK         0.0600 
    176 H176        5.6128  -15.4256  -39.1539 H         1 UNK         0.0600 
    177 H177        5.7993  -16.7859  -40.2539 H         1 UNK         0.0600 
    178 H178        7.0729  -15.5736  -40.1158 H         1 UNK         0.0600 
    179 H179        6.4833  -16.1390  -42.5165 H         1 UNK         0.3000 
    180 H180        7.4169  -14.9547  -44.9608 H         1 UNK         0.0600 
    181 H181        6.8876  -17.2999  -45.7724 H         1 UNK         0.0600 
    182 H182        5.5067  -17.3292  -44.6826 H         1 UNK         0.0600 
    183 H183        7.1418  -17.1990  -44.0436 H         1 UNK         0.0600 
    184 H184        4.8329  -15.4768  -46.3404 H         1 UNK         0.3000 
    185 H185        4.8447  -12.7358  -48.2453 H         1 UNK         0.0600 
    186 H186        5.5092  -13.7456  -50.4301 H         1 UNK         0.0600 
    187 H187        6.9153  -13.2234  -49.5192 H         1 UNK         0.0600 
    188 H188        6.5062  -14.9332  -49.5896 H         1 UNK         0.0600 
    189 H189        4.2919  -15.6180  -48.7175 H         1 UNK         0.3000 
    190 H190       -4.0284  -23.3122  -46.1224 H         1 UNK         0.3000 
    191 H191       -3.4690  -24.5630  -48.7013 H         1 UNK         0.0600 
    192 H192       -5.1314  -25.5442  -47.1485 H         1 UNK         0.0600 
    193 H193       -3.8071  -26.6663  -47.4163 H         1 UNK         0.0600 
    194 H194       -3.8917  -25.7575  -45.9117 H         1 UNK         0.0600 
    195 H195       -1.6558  -23.8391  -45.7262 H         1 UNK         0.3000 
    196 H196        0.6475  -25.5034  -46.4169 H         1 UNK         0.0600 
    197 H197        1.6440  -24.5193  -44.4016 H         1 UNK         0.0600 
    198 H198        0.0029  -25.0249  -44.0259 H         1 UNK         0.0600 
    199 H199        0.3687  -23.3185  -44.2906 H         1 UNK         0.0600 
    200 H200       -0.3252  -22.0833  -46.5910 H         1 UNK         0.3000 
    201 H201        2.0314  -21.0754  -47.8731 H         1 UNK         0.0600 
    202 H202        0.5379  -19.1273  -48.3587 H         1 UNK         0.0600 
    203 H203        0.3522  -19.6397  -46.6892 H         1 UNK         0.0600 
    204 H204       -0.8706  -20.0638  -47.8844 H         1 UNK         0.0600 
    205 H205       -0.4141  -23.1219  -48.9903 H         1 UNK         0.3000 
    206 H206       -0.8855  -24.1871  -50.8228 H         1 UNK         0.0600 
    207 H207        1.5854  -24.3675  -51.1695 H         1 UNK         0.0600 
    208 H208        0.6995  -24.3653  -52.6853 H         1 UNK         0.0600 
    209 H209        1.5485  -22.9164  -52.1724 H         1 UNK         0.0600 
    210 H210       -1.5109  -21.0716  -50.5327 H         1 UNK         0.3000 
    211 H211       -2.2496  -20.2086  -53.1651 H         1 UNK         0.0600 
    212 H212       -3.2663  -19.3055  -50.4124 H         1 UNK         0.0600 
    213 H213       -3.5139  -18.4532  -51.9318 H         1 UNK         0.0600 
    214 H214       -1.8926  -18.6252  -51.2827 H         1 UNK         0.0600 
    215 H215       -4.0236  -21.8320  -50.5139 H         1 UNK         0.3000 
    216 H216       -6.5257  -22.0142  -51.9870 H         1 UNK         0.0600 
    217 H217       -5.5631  -23.4528  -49.4586 H         1 UNK         0.0600 
    218 H218       -7.2059  -23.4801  -50.0834 H         1 UNK         0.0600 
    219 H219       -6.5168  -21.9678  -49.5235 H         1 UNK         0.0600 
    220 H220       -3.6493  -24.0331  -51.6432 H         1 UNK         0.3000 
    221 H221       -4.7767  -26.4657  -52.6925 H         1 UNK         0.0600 
    222 H222       -1.8383  -25.6158  -52.5007 H         1 UNK         0.0600 
    223 H223       -2.7499  -26.3944  -51.2056 H         1 UNK         0.0600 
    224 H224       -2.4463  -27.2486  -52.7105 H         1 UNK         0.0600 
    225 H225       -2.8105  -23.8109  -54.1172 H         1 UNK         0.3000 
    226 H226       -2.8665  -24.8664  -56.8111 H         1 UNK         0.0600 
    227 H227       -1.0360  -23.4057  -55.9400 H         1 UNK         0.0600 
    228 H228       -1.8066  -22.6743  -57.3394 H         1 UNK         0.0600 
    229 H229       -2.1787  -22.0805  -55.7250 H         1 UNK         0.0600 
    230 H230       -5.1689  -23.2142  -54.9215 H         1 UNK         0.3000 
    231 H231       -7.1077  -22.2083  -55.1960 H         1 UNK         0.0600 
    232 H232       -7.1711  -23.2305  -58.0839 H         1 UNK         0.0600 
    233 H233       -8.5397  -22.6718  -57.1347 H         1 UNK         0.0600 
    234 H234       -7.7041  -24.1459  -56.6738 H         1 UNK         0.0600 
    235 H235       -4.7850  -20.7243  -55.4266 H         1 UNK         0.3000 
    236 H236       -4.8665  -18.7658  -57.5580 H         1 UNK         0.0600 
    237 H237       -3.4434  -18.7428  -54.8381 H         1 UNK         0.0600 
    238 H238       -2.7670  -19.3829  -56.3363 H         1 UNK         0.0600 
    239 H239       -3.1058  -17.6649  -56.1862 H         1 UNK         0.0600 
    240 H240       -6.4668  -19.1612  -54.5011 H         1 UNK         0.3000 
    241 H241       -7.2713  -16.4462  -54.0628 H         1 UNK         0.0600 
    242 H242       -9.9557  -17.7909  -56.7661 H         1 UNK         0.3800 
    243 H243       -8.4275  -18.5978  -56.5291 H         1 UNK         0.3800 
    244 H244       -8.5602  -18.9840  -52.9570 H         1 UNK         0.0800 
    245 H245       -8.7613  -17.3727  -52.3254 H         1 UNK         0.0800 
    246 H246       -6.2218  -15.9246  -51.7762 H         1 UNK         0.0800 
    247 H247       -7.3887  -16.3583  -50.5465 H         1 UNK         0.0800 
@<TRIPOS>BOND
     1    1    2 1    
     2    1  127 1    
     3    1  128 1    
     4    1  129 1    
     5    2    3 2    
     6    2    4 am   BACKBONE|DICT|INTERRES
     7    4    5 1    
     8    4  130 1    
     9    5    6 1    
    10    5   65 1    
    11    5  131 1    
    12    6    7 1    
    13    6  132 1    
    14    6  133 1    
    15    7    8 1    
    16    8    9 1    
    17    8  134 1    
    18    8  135 1    
    19    9   10 ar   
    20    9   14 ar   
    21   10   11 ar   
    22   10  136 1    
    23   11   12 ar   
    24   11  126 1    
    25   12   13 ar   
    26   12  137 1    
    27   13   14 ar   
    28   13   15 1    
    29   14  138 1    
    30   15   16 1    
    31   15  139 1    
    32   15  140 1    
    33   16   17 1    
    34   17   18 1    
    35   17  141 1    
    36   17  142 1    
    37   18   19 1    
    38   18   67 1    
    39   18  143 1    
    40   19   20 am   BACKBONE|DICT|INTERRES
    41   19  144 1    
    42   20   21 2    
    43   20   22 1    
    44   22   23 1    
    45   22   24 1    
    46   22  145 1    
    47   23  146 1    
    48   23  147 1    
    49   23  148 1    
    50   24   25 am   BACKBONE|DICT|INTERRES
    51   24  149 1    
    52   25   26 2    
    53   25   27 1    
    54   27   28 1    
    55   27   29 1    
    56   27  150 1    
    57   28  151 1    
    58   28  152 1    
    59   28  153 1    
    60   29   30 am   BACKBONE|DICT|INTERRES
    61   29  154 1    
    62   30   31 2    
    63   30   32 1    
    64   32   33 1    
    65   32   34 1    
    66   32  155 1    
    67   33  156 1    
    68   33  157 1    
    69   33  158 1    
    70   34   35 am   BACKBONE|DICT|INTERRES
    71   34  159 1    
    72   35   36 2    
    73   35   37 1    
    74   37   38 1    
    75   37   39 1    
    76   37  160 1    
    77   38  161 1    
    78   38  162 1    
    79   38  163 1    
    80   39   40 am   BACKBONE|DICT|INTERRES
    81   39  164 1    
    82   40   41 2    
    83   40   42 1    
    84   42   43 1    
    85   42   44 1    
    86   42  165 1    
    87   43  166 1    
    88   43  167 1    
    89   43  168 1    
    90   44   45 am   BACKBONE|DICT|INTERRES
    91   44  169 1    
    92   45   46 2    
    93   45   47 1    
    94   47   48 1    
    95   47   49 1    
    96   47  170 1    
    97   48  171 1    
    98   48  172 1    
    99   48  173 1    
   100   49   50 am   BACKBONE|DICT|INTERRES
   101   49  174 1    
   102   50   51 2    
   103   50   52 1    
   104   52   53 1    
   105   52   54 1    
   106   52  175 1    
   107   53  176 1    
   108   53  177 1    
   109   53  178 1    
   110   54   55 am   BACKBONE|DICT|INTERRES
   111   54  179 1    
   112   55   56 2    
   113   55   57 1    
   114   57   58 1    
   115   57   59 1    
   116   57  180 1    
   117   58  181 1    
   118   58  182 1    
   119   58  183 1    
   120   59   60 am   BACKBONE|DICT|INTERRES
   121   59  184 1    
   122   60   61 2    
   123   60   62 1    
   124   62   63 1    
   125   62   64 1    
   126   62  185 1    
   127   63  186 1    
   128   63  187 1    
   129   63  188 1    
   130   64   65 am   BACKBONE|DICT|INTERRES
   131   64  189 1    
   132   65   66 2    
   133   67   68 2    
   134   67   69 am   BACKBONE|DICT|INTERRES
   135   69   70 1    
   136   69  190 1    
   137   70   71 1    
   138   70   72 1    
   139   70  191 1    
   140   71  192 1    
   141   71  193 1    
   142   71  194 1    
   143   72   73 2    
   144   72   74 am   BACKBONE|DICT|INTERRES
   145   74   75 1    
   146   74  195 1    
   147   75   76 1    
   148   75   77 1    
   149   75  196 1    
   150   76  197 1    
   151   76  198 1    
   152   76  199 1    
   153   77   78 2    
   154   77   79 am   BACKBONE|DICT|INTERRES
   155   79   80 1    
   156   79  200 1    
   157   80   81 1    
   158   80   82 1    
   159   80  201 1    
   160   81  202 1    
   161   81  203 1    
   162   81  204 1    
   163   82   83 2    
   164   82   84 am   BACKBONE|DICT|INTERRES
   165   84   85 1    
   166   84  205 1    
   167   85   86 1    
   168   85   87 1    
   169   85  206 1    
   170   86  207 1    
   171   86  208 1    
   172   86  209 1    
   173   87   88 2    
   174   87   89 am   BACKBONE|DICT|INTERRES
   175   89   90 1    
   176   89  210 1    
   177   90   91 1    
   178   90   92 1    
   179   90  211 1    
   180   91  212 1    
   181   91  213 1    
   182   91  214 1    
   183   92   93 2    
   184   92   94 am   BACKBONE|DICT|INTERRES
   185   94   95 1    
   186   94  215 1    
   187   95   96 1    
   188   95   97 1    
   189   95  216 1    
   190   96  217 1    
   191   96  218 1    
   192   96  219 1    
   193   97   98 2    
   194   97   99 am   BACKBONE|DICT|INTERRES
   195   99  100 1    
   196   99  220 1    
   197  100  101 1    
   198  100  102 1    
   199  100  221 1    
   200  101  222 1    
   201  101  223 1    
   202  101  224 1    
   203  102  103 2    
   204  102  104 am   BACKBONE|DICT|INTERRES
   205  104  105 1    
   206  104  225 1    
   207  105  106 1    
   208  105  107 1    
   209  105  226 1    
   210  106  227 1    
   211  106  228 1    
   212  106  229 1    
   213  107  108 2    
   214  107  109 am   BACKBONE|DICT|INTERRES
   215  109  110 1    
   216  109  230 1    
   217  110  111 1    
   218  110  112 1    
   219  110  231 1    
   220  111  232 1    
   221  111  233 1    
   222  111  234 1    
   223  112  113 2    
   224  112  114 am   BACKBONE|DICT|INTERRES
   225  114  115 1    
   226  114  235 1    
   227  115  116 1    
   228  115  117 1    
   229  115  236 1    
   230  116  237 1    
   231  116  238 1    
   232  116  239 1    
   233  117  118 2    
   234  117  119 am   BACKBONE|DICT|INTERRES
   235  119  120 1    
   236  119  240 1    
   237  120  121 1    
   238  120  124 1    
   239  120  241 1    
   240  121  122 am   BACKBONE|DICT|INTERRES
   241  121  123 2    
   242  122  242 1    
   243  122  243 1    
   244  124  125 1    
   245  124  244 1    
   246  124  245 1    
   247  125  126 1    
   248  126  246 1    
   249  126  247 1    
@<TRIPOS>SUBSTRUCTURE
     1 UNK         1 GROUP             0       ****    0 ROOT    
