@<TRIPOS>MOLECULE
3R540
247   249    1
SMALL
USER_CHARGES


@<TRIPOS>ATOM
      1 CA          1.5610  -10.2094  -49.0241 C.3       0 UNK        -0.1800 
      2 C           2.1137  -11.6268  -49.0316 C.2       0 UNK         0.5000 
      3 O           2.8244  -12.0136  -48.1061 O.2       0 UNK        -0.5000 
      4 N           1.7788  -12.4119  -50.0621 N.am      1 UNK        -0.5000 
      5 CA          2.2070  -13.8056  -50.2550 C.3       1 UNK         0.1400 
      6 C6          1.8416  -14.3351  -51.6637 C.3       23 UNK        -0.0398 
      7 S7          0.1149  -13.9960  -52.1637 S.3       23 UNK        -0.2404 
      8 C8         -0.4863  -15.6505  -52.6102 C.3       23 UNK        -0.0205 
      9 C9         -0.9597  -16.4448  -51.4033 C.ar      23 UNK        -0.0193 
     10 C10        -2.2141  -16.1832  -50.8474 C.ar      23 UNK        -0.1150 
     11 C11        -2.7266  -16.9918  -49.8281 C.ar      23 UNK        -0.0193 
     12 C12        -1.9553  -18.0526  -49.3431 C.ar      23 UNK        -0.1150 
     13 C13        -0.6809  -18.3009  -49.8653 C.ar      23 UNK        -0.0193 
     14 C14        -0.1872  -17.4898  -50.8916 C.ar      23 UNK        -0.1150 
     15 C15         0.1356  -19.4910  -49.3853 C.3       23 UNK        -0.0205 
     16 S16         1.1682  -19.1070  -47.9317 S.3       23 UNK        -0.2404 
     17 C17         0.0101  -19.3759  -46.5481 C.3       23 UNK        -0.0398 
     18 CA          0.0789  -20.8146  -45.9724 C.3       11 UNK         0.1400 
     19 N          -0.4468  -20.8917  -44.6102 N.am      11 UNK        -0.5000 
     20 C          -0.3764  -21.9684  -43.8137 C.2       10 UNK         0.5000 
     21 O           0.2330  -22.9987  -44.0992 O.2       10 UNK        -0.5000 
     22 CA         -1.1689  -21.8958  -42.4966 C.3       10 UNK         0.1400 
     23 CB         -0.3373  -21.2356  -41.3853 C.3       10 UNK        -0.1800 
     24 N          -2.4351  -21.1787  -42.6636 N.am      10 UNK        -0.5000 
     25 C          -3.4737  -21.6406  -43.3759 C.2       9 UNK         0.5000 
     26 O          -3.4907  -22.7431  -43.9220 O.2       9 UNK        -0.5000 
     27 CA         -4.6761  -20.6933  -43.5410 C.3       9 UNK         0.1400 
     28 CB         -5.5987  -20.7691  -42.3157 C.3       9 UNK        -0.1800 
     29 N          -4.2725  -19.3030  -43.7589 N.am      9 UNK        -0.5000 
     30 C          -3.6394  -18.8571  -44.8532 C.2       8 UNK         0.5000 
     31 O          -3.3685  -19.5648  -45.8221 O.2       8 UNK        -0.5000 
     32 CA         -3.1958  -17.3829  -44.8435 C.3       8 UNK         0.1400 
     33 CB         -4.3440  -16.4765  -45.3125 C.3       8 UNK        -0.1800 
     34 N          -2.7266  -16.9288  -43.5306 N.am      8 UNK        -0.5000 
     35 C          -1.6967  -17.4651  -42.8635 C.2       7 UNK         0.5000 
     36 O          -1.0176  -18.4025  -43.2916 O.2       7 UNK        -0.5000 
     37 CA         -1.4292  -16.9135  -41.4577 C.3       7 UNK         0.1400 
     38 CB         -2.5010  -17.4108  -40.4680 C.3       7 UNK        -0.1800 
     39 N          -0.1119  -17.3669  -41.0316 N.am      7 UNK        -0.5000 
     40 C           0.6222  -16.8539  -40.0393 C.2       6 UNK         0.5000 
     41 O           0.2505  -15.9190  -39.3284 O.2       6 UNK        -0.5000 
     42 CA          2.0062  -17.4904  -39.7883 C.3       6 UNK         0.1400 
     43 CB          1.9339  -18.4654  -38.6025 C.3       6 UNK        -0.1800 
     44 N           2.5714  -18.1984  -40.9429 N.am      6 UNK        -0.5000 
     45 C           2.9337  -17.6196  -42.0952 C.2       5 UNK         0.5000 
     46 O           2.8125  -16.4117  -42.3138 O.2       5 UNK        -0.5000 
     47 CA          3.5231  -18.5509  -43.1709 C.3       5 UNK         0.1400 
     48 CB          2.5359  -19.6645  -43.5487 C.3       5 UNK        -0.1800 
     49 N           3.8173  -17.7704  -44.3665 N.am      5 UNK        -0.5000 
     50 C           4.9997  -17.6908  -44.9879 C.2       4 UNK         0.5000 
     51 O           5.9715  -18.3932  -44.7062 O.2       4 UNK        -0.5000 
     52 CA          5.1290  -16.6302  -46.1036 C.3       4 UNK         0.1400 
     53 CB          5.0305  -17.2905  -47.4867 C.3       4 UNK        -0.1800 
     54 N           4.1185  -15.5731  -46.0057 N.am      4 UNK        -0.5000 
     55 C           4.0516  -14.6696  -45.0149 C.2       3 UNK         0.5000 
     56 O           4.9459  -14.5228  -44.1805 O.2       3 UNK        -0.5000 
     57 CA          2.7772  -13.8044  -44.9123 C.3       3 UNK         0.1400 
     58 CB          3.1215  -12.3076  -44.8369 C.3       3 UNK        -0.1800 
     59 N           1.8247  -14.0320  -46.0030 N.am      3 UNK        -0.5000 
     60 C           0.9766  -15.0701  -46.0817 C.2       2 UNK         0.5000 
     61 O           0.9076  -15.9533  -45.2278 O.2       2 UNK        -0.5000 
     62 CA          0.0740  -15.1566  -47.3311 C.3       2 UNK         0.1400 
     63 CB         -1.3245  -14.6065  -47.0172 C.3       2 UNK        -0.1800 
     64 N           0.6073  -14.4451  -48.4938 N.am      2 UNK        -0.5000 
     65 C           1.7394  -14.7632  -49.1370 C.2       1 UNK         0.5000 
     66 O           2.4407  -15.7294  -48.8393 O.2       1 UNK        -0.5000 
     67 C          -0.6295  -21.8409  -46.8766 C.2       11 UNK         0.5000 
     68 O           0.0408  -22.6859  -47.4662 O.2       11 UNK        -0.5000 
     69 N          -1.9696  -21.7850  -46.9177 N.am      12 UNK        -0.5000 
     70 CA         -2.8313  -22.6689  -47.7062 C.3       12 UNK         0.1400 
     71 CB         -4.2931  -22.2391  -47.5300 C.3       12 UNK        -0.1800 
     72 C          -2.6640  -24.1649  -47.3831 C.2       12 UNK         0.5000 
     73 O          -2.7540  -24.9927  -48.2899 O.2       12 UNK        -0.5000 
     74 N          -2.3994  -24.4808  -46.1080 N.am      13 UNK        -0.5000 
     75 CA         -2.0852  -25.8282  -45.6345 C.3       13 UNK         0.1400 
     76 CB         -2.1211  -25.8477  -44.0989 C.3       13 UNK        -0.1800 
     77 C          -0.7331  -26.3583  -46.1532 C.2       13 UNK         0.5000 
     78 O          -0.5961  -27.5693  -46.3324 O.2       13 UNK        -0.5000 
     79 N           0.2337  -25.4602  -46.3900 N.am      14 UNK        -0.5000 
     80 CA          1.5330  -25.7869  -46.9753 C.3       14 UNK         0.1400 
     81 CB          2.5782  -24.7419  -46.5515 C.3       14 UNK        -0.1800 
     82 C           1.4414  -25.9034  -48.5070 C.2       14 UNK         0.5000 
     83 O           1.9237  -26.8891  -49.0669 O.2       14 UNK        -0.5000 
     84 N           0.8041  -24.9195  -49.1537 N.am      15 UNK        -0.5000 
     85 CA          0.5440  -24.8877  -50.5900 C.3       15 UNK         0.1400 
     86 CB          1.8125  -24.4772  -51.3603 C.3       15 UNK        -0.1800 
     87 C          -0.6014  -23.9071  -50.8670 C.2       15 UNK         0.5000 
     88 O          -0.5678  -22.7830  -50.3684 O.2       15 UNK        -0.5000 
     89 N          -1.5824  -24.3319  -51.6744 N.am      16 UNK        -0.5000 
     90 CA         -2.7875  -23.5594  -51.9970 C.3       16 UNK         0.1400 
     91 CB         -3.7558  -24.4484  -52.7922 C.3       16 UNK        -0.1800 
     92 C          -2.5216  -22.2489  -52.7634 C.2       16 UNK         0.5000 
     93 O          -3.3091  -21.3110  -52.6282 O.2       16 UNK        -0.5000 
     94 N          -1.4313  -22.2215  -53.5456 N.am      17 UNK        -0.5000 
     95 CA         -0.9637  -21.1211  -54.3963 C.3       17 UNK         0.1400 
     96 CB         -0.6375  -19.8784  -53.5367 C.3       17 UNK        -0.1800 
     97 C          -1.9318  -20.7855  -55.5526 C.2       17 UNK         0.5000 
     98 O          -2.9907  -21.4023  -55.6951 O.2       17 UNK        -0.5000 
     99 N          -1.5553  -19.7908  -56.3682 N.am      18 UNK        -0.5000 
    100 CA        -2.3643  -19.2695  -57.4772 C.3       18 UNK         0.1400 
    101 CB        -1.5105  -18.2950  -58.3029 C.3       18 UNK        -0.1800 
    102 C         -3.6690  -18.5865  -57.0155 C.2       18 UNK         0.5000 
    103 O         -4.6225  -18.5035  -57.7900 O.2       18 UNK        -0.5000 
    104 N         -3.6889  -18.1303  -55.7560 N.am      19 UNK        -0.5000 
    105 CA        -4.8453  -17.5445  -55.0806 C.3       19 UNK         0.1400 
    106 CB        -4.3331  -16.6883  -53.9168 C.3       19 UNK        -0.1800 
    107 C         -5.8854  -18.5885  -54.6101 C.2       19 UNK         0.5000 
    108 O         -6.9921  -18.1968  -54.2392 O.2       19 UNK        -0.5000 
    109 N         -5.5342  -19.8829  -54.6745 N.am      20 UNK        -0.5000 
    110 CA        -6.3927  -21.0540  -54.4811 C.3       20 UNK         0.1400 
    111 CB        -7.4737  -21.1208  -55.5811 C.3       20 UNK        -0.1800 
    112 C         -6.9687  -21.1888  -53.0562 C.2       20 UNK         0.5000 
    113 O         -8.1879  -21.2078  -52.8754 O.2       20 UNK        -0.5000 
    114 N         -6.0626  -21.3408  -52.0813 N.am      21 UNK        -0.5000 
    115 CA        -6.3115  -21.7425  -50.6922 C.3       21 UNK         0.1400 
    116 CB        -6.8286  -23.1954  -50.6272 C.3       21 UNK        -0.1800 
    117 C         -7.1895  -20.7542  -49.8973 C.2       21 UNK         0.5000 
    118 O         -8.1663  -21.1493  -49.2587 O.2       21 UNK        -0.5000 
    119 N         -6.7956  -19.4792  -49.9370 N.am      22 UNK        -0.5000 
    120 CA        -7.3731  -18.3582  -49.1723 C.3       22 UNK         0.1400 
    121 C         -7.1648  -18.4119  -47.6287 C.2       22 UNK         0.5000 
    122 N         -6.3300  -19.2910  -47.0931 N.am      22 UNK        -0.7600 
    123 O         -7.7847  -17.6428  -46.8998 O.2       22 UNK        -0.5000 
    124 C124       -6.9573  -16.9725  -49.7537 C.3       23 UNK        -0.0398 
    125 S125       -5.3541  -16.9497  -50.6284 S.3       23 UNK        -0.2404 
    126 C126       -4.1336  -16.7513  -49.2963 C.3       23 UNK        -0.0205 
    127 H127        0.9771  -10.0396  -48.1195 H         1 UNK         0.0600 
    128 H128        0.9188  -10.0201  -49.8847 H         1 UNK         0.0600 
    129 H129        2.3787   -9.4890  -49.0437 H         1 UNK         0.0600 
    130 H130        1.1745  -12.0496  -50.7868 H         1 UNK         0.3000 
    131 H131        3.2976  -13.8002  -50.1940 H         1 UNK         0.0600 
    132 H132        2.4856  -13.8525  -52.3999 H         1 UNK         0.0800 
    133 H133        2.0617  -15.4010  -51.7466 H         1 UNK         0.0800 
    134 H134       -1.3197  -15.5365  -53.3046 H         1 UNK         0.0800 
    135 H135        0.2841  -16.1939  -53.1594 H         1 UNK         0.0800 
    136 H136       -2.8174  -15.3797  -51.2462 H         1 UNK         0.1150 
    137 H137       -2.3600  -18.7007  -48.5792 H         1 UNK         0.1150 
    138 H138        0.7828  -17.7000  -51.3193 H         1 UNK         0.1150 
    139 H139       -0.5278  -20.3302  -49.1818 H         1 UNK         0.0800 
    140 H140        0.7914  -19.8324  -50.1875 H         1 UNK         0.0800 
    141 H141       -1.0012  -19.1025  -46.8408 H         1 UNK         0.0800 
    142 H142        0.2883  -18.6582  -45.7755 H         1 UNK         0.0800 
    143 H143        1.1303  -21.1040  -45.9136 H         1 UNK         0.0600 
    144 H144       -0.9096  -20.0612  -44.2534 H         1 UNK         0.3000 
    145 H145       -1.3963  -22.9183  -42.1875 H         1 UNK         0.0600 
    146 H146       -0.8880  -21.2034  -40.4451 H         1 UNK         0.0600 
    147 H147        0.5811  -21.7956  -41.2048 H         1 UNK         0.0600 
    148 H148       -0.0513  -20.2167  -41.6410 H         1 UNK         0.0600 
    149 H149       -2.4811  -20.2439  -42.2883 H         1 UNK         0.3000 
    150 H150       -5.2424  -21.0243  -44.4139 H         1 UNK         0.0600 
    151 H151       -5.9278  -21.7939  -42.1384 H         1 UNK         0.0600 
    152 H152       -6.4930  -20.1621  -42.4579 H         1 UNK         0.0600 
    153 H153       -5.0983  -20.4233  -41.4103 H         1 UNK         0.0600 
    154 H154       -4.4597  -18.6510  -43.0119 H         1 UNK         0.3000 
    155 H155       -2.3669  -17.2891  -45.5476 H         1 UNK         0.0600 
    156 H156       -5.1898  -16.5086  -44.6247 H         1 UNK         0.0600 
    157 H157       -4.0235  -15.4385  -45.3986 H         1 UNK         0.0600 
    158 H158       -4.7126  -16.7830  -46.2908 H         1 UNK         0.0600 
    159 H159       -3.2408  -16.1689  -43.1087 H         1 UNK         0.3000 
    160 H160       -1.4375  -15.8227  -41.5054 H         1 UNK         0.0600 
    161 H161       -2.5035  -18.4991  -40.3932 H         1 UNK         0.0600 
    162 H162       -3.5000  -17.0987  -40.7741 H         1 UNK         0.0600 
    163 H163       -2.3352  -17.0103  -39.4680 H         1 UNK         0.0600 
    164 H164        0.2807  -18.0910  -41.6188 H         1 UNK         0.3000 
    165 H165        2.6911  -16.6817  -39.5249 H         1 UNK         0.0600 
    166 H166        2.9199  -18.8568  -38.3512 H         1 UNK         0.0600 
    167 H167        1.5467  -17.9699  -37.7111 H         1 UNK         0.0600 
    168 H168        1.2796  -19.3114  -38.8178 H         1 UNK         0.0600 
    169 H169        2.7098  -19.1920  -40.8301 H         1 UNK         0.3000 
    170 H170        4.4341  -18.9959  -42.7658 H         1 UNK         0.0600 
    171 H171        2.3665  -20.3511  -42.7193 H         1 UNK         0.0600 
    172 H172        1.5726  -19.2456  -43.8360 H         1 UNK         0.0600 
    173 H173        2.9087  -20.2568  -44.3843 H         1 UNK         0.0600 
    174 H174        3.0987  -17.1046  -44.6222 H         1 UNK         0.3000 
    175 H175        6.1151  -16.1706  -46.0111 H         1 UNK         0.0600 
    176 H176        5.7912  -18.0626  -47.6078 H         1 UNK         0.0600 
    177 H177        4.0577  -17.7604  -47.6379 H         1 UNK         0.0600 
    178 H178        5.1770  -16.5614  -48.2838 H         1 UNK         0.0600 
    179 H179        3.3654  -15.6097  -46.6809 H         1 UNK         0.3000 
    180 H180        2.2882  -14.0763  -43.9743 H         1 UNK         0.0600 
    181 H181        3.7346  -11.9911  -45.6805 H         1 UNK         0.0600 
    182 H182        3.6829  -12.0841  -43.9289 H         1 UNK         0.0600 
    183 H183        2.2224  -11.6915  -44.8211 H         1 UNK         0.0600 
    184 H184        1.8742  -13.3762  -46.7746 H         1 UNK         0.3000 
    185 H185       -0.0214  -16.2120  -47.5945 H         1 UNK         0.0600 
    186 H186       -1.7362  -15.0739  -46.1236 H         1 UNK         0.0600 
    187 H187       -1.3027  -13.5309  -46.8390 H         1 UNK         0.0600 
    188 H188       -2.0168  -14.7990  -47.8366 H         1 UNK         0.0600 
    189 H189        0.0948  -13.6342  -48.8073 H         1 UNK         0.3000 
    190 H190       -2.4442  -21.0481  -46.4006 H         1 UNK         0.3000 
    191 H191       -2.5683  -22.5285  -48.7546 H         1 UNK         0.0600 
    192 H192       -4.5950  -22.2620  -46.4828 H         1 UNK         0.0600 
    193 H193       -4.9662  -22.8984  -48.0784 H         1 UNK         0.0600 
    194 H194       -4.4425  -21.2273  -47.9034 H         1 UNK         0.0600 
    195 H195       -2.4221  -23.7455  -45.4101 H         1 UNK         0.3000 
    196 H196       -2.8638  -26.5013  -45.9995 H         1 UNK         0.0600 
    197 H197       -1.9175  -26.8483  -43.7156 H         1 UNK         0.0600 
    198 H198       -3.0998  -25.5488  -43.7233 H         1 UNK         0.0600 
    199 H199       -1.3782  -25.1745  -43.6707 H         1 UNK         0.0600 
    200 H200        0.0353  -24.4757  -46.2551 H         1 UNK         0.3000 
    201 H201        1.8613  -26.7525  -46.5844 H         1 UNK         0.0600 
    202 H202        2.6448  -24.6704  -45.4657 H         1 UNK         0.0600 
    203 H203        2.3477  -23.7487  -46.9361 H         1 UNK         0.0600 
    204 H204        3.5676  -25.0122  -46.9223 H         1 UNK         0.0600 
    205 H205        0.4396  -24.1248  -48.6282 H         1 UNK         0.3000 
    206 H206        0.2367  -25.8847  -50.9129 H         1 UNK         0.0600 
    207 H207        2.6173  -25.1982  -51.2181 H         1 UNK         0.0600 
    208 H208        1.6171  -24.4177  -52.4316 H         1 UNK         0.0600 
    209 H209        2.1767  -23.5010  -51.0373 H         1 UNK         0.0600 
    210 H210       -1.5355  -25.2668  -52.0530 H         1 UNK         0.3000 
    211 H211       -3.2702  -23.2902  -51.0552 H         1 UNK         0.0600 
    212 H212       -3.3035  -24.8074  -53.7175 H         1 UNK         0.0600 
    213 H213       -4.6596  -23.9019  -53.0643 H         1 UNK         0.0600 
    214 H214       -4.0647  -25.3159  -52.2087 H         1 UNK         0.0600 
    215 H215       -0.8816  -23.0666  -53.5920 H         1 UNK         0.3000 
    216 H216       -0.0367  -21.4682  -54.8545 H         1 UNK         0.0600 
    217 H217       -0.0967  -19.1244  -54.1087 H         1 UNK         0.0600 
    218 H218       -0.0077  -20.1449  -52.6878 H         1 UNK         0.0600 
    219 H219       -1.5372  -19.4043  -53.1423 H         1 UNK         0.0600 
    220 H220       -0.6658  -19.3384  -56.2133 H         1 UNK         0.3000 
    221 H221       -2.6432  -20.1092  -58.1173 H         1 UNK         0.0600 
    222 H222       -1.1860  -17.4403  -57.7079 H         1 UNK         0.0600 
    223 H223       -0.6218  -18.7866  -58.6993 H         1 UNK         0.0600 
    224 H224       -2.0723  -17.9078  -59.1541 H         1 UNK         0.0600 
    225 H225       -2.8544  -18.2406  -55.2001 H         1 UNK         0.3000 
    226 H226       -5.3540  -16.8820  -55.7840 H         1 UNK         0.0600 
    227 H227       -3.6387  -15.9231  -54.2635 H         1 UNK         0.0600 
    228 H228       -5.1577  -16.1716  -53.4257 H         1 UNK         0.0600 
    229 H229       -3.8200  -17.2948  -53.1695 H         1 UNK         0.0600 
    230 H230       -4.5873  -20.1025  -54.9597 H         1 UNK         0.3000 
    231 H231       -5.7434  -21.9193  -54.6244 H         1 UNK         0.0600 
    232 H232       -8.0437  -22.0479  -55.5108 H         1 UNK         0.0600 
    233 H233       -7.0259  -21.0903  -56.5746 H         1 UNK         0.0600 
    234 H234       -8.1828  -20.2958  -55.5076 H         1 UNK         0.0600 
    235 H235       -5.0789  -21.2499  -52.3355 H         1 UNK         0.3000 
    236 H236       -5.3339  -21.7284  -50.2104 H         1 UNK         0.0600 
    237 H237       -7.8067  -23.2993  -51.0975 H         1 UNK         0.0600 
    238 H238       -6.1440  -23.8831  -51.1217 H         1 UNK         0.0600 
    239 H239       -6.9274  -23.5305  -49.5941 H         1 UNK         0.0600 
    240 H240       -6.0019  -19.2327  -50.5124 H         1 UNK         0.3000 
    241 H241       -8.4549  -18.4375  -49.2959 H         1 UNK         0.0600 
    242 H242       -6.2235  -19.3174  -46.0935 H         1 UNK         0.3800 
    243 H243       -5.8096  -19.9256  -47.6720 H         1 UNK         0.3800 
    244 H244       -7.7037  -16.6737  -50.4907 H         1 UNK         0.0800 
    245 H245       -6.9704  -16.1776  -49.0054 H         1 UNK         0.0800 
    246 H246       -4.2054  -15.7486  -48.8734 H         1 UNK         0.0800 
    247 H247       -4.3613  -17.4562  -48.4965 H         1 UNK         0.0800 
@<TRIPOS>BOND
     1    1    2 1    
     2    1  127 1    
     3    1  128 1    
     4    1  129 1    
     5    2    3 2    
     6    2    4 am   BACKBONE|DICT|INTERRES
     7    4    5 1    
     8    4  130 1    
     9    5    6 1    
    10    5   65 1    
    11    5  131 1    
    12    6    7 1    
    13    6  132 1    
    14    6  133 1    
    15    7    8 1    
    16    8    9 1    
    17    8  134 1    
    18    8  135 1    
    19    9   10 ar   
    20    9   14 ar   
    21   10   11 ar   
    22   10  136 1    
    23   11   12 ar   
    24   11  126 1    
    25   12   13 ar   
    26   12  137 1    
    27   13   14 ar   
    28   13   15 1    
    29   14  138 1    
    30   15   16 1    
    31   15  139 1    
    32   15  140 1    
    33   16   17 1    
    34   17   18 1    
    35   17  141 1    
    36   17  142 1    
    37   18   19 1    
    38   18   67 1    
    39   18  143 1    
    40   19   20 am   BACKBONE|DICT|INTERRES
    41   19  144 1    
    42   20   21 2    
    43   20   22 1    
    44   22   23 1    
    45   22   24 1    
    46   22  145 1    
    47   23  146 1    
    48   23  147 1    
    49   23  148 1    
    50   24   25 am   BACKBONE|DICT|INTERRES
    51   24  149 1    
    52   25   26 2    
    53   25   27 1    
    54   27   28 1    
    55   27   29 1    
    56   27  150 1    
    57   28  151 1    
    58   28  152 1    
    59   28  153 1    
    60   29   30 am   BACKBONE|DICT|INTERRES
    61   29  154 1    
    62   30   31 2    
    63   30   32 1    
    64   32   33 1    
    65   32   34 1    
    66   32  155 1    
    67   33  156 1    
    68   33  157 1    
    69   33  158 1    
    70   34   35 am   BACKBONE|DICT|INTERRES
    71   34  159 1    
    72   35   36 2    
    73   35   37 1    
    74   37   38 1    
    75   37   39 1    
    76   37  160 1    
    77   38  161 1    
    78   38  162 1    
    79   38  163 1    
    80   39   40 am   BACKBONE|DICT|INTERRES
    81   39  164 1    
    82   40   41 2    
    83   40   42 1    
    84   42   43 1    
    85   42   44 1    
    86   42  165 1    
    87   43  166 1    
    88   43  167 1    
    89   43  168 1    
    90   44   45 am   BACKBONE|DICT|INTERRES
    91   44  169 1    
    92   45   46 2    
    93   45   47 1    
    94   47   48 1    
    95   47   49 1    
    96   47  170 1    
    97   48  171 1    
    98   48  172 1    
    99   48  173 1    
   100   49   50 am   BACKBONE|DICT|INTERRES
   101   49  174 1    
   102   50   51 2    
   103   50   52 1    
   104   52   53 1    
   105   52   54 1    
   106   52  175 1    
   107   53  176 1    
   108   53  177 1    
   109   53  178 1    
   110   54   55 am   BACKBONE|DICT|INTERRES
   111   54  179 1    
   112   55   56 2    
   113   55   57 1    
   114   57   58 1    
   115   57   59 1    
   116   57  180 1    
   117   58  181 1    
   118   58  182 1    
   119   58  183 1    
   120   59   60 am   BACKBONE|DICT|INTERRES
   121   59  184 1    
   122   60   61 2    
   123   60   62 1    
   124   62   63 1    
   125   62   64 1    
   126   62  185 1    
   127   63  186 1    
   128   63  187 1    
   129   63  188 1    
   130   64   65 am   BACKBONE|DICT|INTERRES
   131   64  189 1    
   132   65   66 2    
   133   67   68 2    
   134   67   69 am   BACKBONE|DICT|INTERRES
   135   69   70 1    
   136   69  190 1    
   137   70   71 1    
   138   70   72 1    
   139   70  191 1    
   140   71  192 1    
   141   71  193 1    
   142   71  194 1    
   143   72   73 2    
   144   72   74 am   BACKBONE|DICT|INTERRES
   145   74   75 1    
   146   74  195 1    
   147   75   76 1    
   148   75   77 1    
   149   75  196 1    
   150   76  197 1    
   151   76  198 1    
   152   76  199 1    
   153   77   78 2    
   154   77   79 am   BACKBONE|DICT|INTERRES
   155   79   80 1    
   156   79  200 1    
   157   80   81 1    
   158   80   82 1    
   159   80  201 1    
   160   81  202 1    
   161   81  203 1    
   162   81  204 1    
   163   82   83 2    
   164   82   84 am   BACKBONE|DICT|INTERRES
   165   84   85 1    
   166   84  205 1    
   167   85   86 1    
   168   85   87 1    
   169   85  206 1    
   170   86  207 1    
   171   86  208 1    
   172   86  209 1    
   173   87   88 2    
   174   87   89 am   BACKBONE|DICT|INTERRES
   175   89   90 1    
   176   89  210 1    
   177   90   91 1    
   178   90   92 1    
   179   90  211 1    
   180   91  212 1    
   181   91  213 1    
   182   91  214 1    
   183   92   93 2    
   184   92   94 am   BACKBONE|DICT|INTERRES
   185   94   95 1    
   186   94  215 1    
   187   95   96 1    
   188   95   97 1    
   189   95  216 1    
   190   96  217 1    
   191   96  218 1    
   192   96  219 1    
   193   97   98 2    
   194   97   99 am   BACKBONE|DICT|INTERRES
   195   99  100 1    
   196   99  220 1    
   197  100  101 1    
   198  100  102 1    
   199  100  221 1    
   200  101  222 1    
   201  101  223 1    
   202  101  224 1    
   203  102  103 2    
   204  102  104 am   BACKBONE|DICT|INTERRES
   205  104  105 1    
   206  104  225 1    
   207  105  106 1    
   208  105  107 1    
   209  105  226 1    
   210  106  227 1    
   211  106  228 1    
   212  106  229 1    
   213  107  108 2    
   214  107  109 am   BACKBONE|DICT|INTERRES
   215  109  110 1    
   216  109  230 1    
   217  110  111 1    
   218  110  112 1    
   219  110  231 1    
   220  111  232 1    
   221  111  233 1    
   222  111  234 1    
   223  112  113 2    
   224  112  114 am   BACKBONE|DICT|INTERRES
   225  114  115 1    
   226  114  235 1    
   227  115  116 1    
   228  115  117 1    
   229  115  236 1    
   230  116  237 1    
   231  116  238 1    
   232  116  239 1    
   233  117  118 2    
   234  117  119 am   BACKBONE|DICT|INTERRES
   235  119  120 1    
   236  119  240 1    
   237  120  121 1    
   238  120  124 1    
   239  120  241 1    
   240  121  122 am   BACKBONE|DICT|INTERRES
   241  121  123 2    
   242  122  242 1    
   243  122  243 1    
   244  124  125 1    
   245  124  244 1    
   246  124  245 1    
   247  125  126 1    
   248  126  246 1    
   249  126  247 1    
@<TRIPOS>SUBSTRUCTURE
     1 UNK         1 GROUP             0       ****    0 ROOT    
