@<TRIPOS>MOLECULE
3R540
247   249    1
SMALL
USER_CHARGES


@<TRIPOS>ATOM
      1 CA         -0.8204  -13.1906  -48.2447 C.3       0 UNK        -0.1800 
      2 C           0.5309  -12.8991  -48.8832 C.2       0 UNK         0.5000 
      3 O           0.5917  -12.6000  -50.0758 O.2       0 UNK        -0.5000 
      4 N           1.6038  -12.9782  -48.0904 N.am      1 UNK        -0.5000 
      5 CA          2.9824  -12.6565  -48.4727 C.3       1 UNK         0.1400 
      6 C6          3.8655  -13.9186  -48.6992 C.3       23 UNK        -0.0398 
      7 S7          3.1581  -15.1615  -49.8361 S.3       23 UNK        -0.2404 
      8 C8          2.6999  -16.4246  -48.6141 C.3       23 UNK        -0.0205 
      9 C9          1.8517  -17.5413  -49.1980 C.ar      23 UNK        -0.0193 
     10 C10         0.5005  -17.3214  -49.4760 C.ar      23 UNK        -0.1150 
     11 C11        -0.3324  -18.3768  -49.8587 C.ar      23 UNK        -0.0193 
     12 C12         0.2095  -19.6636  -49.9676 C.ar      23 UNK        -0.1150 
     13 C13         1.5669  -19.8926  -49.7240 C.ar      23 UNK        -0.0193 
     14 C14         2.3876  -18.8206  -49.3593 C.ar      23 UNK        -0.1150 
     15 C15         2.1211  -21.3118  -49.8001 C.3       23 UNK        -0.0205 
     16 S16         3.0930  -21.8073  -48.3314 S.3       23 UNK        -0.2404 
     17 C17         2.0264  -21.3035  -46.9338 C.3       23 UNK        -0.0398 
     18 CA          1.1801  -22.4463  -46.3330 C.3       11 UNK         0.1400 
     19 N           0.6297  -22.0633  -45.0333 N.am      11 UNK        -0.5000 
     20 C          -0.0168  -22.8808  -44.1926 C.2       10 UNK         0.5000 
     21 O          -0.1914  -24.0816  -44.4000 O.2       10 UNK        -0.5000 
     22 CA         -0.6107  -22.2302  -42.9301 C.3       10 UNK         0.1400 
     23 CB          0.4769  -21.9827  -41.8742 C.3       10 UNK        -0.1800 
     24 N          -1.3052  -20.9753  -43.2245 N.am      10 UNK        -0.5000 
     25 C          -2.4001  -20.8841  -43.9936 C.2       9 UNK         0.5000 
     26 O          -2.9616  -21.8542  -44.5034 O.2       9 UNK        -0.5000 
     27 CA         -2.9370  -19.4695  -44.2723 C.3       9 UNK         0.1400 
     28 CB         -3.7488  -18.9512  -43.0760 C.3       9 UNK        -0.1800 
     29 N          -1.8789  -18.5136  -44.5996 N.am      9 UNK        -0.5000 
     30 C          -1.0772  -18.6011  -45.6703 C.2       8 UNK         0.5000 
     31 O          -1.1543  -19.4931  -46.5115 O.2       8 UNK        -0.5000 
     32 CA          0.0329  -17.5448  -45.7978 C.3       8 UNK         0.1400 
     33 CB         -0.5415  -16.2097  -46.2904 C.3       8 UNK        -0.1800 
     34 N           0.7627  -17.3385  -44.5473 N.am      8 UNK        -0.5000 
     35 C           1.4431  -18.2951  -43.8983 C.2       7 UNK         0.5000 
     36 O           1.5602  -19.4513  -44.3016 O.2       7 UNK        -0.5000 
     37 CA          2.0573  -17.9067  -42.5459 C.3       7 UNK         0.1400 
     38 CB          3.3899  -17.1763  -42.7481 C.3       7 UNK        -0.1800 
     39 N           1.1501  -17.0706  -41.7635 N.am      7 UNK        -0.5000 
     40 C           0.0130  -17.5125  -41.2082 C.2       6 UNK         0.5000 
     41 O          -0.3694  -18.6825  -41.2623 O.2       6 UNK        -0.5000 
     42 CA         -0.8639  -16.4516  -40.5194 C.3       6 UNK         0.1400 
     43 CB         -0.3226  -16.1181  -39.1210 C.3       6 UNK        -0.1800 
     44 N          -0.9738  -15.2213  -41.3065 N.am      6 UNK        -0.5000 
     45 C          -1.5707  -15.1468  -42.5040 C.2       5 UNK         0.5000 
     46 O          -2.1057  -16.1049  -43.0592 O.2       5 UNK        -0.5000 
     47 CA         -1.5508  -13.7839  -43.2172 C.3       5 UNK         0.1400 
     48 CB         -2.7882  -12.9609  -42.8300 C.3       5 UNK        -0.1800 
     49 N          -0.3476  -12.9864  -42.9724 N.am      5 UNK        -0.5000 
     50 C           0.9071  -13.3394  -43.2849 C.2       4 UNK         0.5000 
     51 O           1.2167  -14.4449  -43.7391 O.2       4 UNK        -0.5000 
     52 CA          1.9609  -12.2354  -43.0782 C.3       4 UNK         0.1400 
     53 CB          2.0454  -11.7684  -41.6084 C.3       4 UNK        -0.1800 
     54 N           3.2756  -12.5729  -43.6319 N.am      4 UNK        -0.5000 
     55 C           4.2406  -13.3495  -43.1152 C.2       3 UNK         0.5000 
     56 O           4.1563  -13.9209  -42.0277 O.2       3 UNK        -0.5000 
     57 CA          5.5390  -13.5154  -43.9421 C.3       3 UNK         0.1400 
     58 CB          5.7227  -14.9758  -44.3853 C.3       3 UNK        -0.1800 
     59 N           5.6044  -12.6647  -45.1332 N.am      3 UNK        -0.5000 
     60 C           5.7932  -11.3373  -45.1467 C.2       2 UNK         0.5000 
     61 O           6.0480  -10.6751  -44.1406 O.2       2 UNK        -0.5000 
     62 CA          5.6309  -10.6236  -46.5094 C.3       2 UNK         0.1400 
     63 CB          7.0067  -10.2866  -47.1046 C.3       2 UNK        -0.1800 
     64 N           4.8541  -11.3782  -47.5054 N.am      2 UNK        -0.5000 
     65 C           3.5788  -11.7684  -47.3591 C.2       1 UNK         0.5000 
     66 O           2.9084  -11.5004  -46.3567 O.2       1 UNK        -0.5000 
     67 C           0.0764  -22.9200  -47.2994 C.2       11 UNK         0.5000 
     68 O           0.2256  -23.9804  -47.9040 O.2       11 UNK        -0.5000 
     69 N          -1.0258  -22.1618  -47.3950 N.am      12 UNK        -0.5000 
     70 CA         -2.1946  -22.4897  -48.2115 C.3       12 UNK         0.1400 
     71 CB         -3.2171  -21.3475  -48.1439 C.3       12 UNK        -0.1800 
     72 C          -2.8548  -23.8173  -47.8106 C.2       12 UNK         0.5000 
     73 O          -3.2070  -24.6013  -48.6915 O.2       12 UNK        -0.5000 
     74 N          -2.9784  -24.0584  -46.4981 N.am      13 UNK        -0.5000 
     75 CA         -3.4898  -25.3052  -45.9319 C.3       13 UNK         0.1400 
     76 CB         -3.7169  -25.1310  -44.4226 C.3       13 UNK        -0.1800 
     77 C          -2.5679  -26.5054  -46.2142 C.2       13 UNK         0.5000 
     78 O          -3.0623  -27.5710  -46.5830 O.2       13 UNK        -0.5000 
     79 N          -1.2509  -26.3077  -46.0601 N.am      14 UNK        -0.5000 
     80 CA         -0.2234  -27.3176  -46.3204 C.3       14 UNK         0.1400 
     81 CB          1.1258  -26.8302  -45.7700 C.3       14 UNK        -0.1800 
     82 C          -0.1042  -27.6825  -47.8117 C.2       14 UNK         0.5000 
     83 O           0.0008  -28.8643  -48.1427 O.2       14 UNK        -0.5000 
     84 N          -0.1336  -26.6655  -48.6824 N.am      15 UNK        -0.5000 
     85 CA         -0.0609  -26.8094  -50.1370 C.3       15 UNK         0.1400 
     86 CB          0.3365  -25.4560  -50.7494 C.3       15 UNK        -0.1800 
     87 C          -1.3744  -27.3051  -50.7708 C.2       15 UNK         0.5000 
     88 O          -1.3407  -27.8034  -51.8966 O.2       15 UNK        -0.5000 
     89 N          -2.4971  -27.1289  -50.0569 N.am      16 UNK        -0.5000 
     90 CA         -3.8803  -27.3087  -50.5107 C.3       16 UNK         0.1400 
     91 CB         -4.1811  -28.7891  -50.8246 C.3       16 UNK        -0.1800 
     92 C          -4.2093  -26.3477  -51.6729 C.2       16 UNK         0.5000 
     93 O          -4.7008  -26.7715  -52.7213 O.2       16 UNK        -0.5000 
     94 N          -3.8740  -25.0667  -51.4686 N.am      17 UNK        -0.5000 
     95 CA         -4.0167  -23.9880  -52.4443 C.3       17 UNK         0.1400 
     96 CB         -3.2789  -22.7442  -51.9284 C.3       17 UNK        -0.1800 
     97 C          -5.4890  -23.6559  -52.7469 C.2       17 UNK         0.5000 
     98 O          -6.3402  -23.7357  -51.8570 O.2       17 UNK        -0.5000 
     99 N          -5.7507  -23.2734  -54.0010 N.am      18 UNK        -0.5000 
    100 CA        -7.0663  -22.8718  -54.4919 C.3       18 UNK         0.1400 
    101 CB        -7.0521  -22.9396  -56.0279 C.3       18 UNK        -0.1800 
    102 C         -7.4424  -21.4521  -54.0353 C.2       18 UNK         0.5000 
    103 O         -6.5615  -20.6285  -53.7703 O.2       18 UNK        -0.5000 
    104 N         -8.7496  -21.1601  -54.0451 N.am      19 UNK        -0.5000 
    105 CA        -9.3126  -19.8322  -53.7756 C.3       19 UNK         0.1400 
    106 CB       -10.8439  -19.9347  -53.7191 C.3       19 UNK        -0.1800 
    107 C         -8.8794  -18.7645  -54.8016 C.2       19 UNK         0.5000 
    108 O         -8.8045  -17.5855  -54.4580 O.2       19 UNK        -0.5000 
    109 N         -8.5519  -19.1976  -56.0263 N.am      20 UNK        -0.5000 
    110 CA        -7.9705  -18.3609  -57.0765 C.3       20 UNK         0.1400 
    111 CB        -8.0167  -19.1323  -58.4045 C.3       20 UNK        -0.1800 
    112 C         -6.5274  -17.9074  -56.7691 C.2       20 UNK         0.5000 
    113 O         -6.0979  -16.8820  -57.2993 O.2       20 UNK        -0.5000 
    114 N         -5.8072  -18.6724  -55.9362 N.am      21 UNK        -0.5000 
    115 CA        -4.4308  -18.3933  -55.5347 C.3       21 UNK         0.1400 
    116 CB        -3.6418  -19.7127  -55.4715 C.3       21 UNK        -0.1800 
    117 C         -4.3765  -17.6642  -54.1831 C.2       21 UNK         0.5000 
    118 O         -3.6752  -16.6577  -54.0712 O.2       21 UNK        -0.5000 
    119 N         -5.1023  -18.1895  -53.1877 N.am      22 UNK        -0.5000 
    120 CA        -5.0215  -17.7701  -51.7768 C.3       22 UNK         0.1400 
    121 C         -6.3668  -17.2642  -51.1817 C.2       22 UNK         0.5000 
    122 N         -7.4246  -17.0774  -51.9575 N.am      22 UNK        -0.7600 
    123 O         -6.4532  -17.0034  -49.9849 O.2       22 UNK        -0.5000 
    124 C124       -4.3891  -18.8838  -50.8999 C.3       23 UNK        -0.0398 
    125 S125       -2.6313  -19.1785  -51.2945 S.3       23 UNK        -0.2404 
    126 C126       -1.8238  -18.1122  -50.0497 C.3       23 UNK        -0.0205 
    127 H127       -1.5218  -12.3861  -48.4657 H         1 UNK         0.0600 
    128 H128       -0.7459  -13.2827  -47.1609 H         1 UNK         0.0600 
    129 H129       -1.2302  -14.1193  -48.6415 H         1 UNK         0.0600 
    130 H130        1.4802  -13.1299  -47.0987 H         1 UNK         0.3000 
    131 H131        2.9825  -12.0588  -49.3864 H         1 UNK         0.0600 
    132 H132        4.8304  -13.6292  -49.1179 H         1 UNK         0.0800 
    133 H133        4.0928  -14.4014  -47.7469 H         1 UNK         0.0800 
    134 H134        3.6077  -16.8307  -48.1649 H         1 UNK         0.0800 
    135 H135        2.1452  -15.9528  -47.8026 H         1 UNK         0.0800 
    136 H136        0.0900  -16.3297  -49.3492 H         1 UNK         0.1150 
    137 H137       -0.4310  -20.4967  -50.2184 H         1 UNK         0.1150 
    138 H138        3.4311  -18.9972  -49.1400 H         1 UNK         0.1150 
    139 H139        1.3134  -22.0328  -49.9364 H         1 UNK         0.0800 
    140 H140        2.7546  -21.3934  -50.6840 H         1 UNK         0.0800 
    141 H141        1.3957  -20.4534  -47.1928 H         1 UNK         0.0800 
    142 H142        2.7073  -20.9277  -46.1696 H         1 UNK         0.0800 
    143 H143        1.8426  -23.2958  -46.1540 H         1 UNK         0.0600 
    144 H144        0.7551  -21.0901  -44.7654 H         1 UNK         0.3000 
    145 H145       -1.3401  -22.9259  -42.5102 H         1 UNK         0.0600 
    146 H146        0.9976  -22.9082  -41.6255 H         1 UNK         0.0600 
    147 H147        1.2233  -21.2681  -42.2220 H         1 UNK         0.0600 
    148 H148        0.0473  -21.5923  -40.9514 H         1 UNK         0.0600 
    149 H149       -0.9142  -20.1305  -42.8241 H         1 UNK         0.3000 
    150 H150       -3.6047  -19.5327  -45.1339 H         1 UNK         0.0600 
    151 H151       -4.5439  -19.6487  -42.8098 H         1 UNK         0.0600 
    152 H152       -4.2186  -17.9945  -43.3050 H         1 UNK         0.0600 
    153 H153       -3.1220  -18.8120  -42.1942 H         1 UNK         0.0600 
    154 H154       -1.7789  -17.7183  -43.9735 H         1 UNK         0.3000 
    155 H155        0.7493  -17.9060  -46.5375 H         1 UNK         0.0600 
    156 H156        0.2404  -15.4602  -46.4074 H         1 UNK         0.0600 
    157 H157       -1.0353  -16.3302  -47.2542 H         1 UNK         0.0600 
    158 H158       -1.2855  -15.8149  -45.6018 H         1 UNK         0.0600 
    159 H159        0.7508  -16.4020  -44.1569 H         1 UNK         0.3000 
    160 H160        2.2515  -18.8237  -41.9854 H         1 UNK         0.0600 
    161 H161        3.2545  -16.2558  -43.3155 H         1 UNK         0.0600 
    162 H162        4.0982  -17.7990  -43.2960 H         1 UNK         0.0600 
    163 H163        3.8505  -16.9176  -41.7946 H         1 UNK         0.0600 
    164 H164        1.3641  -16.0843  -41.7223 H         1 UNK         0.3000 
    165 H165       -1.8657  -16.8717  -40.4063 H         1 UNK         0.0600 
    166 H166       -0.9850  -15.4296  -38.5962 H         1 UNK         0.0600 
    167 H167       -0.2408  -17.0181  -38.5101 H         1 UNK         0.0600 
    168 H168        0.6670  -15.6619  -39.1681 H         1 UNK         0.0600 
    169 H169       -0.5556  -14.3872  -40.9220 H         1 UNK         0.3000 
    170 H170       -1.5993  -13.9725  -44.2903 H         1 UNK         0.0600 
    171 H171       -3.7053  -13.5190  -43.0244 H         1 UNK         0.0600 
    172 H172       -2.7822  -12.6979  -41.7714 H         1 UNK         0.0600 
    173 H173       -2.8449  -12.0371  -43.4061 H         1 UNK         0.0600 
    174 H174       -0.5061  -12.0599  -42.6039 H         1 UNK         0.3000 
    175 H175        1.6250  -11.3826  -43.6701 H         1 UNK         0.0600 
    176 H176        2.2182  -12.5995  -40.9242 H         1 UNK         0.0600 
    177 H177        2.8492  -11.0453  -41.4692 H         1 UNK         0.0600 
    178 H178        1.1215  -11.2820  -41.2948 H         1 UNK         0.0600 
    179 H179        3.4308  -12.1957  -44.5607 H         1 UNK         0.3000 
    180 H180        6.3725  -13.2503  -43.2886 H         1 UNK         0.0600 
    181 H181        4.9009  -15.3107  -45.0197 H         1 UNK         0.0600 
    182 H182        5.7684  -15.6420  -43.5233 H         1 UNK         0.0600 
    183 H183        6.6518  -15.1073  -44.9402 H         1 UNK         0.0600 
    184 H184        5.4251  -13.1200  -46.0143 H         1 UNK         0.3000 
    185 H185        5.1020   -9.6874  -46.3195 H         1 UNK         0.0600 
    186 H186        7.6026   -9.6983  -46.4054 H         1 UNK         0.0600 
    187 H187        7.5738  -11.1876  -47.3416 H         1 UNK         0.0600 
    188 H188        6.9093   -9.6996  -48.0180 H         1 UNK         0.0600 
    189 H189        5.3465  -11.6165  -48.3544 H         1 UNK         0.3000 
    190 H190       -1.0616  -21.2720  -46.9007 H         1 UNK         0.3000 
    191 H191       -1.8539  -22.5849  -49.2439 H         1 UNK         0.0600 
    192 H192       -2.7855  -20.4197  -48.5113 H         1 UNK         0.0600 
    193 H193       -3.5609  -21.1731  -47.1243 H         1 UNK         0.0600 
    194 H194       -4.0944  -21.5634  -48.7543 H         1 UNK         0.0600 
    195 H195       -2.7070  -23.3350  -45.8391 H         1 UNK         0.3000 
    196 H196       -4.4558  -25.5119  -46.3973 H         1 UNK         0.0600 
    197 H197       -4.1106  -26.0457  -43.9779 H         1 UNK         0.0600 
    198 H198       -4.4356  -24.3361  -44.2227 H         1 UNK         0.0600 
    199 H199       -2.7922  -24.8823  -43.9011 H         1 UNK         0.0600 
    200 H200       -0.9269  -25.4094  -45.7143 H         1 UNK         0.3000 
    201 H201       -0.5003  -28.2243  -45.7786 H         1 UNK         0.0600 
    202 H202        1.0715  -26.6534  -44.6957 H         1 UNK         0.0600 
    203 H203        1.4430  -25.9013  -46.2449 H         1 UNK         0.0600 
    204 H204        1.9083  -27.5708  -45.9391 H         1 UNK         0.0600 
    205 H205       -0.1600  -25.7118  -48.3245 H         1 UNK         0.3000 
    206 H206        0.7187  -27.5356  -50.3762 H         1 UNK         0.0600 
    207 H207        1.2883  -25.1052  -50.3498 H         1 UNK         0.0600 
    208 H208        0.4459  -25.5314  -51.8319 H         1 UNK         0.0600 
    209 H209       -0.4135  -24.6897  -50.5477 H         1 UNK         0.0600 
    210 H210       -2.4027  -26.6640  -49.1630 H         1 UNK         0.3000 
    211 H211       -4.5176  -27.0138  -49.6756 H         1 UNK         0.0600 
    212 H212       -3.6195  -29.1482  -51.6872 H         1 UNK         0.0600 
    213 H213       -5.2398  -28.9307  -51.0443 H         1 UNK         0.0600 
    214 H214       -3.9370  -29.4276  -49.9756 H         1 UNK         0.0600 
    215 H215       -3.5341  -24.8101  -50.5457 H         1 UNK         0.3000 
    216 H216       -3.5349  -24.3145  -53.3683 H         1 UNK         0.0600 
    217 H217       -2.2259  -22.9547  -51.7408 H         1 UNK         0.0600 
    218 H218       -3.7203  -22.3735  -51.0035 H         1 UNK         0.0600 
    219 H219       -3.3232  -21.9338  -52.6573 H         1 UNK         0.0600 
    220 H220       -4.9886  -23.1955  -54.6579 H         1 UNK         0.3000 
    221 H221       -7.8129  -23.5733  -54.1133 H         1 UNK         0.0600 
    222 H222       -6.3304  -22.2423  -56.4564 H         1 UNK         0.0600 
    223 H223       -6.7967  -23.9409  -56.3755 H         1 UNK         0.0600 
    224 H224       -8.0305  -22.6961  -56.4438 H         1 UNK         0.0600 
    225 H225       -9.4112  -21.8850  -54.2838 H         1 UNK         0.3000 
    226 H226       -8.9540  -19.5103  -52.7957 H         1 UNK         0.0600 
    227 H227      -11.1648  -20.6277  -52.9412 H         1 UNK         0.0600 
    228 H228      -11.2918  -18.9659  -53.4938 H         1 UNK         0.0600 
    229 H229      -11.2603  -20.2764  -54.6676 H         1 UNK         0.0600 
    230 H230       -8.6576  -20.1792  -56.2331 H         1 UNK         0.3000 
    231 H231       -8.5842  -17.4634  -57.1790 H         1 UNK         0.0600 
    232 H232       -7.6154  -18.5299  -59.2207 H         1 UNK         0.0600 
    233 H233       -9.0398  -19.3979  -58.6716 H         1 UNK         0.0600 
    234 H234       -7.4315  -20.0517  -58.3567 H         1 UNK         0.0600 
    235 H235       -6.2490  -19.4668  -55.4919 H         1 UNK         0.3000 
    236 H236       -3.9463  -17.7571  -56.2786 H         1 UNK         0.0600 
    237 H237       -3.6288  -20.2097  -56.4415 H         1 UNK         0.0600 
    238 H238       -2.6053  -19.5320  -55.1839 H         1 UNK         0.0600 
    239 H239       -4.0636  -20.4082  -54.7455 H         1 UNK         0.0600 
    240 H240       -5.6508  -19.0265  -53.3676 H         1 UNK         0.3000 
    241 H241       -4.3706  -16.8980  -51.6977 H         1 UNK         0.0600 
    242 H242       -7.4027  -17.2458  -52.9544 H         1 UNK         0.3800 
    243 H243       -8.2739  -16.7304  -51.5417 H         1 UNK         0.3800 
    244 H244       -4.4673  -18.6504  -49.8371 H         1 UNK         0.0800 
    245 H245       -4.9322  -19.8205  -51.0364 H         1 UNK         0.0800 
    246 H246       -1.9848  -17.0732  -50.3414 H         1 UNK         0.0800 
    247 H247       -2.3061  -18.2387  -49.0803 H         1 UNK         0.0800 
@<TRIPOS>BOND
     1    1    2 1    
     2    1  127 1    
     3    1  128 1    
     4    1  129 1    
     5    2    3 2    
     6    2    4 am   BACKBONE|DICT|INTERRES
     7    4    5 1    
     8    4  130 1    
     9    5    6 1    
    10    5   65 1    
    11    5  131 1    
    12    6    7 1    
    13    6  132 1    
    14    6  133 1    
    15    7    8 1    
    16    8    9 1    
    17    8  134 1    
    18    8  135 1    
    19    9   10 ar   
    20    9   14 ar   
    21   10   11 ar   
    22   10  136 1    
    23   11   12 ar   
    24   11  126 1    
    25   12   13 ar   
    26   12  137 1    
    27   13   14 ar   
    28   13   15 1    
    29   14  138 1    
    30   15   16 1    
    31   15  139 1    
    32   15  140 1    
    33   16   17 1    
    34   17   18 1    
    35   17  141 1    
    36   17  142 1    
    37   18   19 1    
    38   18   67 1    
    39   18  143 1    
    40   19   20 am   BACKBONE|DICT|INTERRES
    41   19  144 1    
    42   20   21 2    
    43   20   22 1    
    44   22   23 1    
    45   22   24 1    
    46   22  145 1    
    47   23  146 1    
    48   23  147 1    
    49   23  148 1    
    50   24   25 am   BACKBONE|DICT|INTERRES
    51   24  149 1    
    52   25   26 2    
    53   25   27 1    
    54   27   28 1    
    55   27   29 1    
    56   27  150 1    
    57   28  151 1    
    58   28  152 1    
    59   28  153 1    
    60   29   30 am   BACKBONE|DICT|INTERRES
    61   29  154 1    
    62   30   31 2    
    63   30   32 1    
    64   32   33 1    
    65   32   34 1    
    66   32  155 1    
    67   33  156 1    
    68   33  157 1    
    69   33  158 1    
    70   34   35 am   BACKBONE|DICT|INTERRES
    71   34  159 1    
    72   35   36 2    
    73   35   37 1    
    74   37   38 1    
    75   37   39 1    
    76   37  160 1    
    77   38  161 1    
    78   38  162 1    
    79   38  163 1    
    80   39   40 am   BACKBONE|DICT|INTERRES
    81   39  164 1    
    82   40   41 2    
    83   40   42 1    
    84   42   43 1    
    85   42   44 1    
    86   42  165 1    
    87   43  166 1    
    88   43  167 1    
    89   43  168 1    
    90   44   45 am   BACKBONE|DICT|INTERRES
    91   44  169 1    
    92   45   46 2    
    93   45   47 1    
    94   47   48 1    
    95   47   49 1    
    96   47  170 1    
    97   48  171 1    
    98   48  172 1    
    99   48  173 1    
   100   49   50 am   BACKBONE|DICT|INTERRES
   101   49  174 1    
   102   50   51 2    
   103   50   52 1    
   104   52   53 1    
   105   52   54 1    
   106   52  175 1    
   107   53  176 1    
   108   53  177 1    
   109   53  178 1    
   110   54   55 am   BACKBONE|DICT|INTERRES
   111   54  179 1    
   112   55   56 2    
   113   55   57 1    
   114   57   58 1    
   115   57   59 1    
   116   57  180 1    
   117   58  181 1    
   118   58  182 1    
   119   58  183 1    
   120   59   60 am   BACKBONE|DICT|INTERRES
   121   59  184 1    
   122   60   61 2    
   123   60   62 1    
   124   62   63 1    
   125   62   64 1    
   126   62  185 1    
   127   63  186 1    
   128   63  187 1    
   129   63  188 1    
   130   64   65 am   BACKBONE|DICT|INTERRES
   131   64  189 1    
   132   65   66 2    
   133   67   68 2    
   134   67   69 am   BACKBONE|DICT|INTERRES
   135   69   70 1    
   136   69  190 1    
   137   70   71 1    
   138   70   72 1    
   139   70  191 1    
   140   71  192 1    
   141   71  193 1    
   142   71  194 1    
   143   72   73 2    
   144   72   74 am   BACKBONE|DICT|INTERRES
   145   74   75 1    
   146   74  195 1    
   147   75   76 1    
   148   75   77 1    
   149   75  196 1    
   150   76  197 1    
   151   76  198 1    
   152   76  199 1    
   153   77   78 2    
   154   77   79 am   BACKBONE|DICT|INTERRES
   155   79   80 1    
   156   79  200 1    
   157   80   81 1    
   158   80   82 1    
   159   80  201 1    
   160   81  202 1    
   161   81  203 1    
   162   81  204 1    
   163   82   83 2    
   164   82   84 am   BACKBONE|DICT|INTERRES
   165   84   85 1    
   166   84  205 1    
   167   85   86 1    
   168   85   87 1    
   169   85  206 1    
   170   86  207 1    
   171   86  208 1    
   172   86  209 1    
   173   87   88 2    
   174   87   89 am   BACKBONE|DICT|INTERRES
   175   89   90 1    
   176   89  210 1    
   177   90   91 1    
   178   90   92 1    
   179   90  211 1    
   180   91  212 1    
   181   91  213 1    
   182   91  214 1    
   183   92   93 2    
   184   92   94 am   BACKBONE|DICT|INTERRES
   185   94   95 1    
   186   94  215 1    
   187   95   96 1    
   188   95   97 1    
   189   95  216 1    
   190   96  217 1    
   191   96  218 1    
   192   96  219 1    
   193   97   98 2    
   194   97   99 am   BACKBONE|DICT|INTERRES
   195   99  100 1    
   196   99  220 1    
   197  100  101 1    
   198  100  102 1    
   199  100  221 1    
   200  101  222 1    
   201  101  223 1    
   202  101  224 1    
   203  102  103 2    
   204  102  104 am   BACKBONE|DICT|INTERRES
   205  104  105 1    
   206  104  225 1    
   207  105  106 1    
   208  105  107 1    
   209  105  226 1    
   210  106  227 1    
   211  106  228 1    
   212  106  229 1    
   213  107  108 2    
   214  107  109 am   BACKBONE|DICT|INTERRES
   215  109  110 1    
   216  109  230 1    
   217  110  111 1    
   218  110  112 1    
   219  110  231 1    
   220  111  232 1    
   221  111  233 1    
   222  111  234 1    
   223  112  113 2    
   224  112  114 am   BACKBONE|DICT|INTERRES
   225  114  115 1    
   226  114  235 1    
   227  115  116 1    
   228  115  117 1    
   229  115  236 1    
   230  116  237 1    
   231  116  238 1    
   232  116  239 1    
   233  117  118 2    
   234  117  119 am   BACKBONE|DICT|INTERRES
   235  119  120 1    
   236  119  240 1    
   237  120  121 1    
   238  120  124 1    
   239  120  241 1    
   240  121  122 am   BACKBONE|DICT|INTERRES
   241  121  123 2    
   242  122  242 1    
   243  122  243 1    
   244  124  125 1    
   245  124  244 1    
   246  124  245 1    
   247  125  126 1    
   248  126  246 1    
   249  126  247 1    
@<TRIPOS>SUBSTRUCTURE
     1 UNK         1 GROUP             0       ****    0 ROOT    
