@<TRIPOS>MOLECULE
3R540
247   249    1
SMALL
USER_CHARGES


@<TRIPOS>ATOM
      1 CA          4.3664  -14.0648  -44.6963 C.3       0 UNK        -0.1800 
      2 C           5.3315  -14.9539  -45.4639 C.2       0 UNK         0.5000 
      3 O           6.4203  -15.2469  -44.9702 O.2       0 UNK        -0.5000 
      4 N           4.9365  -15.3805  -46.6707 N.am      1 UNK        -0.5000 
      5 CA          5.7021  -16.2888  -47.5337 C.3       1 UNK         0.1400 
      6 C6          5.1166  -16.3102  -48.9652 C.3       23 UNK        -0.0398 
      7 S7          6.2787  -16.9695  -50.2082 S.3       23 UNK        -0.2404 
      8 C8          5.4137  -16.5599  -51.7598 C.3       23 UNK        -0.0205 
      9 C9          3.9765  -17.0623  -51.7739 C.ar      23 UNK        -0.0193 
     10 C10         2.9154  -16.1560  -51.8685 C.ar      23 UNK        -0.1150 
     11 C11         1.5941  -16.6103  -51.8621 C.ar      23 UNK        -0.0193 
     12 C12         1.3378  -17.9776  -51.7458 C.ar      23 UNK        -0.1150 
     13 C13         2.3880  -18.8928  -51.6395 C.ar      23 UNK        -0.0193 
     14 C14         3.7060  -18.4306  -51.6710 C.ar      23 UNK        -0.1150 
     15 C15         2.0995  -20.3772  -51.4704 C.3       23 UNK        -0.0205 
     16 S16         2.2831  -20.9003  -49.7354 S.3       23 UNK        -0.2404 
     17 C17         0.9764  -19.9168  -48.9260 C.3       23 UNK        -0.0398 
     18 CA          0.2588  -20.6669  -47.7815 C.3       11 UNK         0.1400 
     19 N          -0.4254  -19.7421  -46.8739 N.am      11 UNK        -0.5000 
     20 C          -0.8345  -20.0735  -45.6407 C.2       10 UNK         0.5000 
     21 O          -0.6419  -21.1805  -45.1356 O.2       10 UNK        -0.5000 
     22 CA         -1.6445  -19.0191  -44.8655 C.3       10 UNK         0.1400 
     23 CB         -0.7307  -17.9685  -44.2264 C.3       10 UNK        -0.1800 
     24 N          -2.6390  -18.3354  -45.6893 N.am      10 UNK        -0.5000 
     25 C          -3.7487  -18.9067  -46.1714 C.2       9 UNK         0.5000 
     26 O          -4.0026  -20.1020  -46.0426 O.2       9 UNK        -0.5000 
     27 CA         -4.7361  -18.0018  -46.9241 C.3       9 UNK         0.1400 
     28 CB         -5.6435  -17.2582  -45.9328 C.3       9 UNK        -0.1800 
     29 N          -4.0318  -17.0267  -47.7510 N.am      9 UNK        -0.5000 
     30 C          -3.8984  -17.1046  -49.0807 C.2       8 UNK         0.5000 
     31 O          -4.4044  -17.9855  -49.7770 O.2       8 UNK        -0.5000 
     32 CA         -3.0429  -16.0166  -49.7592 C.3       8 UNK         0.1400 
     33 CB         -3.9371  -14.8578  -50.2216 C.3       8 UNK        -0.1800 
     34 N          -1.9635  -15.4879  -48.9198 N.am      8 UNK        -0.5000 
     35 C          -0.9595  -16.2164  -48.4112 C.2       7 UNK         0.5000 
     36 O          -0.8211  -17.4213  -48.6140 O.2       7 UNK        -0.5000 
     37 CA          0.0260  -15.4983  -47.4701 C.3       7 UNK         0.1400 
     38 CB          1.1941  -14.9037  -48.2706 C.3       7 UNK        -0.1800 
     39 N          -0.5603  -14.4551  -46.6189 N.am      7 UNK        -0.5000 
     40 C          -1.6399  -14.5712  -45.8324 C.2       6 UNK         0.5000 
     41 O          -2.3751  -15.5599  -45.8238 O.2       6 UNK        -0.5000 
     42 CA         -1.9264  -13.3917  -44.8815 C.3       6 UNK         0.1400 
     43 CB         -3.2799  -13.5348  -44.1620 C.3       6 UNK        -0.1800 
     44 N          -0.8736  -13.2587  -43.8740 N.am      6 UNK        -0.5000 
     45 C           0.3345  -12.7174  -44.0778 C.2       5 UNK         0.5000 
     46 O           0.6862  -12.2268  -45.1521 O.2       5 UNK        -0.5000 
     47 CA          1.3213  -12.7378  -42.8935 C.3       5 UNK         0.1400 
     48 CB          1.2235  -11.4281  -42.0968 C.3       5 UNK        -0.1800 
     49 N           1.1545  -13.8690  -41.9736 N.am      5 UNK        -0.5000 
     50 C           1.2882  -15.1642  -42.2945 C.2       4 UNK         0.5000 
     51 O           1.5062  -15.5642  -43.4390 O.2       4 UNK        -0.5000 
     52 CA          1.1198  -16.1612  -41.1273 C.3       4 UNK         0.1400 
     53 CB         -0.3507  -16.2394  -40.6825 C.3       4 UNK        -0.1800 
     54 N           1.5846  -17.5159  -41.4354 N.am      4 UNK        -0.5000 
     55 C           2.8593  -17.8767  -41.6333 C.2       3 UNK         0.5000 
     56 O           3.8096  -17.0960  -41.5439 O.2       3 UNK        -0.5000 
     57 CA          3.1457  -19.3673  -41.9363 C.3       3 UNK         0.1400 
     58 CB          1.9039  -20.2887  -41.9532 C.3       3 UNK        -0.1800 
     59 N           3.9353  -19.5432  -43.1588 N.am      3 UNK        -0.5000 
     60 C           3.6007  -19.1407  -44.3920 C.2       2 UNK         0.5000 
     61 O           2.5319  -18.6039  -44.6888 O.2       2 UNK        -0.5000 
     62 CA          4.6396  -19.3758  -45.4924 C.3       2 UNK         0.1400 
     63 CB          4.2389  -20.5515  -46.3988 C.3       2 UNK        -0.1800 
     64 N           4.7217  -18.1471  -46.2676 N.am      2 UNK        -0.5000 
     65 C           5.7988  -17.7091  -46.9282 C.2       1 UNK         0.5000 
     66 O           6.8444  -18.3525  -47.0324 O.2       1 UNK        -0.5000 
     67 C          -0.7196  -21.7315  -48.3155 C.2       11 UNK         0.5000 
     68 O          -0.3375  -22.8921  -48.4593 O.2       11 UNK        -0.5000 
     69 N          -1.9815  -21.3350  -48.5409 N.am      12 UNK        -0.5000 
     70 CA         -3.0674  -22.2383  -48.9146 C.3       12 UNK         0.1400 
     71 CB         -4.3293  -21.4394  -49.2436 C.3       12 UNK        -0.1800 
     72 C          -3.3661  -23.2786  -47.8242 C.2       12 UNK         0.5000 
     73 O          -3.4914  -24.4578  -48.1429 O.2       12 UNK        -0.5000 
     74 N          -3.4240  -22.8404  -46.5593 N.am      13 UNK        -0.5000 
     75 CA         -3.5997  -23.7015  -45.3897 C.3       13 UNK         0.1400 
     76 CB         -3.7694  -22.8362  -44.1321 C.3       13 UNK        -0.1800 
     77 C          -2.4489  -24.7088  -45.2118 C.2       13 UNK         0.5000 
     78 O          -2.7078  -25.8682  -44.8885 O.2       13 UNK        -0.5000 
     79 N          -1.2100  -24.2646  -45.4696 N.am      14 UNK        -0.5000 
     80 CA         -0.0128  -25.1078  -45.4707 C.3       14 UNK         0.1400 
     81 CB          1.2397  -24.2190  -45.5337 C.3       14 UNK        -0.1800 
     82 C          -0.0147  -26.1458  -46.6122 C.2       14 UNK         0.5000 
     83 O           0.3771  -27.2922  -46.3916 O.2       14 UNK        -0.5000 
     84 N          -0.4745  -25.7339  -47.8014 N.am      15 UNK        -0.5000 
     85 CA         -0.6030  -26.5762  -48.9937 C.3       15 UNK         0.1400 
     86 CB         -0.6764  -25.6650  -50.2299 C.3       15 UNK        -0.1800 
     87 C          -1.8201  -27.5248  -48.9650 C.2       15 UNK         0.5000 
     88 O          -1.8686  -28.4548  -49.7711 O.2       15 UNK        -0.5000 
     89 N          -2.7819  -27.2583  -48.0691 N.am      16 UNK        -0.5000 
     90 CA         -4.1114  -27.8715  -47.9663 C.3       16 UNK         0.1400 
     91 CB         -4.0166  -29.3742  -47.6285 C.3       16 UNK        -0.1800 
     92 C          -4.9882  -27.5680  -49.2027 C.2       16 UNK         0.5000 
     93 O          -5.6843  -28.4494  -49.7110 O.2       16 UNK        -0.5000 
     94 N          -4.9229  -26.3141  -49.6616 N.am      17 UNK        -0.5000 
     95 CA         -5.6624  -25.7558  -50.7899 C.3       17 UNK         0.1400 
     96 CB         -4.6483  -25.0687  -51.7218 C.3       17 UNK        -0.1800 
     97 C          -6.7138  -24.7439  -50.2957 C.2       17 UNK         0.5000 
     98 O          -6.7548  -24.4153  -49.1068 O.2       17 UNK        -0.5000 
     99 N          -7.5426  -24.2508  -51.2262 N.am      18 UNK        -0.5000 
    100 CA        -8.4974  -23.1633  -50.9970 C.3       18 UNK         0.1400 
    101 CB        -9.4341  -23.0520  -52.2095 C.3       18 UNK        -0.1800 
    102 C         -7.7708  -21.8268  -50.7537 C.2       18 UNK         0.5000 
    103 O         -6.7575  -21.5621  -51.4059 O.2       18 UNK        -0.5000 
    104 N         -8.3003  -21.0155  -49.8282 N.am      19 UNK        -0.5000 
    105 CA        -7.7135  -19.7708  -49.3175 C.3       19 UNK         0.1400 
    106 CB        -8.3880  -19.4232  -47.9780 C.3       19 UNK        -0.1800 
    107 C         -7.7340  -18.5952  -50.3190 C.2       19 UNK         0.5000 
    108 O         -8.3080  -17.5422  -50.0347 O.2       19 UNK        -0.5000 
    109 N         -7.0989  -18.7998  -51.4738 N.am      20 UNK        -0.5000 
    110 CA        -6.9076  -17.8237  -52.5380 C.3       20 UNK         0.1400 
    111 CB        -8.1796  -17.7277  -53.4045 C.3       20 UNK        -0.1800 
    112 C         -5.6488  -18.1938  -53.3405 C.2       20 UNK         0.5000 
    113 O         -5.6927  -18.2376  -54.5713 O.2       20 UNK        -0.5000 
    114 N         -4.5434  -18.4774  -52.6324 N.am      21 UNK        -0.5000 
    115 CA        -3.2502  -18.8263  -53.2357 C.3       21 UNK         0.1400 
    116 CB        -2.3146  -19.4158  -52.1682 C.3       21 UNK        -0.1800 
    117 C         -2.5787  -17.6475  -53.9716 C.2       21 UNK         0.5000 
    118 O         -1.7966  -17.8800  -54.8937 O.2       21 UNK        -0.5000 
    119 N         -2.9274  -16.4184  -53.5756 N.am      22 UNK        -0.5000 
    120 CA        -2.6200  -15.1629  -54.2709 C.3       22 UNK         0.1400 
    121 C         -3.9099  -14.3067  -54.3792 C.2       22 UNK         0.5000 
    122 N         -3.9733  -13.3898  -55.3346 N.am      22 UNK        -0.7600 
    123 O         -4.8466  -14.4481  -53.5945 O.2       22 UNK        -0.5000 
    124 C124       -1.4833  -14.3599  -53.5845 C.3       23 UNK        -0.0398 
    125 S125        0.1377  -15.1843  -53.7105 S.3       23 UNK        -0.2404 
    126 C126        0.4400  -15.6301  -51.9764 C.3       23 UNK        -0.0205 
    127 H127        4.1725  -14.4917  -43.7119 H         1 UNK         0.0600 
    128 H128        3.4120  -13.9625  -45.2139 H         1 UNK         0.0600 
    129 H129        4.7928  -13.0708  -44.5620 H         1 UNK         0.0600 
    130 H130        4.0378  -15.0875  -47.0233 H         1 UNK         0.3000 
    131 H131        6.7175  -15.8898  -47.5908 H         1 UNK         0.0600 
    132 H132        4.1869  -16.8818  -48.9957 H         1 UNK         0.0800 
    133 H133        4.8590  -15.2959  -49.2740 H         1 UNK         0.0800 
    134 H134        5.9553  -17.0028  -52.5965 H         1 UNK         0.0800 
    135 H135        5.4487  -15.4794  -51.9080 H         1 UNK         0.0800 
    136 H136        3.1140  -15.0966  -51.9506 H         1 UNK         0.1150 
    137 H137        0.3168  -18.3257  -51.7274 H         1 UNK         0.1150 
    138 H138        4.5226  -19.1336  -51.5838 H         1 UNK         0.1150 
    139 H139        1.0950  -20.6203  -51.8203 H         1 UNK         0.0800 
    140 H140        2.7872  -20.9549  -52.0896 H         1 UNK         0.0800 
    141 H141        0.2518  -19.5758  -49.6662 H         1 UNK         0.0800 
    142 H142        1.4574  -19.0171  -48.5387 H         1 UNK         0.0800 
    143 H143        1.0178  -21.1892  -47.1951 H         1 UNK         0.0600 
    144 H144       -0.6453  -18.8257  -47.2508 H         1 UNK         0.3000 
    145 H145       -2.1763  -19.5335  -44.0622 H         1 UNK         0.0600 
    146 H146       -0.0763  -18.4215  -43.4867 H         1 UNK         0.0600 
    147 H147       -0.0944  -17.4796  -44.9625 H         1 UNK         0.0600 
    148 H148       -1.3079  -17.1947  -43.7218 H         1 UNK         0.0600 
    149 H149       -2.5162  -17.3312  -45.8011 H         1 UNK         0.3000 
    150 H150       -5.3680  -18.6401  -47.5427 H         1 UNK         0.0600 
    151 H151       -6.1893  -17.9599  -45.3008 H         1 UNK         0.0600 
    152 H152       -6.3813  -16.6508  -46.4572 H         1 UNK         0.0600 
    153 H153       -5.0723  -16.5985  -45.2779 H         1 UNK         0.0600 
    154 H154       -3.5390  -16.2922  -47.2541 H         1 UNK         0.3000 
    155 H155       -2.5866  -16.4683  -50.6403 H         1 UNK         0.0600 
    156 H156       -4.4025  -14.3487  -49.3767 H         1 UNK         0.0600 
    157 H157       -3.3715  -14.1179  -50.7869 H         1 UNK         0.0600 
    158 H158       -4.7392  -15.2157  -50.8686 H         1 UNK         0.0600 
    159 H159       -2.0116  -14.5089  -48.6787 H         1 UNK         0.3000 
    160 H160        0.4386  -16.2560  -46.8031 H         1 UNK         0.0600 
    161 H161        1.6771  -15.6652  -48.8850 H         1 UNK         0.0600 
    162 H162        1.9540  -14.4894  -47.6084 H         1 UNK         0.0600 
    163 H163        0.8600  -14.1060  -48.9349 H         1 UNK         0.0600 
    164 H164       -0.0083  -13.6119  -46.5037 H         1 UNK         0.3000 
    165 H165       -1.9627  -12.4822  -45.4847 H         1 UNK         0.0600 
    166 H166       -3.4886  -12.6653  -43.5384 H         1 UNK         0.0600 
    167 H167       -4.0970  -13.6222  -44.8794 H         1 UNK         0.0600 
    168 H168       -3.3072  -14.4193  -43.5241 H         1 UNK         0.0600 
    169 H169       -1.0614  -13.6688  -42.9715 H         1 UNK         0.3000 
    170 H170        2.3263  -12.7983  -43.3107 H         1 UNK         0.0600 
    171 H171        1.3699  -10.5634  -42.7458 H         1 UNK         0.0600 
    172 H172        0.2488  -11.3189  -41.6196 H         1 UNK         0.0600 
    173 H173        1.9864  -11.3802  -41.3195 H         1 UNK         0.0600 
    174 H174        0.9636  -13.6283  -41.0116 H         1 UNK         0.3000 
    175 H175        1.7133  -15.7910  -40.2888 H         1 UNK         0.0600 
    176 H176       -0.9964  -16.6082  -41.4788 H         1 UNK         0.0600 
    177 H177       -0.4673  -16.9026  -39.8250 H         1 UNK         0.0600 
    178 H178       -0.7288  -15.2615  -40.3824 H         1 UNK         0.0600 
    179 H179        0.8695  -18.2162  -41.5559 H         1 UNK         0.3000 
    180 H180        3.7802  -19.7081  -41.1169 H         1 UNK         0.0600 
    181 H181        1.2461  -20.0855  -42.7966 H         1 UNK         0.0600 
    182 H182        1.3208  -20.1957  -41.0363 H         1 UNK         0.0600 
    183 H183        2.2048  -21.3336  -42.0290 H         1 UNK         0.0600 
    184 H184        4.8507  -19.9478  -43.0207 H         1 UNK         0.3000 
    185 H185        5.6083  -19.5842  -45.0330 H         1 UNK         0.0600 
    186 H186        4.1535  -21.4760  -45.8268 H         1 UNK         0.0600 
    187 H187        3.2772  -20.3709  -46.8783 H         1 UNK         0.0600 
    188 H188        4.9768  -20.7179  -47.1837 H         1 UNK         0.0600 
    189 H189        3.9122  -17.5471  -46.1750 H         1 UNK         0.3000 
    190 H190       -2.2249  -20.3706  -48.3726 H         1 UNK         0.3000 
    191 H191       -2.7610  -22.7758  -49.8140 H         1 UNK         0.0600 
    192 H192       -4.6383  -20.8124  -48.4115 H         1 UNK         0.0600 
    193 H193       -5.1538  -22.1168  -49.4586 H         1 UNK         0.0600 
    194 H194       -4.1960  -20.7993  -50.1133 H         1 UNK         0.0600 
    195 H195       -3.3881  -21.8396  -46.3830 H         1 UNK         0.3000 
    196 H196       -4.5191  -24.2724  -45.5360 H         1 UNK         0.0600 
    197 H197       -3.9153  -23.4566  -43.2470 H         1 UNK         0.0600 
    198 H198       -4.6381  -22.1833  -44.2183 H         1 UNK         0.0600 
    199 H199       -2.8963  -22.2081  -43.9538 H         1 UNK         0.0600 
    200 H200       -1.0811  -23.2842  -45.6902 H         1 UNK         0.3000 
    201 H201        0.0106  -25.6547  -44.5259 H         1 UNK         0.0600 
    202 H202        1.2648  -23.5122  -44.7039 H         1 UNK         0.0600 
    203 H203        1.2851  -23.6466  -46.4600 H         1 UNK         0.0600 
    204 H204        2.1473  -24.8211  -45.4770 H         1 UNK         0.0600 
    205 H205       -0.7095  -24.7525  -47.9180 H         1 UNK         0.3000 
    206 H206        0.2927  -27.1947  -49.0792 H         1 UNK         0.0600 
    207 H207        0.2048  -25.0273  -50.3036 H         1 UNK         0.0600 
    208 H208       -0.7314  -26.2507  -51.1483 H         1 UNK         0.0600 
    209 H209       -1.5549  -25.0195  -50.1995 H         1 UNK         0.0600 
    210 H210       -2.6532  -26.4256  -47.5083 H         1 UNK         0.3000 
    211 H211       -4.6003  -27.3797  -47.1240 H         1 UNK         0.0600 
    212 H212       -3.6031  -29.9541  -48.4538 H         1 UNK         0.0600 
    213 H213       -5.0020  -29.7845  -47.4055 H         1 UNK         0.0600 
    214 H214       -3.3899  -29.5417  -46.7526 H         1 UNK         0.0600 
    215 H215       -4.3811  -25.6393  -49.1225 H         1 UNK         0.3000 
    216 H216       -6.1769  -26.5456  -51.3408 H         1 UNK         0.0600 
    217 H217       -5.1299  -24.6848  -52.6217 H         1 UNK         0.0600 
    218 H218       -3.8739  -25.7659  -52.0425 H         1 UNK         0.0600 
    219 H219       -4.1568  -24.2288  -51.2297 H         1 UNK         0.0600 
    220 H220       -7.4277  -24.5446  -52.1850 H         1 UNK         0.3000 
    221 H221       -9.0937  -23.4106  -50.1161 H         1 UNK         0.0600 
    222 H222       -8.8850  -22.8158  -53.1221 H         1 UNK         0.0600 
    223 H223       -9.9779  -23.9822  -52.3753 H         1 UNK         0.0600 
    224 H224      -10.1749  -22.2655  -52.0600 H         1 UNK         0.0600 
    225 H225       -9.1593  -21.3016  -49.3813 H         1 UNK         0.3000 
    226 H226       -6.6628  -19.9622  -49.1057 H         1 UNK         0.0600 
    227 H227       -8.2522  -20.2226  -47.2492 H         1 UNK         0.0600 
    228 H228       -7.9608  -18.5182  -47.5444 H         1 UNK         0.0600 
    229 H229       -9.4588  -19.2551  -48.0990 H         1 UNK         0.0600 
    230 H230       -6.6923  -19.7209  -51.6295 H         1 UNK         0.3000 
    231 H231       -6.7154  -16.8449  -52.0930 H         1 UNK         0.0600 
    232 H232       -8.0576  -16.9910  -54.1994 H         1 UNK         0.0600 
    233 H233       -9.0418  -17.4212  -52.8123 H         1 UNK         0.0600 
    234 H234       -8.4174  -18.6841  -53.8717 H         1 UNK         0.0600 
    235 H235       -4.5791  -18.4235  -51.6166 H         1 UNK         0.3000 
    236 H236       -3.4300  -19.6045  -53.9806 H         1 UNK         0.0600 
    237 H237       -2.7235  -20.3352  -51.7532 H         1 UNK         0.0600 
    238 H238       -1.3481  -19.6730  -52.6023 H         1 UNK         0.0600 
    239 H239       -2.1368  -18.7217  -51.3470 H         1 UNK         0.0600 
    240 H240       -3.6473  -16.3334  -52.8728 H         1 UNK         0.3000 
    241 H241       -2.3160  -15.3909  -55.2947 H         1 UNK         0.0600 
    242 H242       -3.2213  -13.2524  -55.9926 H         1 UNK         0.3800 
    243 H243       -4.8033  -12.8220  -55.4100 H         1 UNK         0.3800 
    244 H244       -1.3728  -13.3801  -54.0523 H         1 UNK         0.0800 
    245 H245       -1.7247  -14.1653  -52.5390 H         1 UNK         0.0800 
    246 H246        0.6508  -14.7294  -51.3986 H         1 UNK         0.0800 
    247 H247       -0.4624  -16.0706  -51.5529 H         1 UNK         0.0800 
@<TRIPOS>BOND
     1    1    2 1    
     2    1  127 1    
     3    1  128 1    
     4    1  129 1    
     5    2    3 2    
     6    2    4 am   BACKBONE|DICT|INTERRES
     7    4    5 1    
     8    4  130 1    
     9    5    6 1    
    10    5   65 1    
    11    5  131 1    
    12    6    7 1    
    13    6  132 1    
    14    6  133 1    
    15    7    8 1    
    16    8    9 1    
    17    8  134 1    
    18    8  135 1    
    19    9   10 ar   
    20    9   14 ar   
    21   10   11 ar   
    22   10  136 1    
    23   11   12 ar   
    24   11  126 1    
    25   12   13 ar   
    26   12  137 1    
    27   13   14 ar   
    28   13   15 1    
    29   14  138 1    
    30   15   16 1    
    31   15  139 1    
    32   15  140 1    
    33   16   17 1    
    34   17   18 1    
    35   17  141 1    
    36   17  142 1    
    37   18   19 1    
    38   18   67 1    
    39   18  143 1    
    40   19   20 am   BACKBONE|DICT|INTERRES
    41   19  144 1    
    42   20   21 2    
    43   20   22 1    
    44   22   23 1    
    45   22   24 1    
    46   22  145 1    
    47   23  146 1    
    48   23  147 1    
    49   23  148 1    
    50   24   25 am   BACKBONE|DICT|INTERRES
    51   24  149 1    
    52   25   26 2    
    53   25   27 1    
    54   27   28 1    
    55   27   29 1    
    56   27  150 1    
    57   28  151 1    
    58   28  152 1    
    59   28  153 1    
    60   29   30 am   BACKBONE|DICT|INTERRES
    61   29  154 1    
    62   30   31 2    
    63   30   32 1    
    64   32   33 1    
    65   32   34 1    
    66   32  155 1    
    67   33  156 1    
    68   33  157 1    
    69   33  158 1    
    70   34   35 am   BACKBONE|DICT|INTERRES
    71   34  159 1    
    72   35   36 2    
    73   35   37 1    
    74   37   38 1    
    75   37   39 1    
    76   37  160 1    
    77   38  161 1    
    78   38  162 1    
    79   38  163 1    
    80   39   40 am   BACKBONE|DICT|INTERRES
    81   39  164 1    
    82   40   41 2    
    83   40   42 1    
    84   42   43 1    
    85   42   44 1    
    86   42  165 1    
    87   43  166 1    
    88   43  167 1    
    89   43  168 1    
    90   44   45 am   BACKBONE|DICT|INTERRES
    91   44  169 1    
    92   45   46 2    
    93   45   47 1    
    94   47   48 1    
    95   47   49 1    
    96   47  170 1    
    97   48  171 1    
    98   48  172 1    
    99   48  173 1    
   100   49   50 am   BACKBONE|DICT|INTERRES
   101   49  174 1    
   102   50   51 2    
   103   50   52 1    
   104   52   53 1    
   105   52   54 1    
   106   52  175 1    
   107   53  176 1    
   108   53  177 1    
   109   53  178 1    
   110   54   55 am   BACKBONE|DICT|INTERRES
   111   54  179 1    
   112   55   56 2    
   113   55   57 1    
   114   57   58 1    
   115   57   59 1    
   116   57  180 1    
   117   58  181 1    
   118   58  182 1    
   119   58  183 1    
   120   59   60 am   BACKBONE|DICT|INTERRES
   121   59  184 1    
   122   60   61 2    
   123   60   62 1    
   124   62   63 1    
   125   62   64 1    
   126   62  185 1    
   127   63  186 1    
   128   63  187 1    
   129   63  188 1    
   130   64   65 am   BACKBONE|DICT|INTERRES
   131   64  189 1    
   132   65   66 2    
   133   67   68 2    
   134   67   69 am   BACKBONE|DICT|INTERRES
   135   69   70 1    
   136   69  190 1    
   137   70   71 1    
   138   70   72 1    
   139   70  191 1    
   140   71  192 1    
   141   71  193 1    
   142   71  194 1    
   143   72   73 2    
   144   72   74 am   BACKBONE|DICT|INTERRES
   145   74   75 1    
   146   74  195 1    
   147   75   76 1    
   148   75   77 1    
   149   75  196 1    
   150   76  197 1    
   151   76  198 1    
   152   76  199 1    
   153   77   78 2    
   154   77   79 am   BACKBONE|DICT|INTERRES
   155   79   80 1    
   156   79  200 1    
   157   80   81 1    
   158   80   82 1    
   159   80  201 1    
   160   81  202 1    
   161   81  203 1    
   162   81  204 1    
   163   82   83 2    
   164   82   84 am   BACKBONE|DICT|INTERRES
   165   84   85 1    
   166   84  205 1    
   167   85   86 1    
   168   85   87 1    
   169   85  206 1    
   170   86  207 1    
   171   86  208 1    
   172   86  209 1    
   173   87   88 2    
   174   87   89 am   BACKBONE|DICT|INTERRES
   175   89   90 1    
   176   89  210 1    
   177   90   91 1    
   178   90   92 1    
   179   90  211 1    
   180   91  212 1    
   181   91  213 1    
   182   91  214 1    
   183   92   93 2    
   184   92   94 am   BACKBONE|DICT|INTERRES
   185   94   95 1    
   186   94  215 1    
   187   95   96 1    
   188   95   97 1    
   189   95  216 1    
   190   96  217 1    
   191   96  218 1    
   192   96  219 1    
   193   97   98 2    
   194   97   99 am   BACKBONE|DICT|INTERRES
   195   99  100 1    
   196   99  220 1    
   197  100  101 1    
   198  100  102 1    
   199  100  221 1    
   200  101  222 1    
   201  101  223 1    
   202  101  224 1    
   203  102  103 2    
   204  102  104 am   BACKBONE|DICT|INTERRES
   205  104  105 1    
   206  104  225 1    
   207  105  106 1    
   208  105  107 1    
   209  105  226 1    
   210  106  227 1    
   211  106  228 1    
   212  106  229 1    
   213  107  108 2    
   214  107  109 am   BACKBONE|DICT|INTERRES
   215  109  110 1    
   216  109  230 1    
   217  110  111 1    
   218  110  112 1    
   219  110  231 1    
   220  111  232 1    
   221  111  233 1    
   222  111  234 1    
   223  112  113 2    
   224  112  114 am   BACKBONE|DICT|INTERRES
   225  114  115 1    
   226  114  235 1    
   227  115  116 1    
   228  115  117 1    
   229  115  236 1    
   230  116  237 1    
   231  116  238 1    
   232  116  239 1    
   233  117  118 2    
   234  117  119 am   BACKBONE|DICT|INTERRES
   235  119  120 1    
   236  119  240 1    
   237  120  121 1    
   238  120  124 1    
   239  120  241 1    
   240  121  122 am   BACKBONE|DICT|INTERRES
   241  121  123 2    
   242  122  242 1    
   243  122  243 1    
   244  124  125 1    
   245  124  244 1    
   246  124  245 1    
   247  125  126 1    
   248  126  246 1    
   249  126  247 1    
@<TRIPOS>SUBSTRUCTURE
     1 UNK         1 GROUP             0       ****    0 ROOT    
