@<TRIPOS>MOLECULE
3R540
247   249    1
SMALL
USER_CHARGES


@<TRIPOS>ATOM
      1 CA          3.9062  -17.0375  -50.0581 C.3       0 UNK        -0.1800 
      2 C           3.0503  -16.1649  -49.1513 C.2       0 UNK         0.5000 
      3 O           2.7816  -16.5471  -48.0123 O.2       0 UNK        -0.5000 
      4 N           2.6148  -15.0066  -49.6628 N.am      1 UNK        -0.5000 
      5 CA          1.7909  -14.0297  -48.9475 C.3       1 UNK         0.1400 
      6 C6          1.1296  -13.0228  -49.9250 C.3       23 UNK        -0.0398 
      7 S7         -0.4550  -12.3799  -49.2840 S.3       23 UNK        -0.2404 
      8 C8         -1.6633  -13.2576  -50.3252 C.3       23 UNK        -0.0205 
      9 C9         -1.7753  -14.7308  -49.9613 C.ar      23 UNK        -0.0193 
     10 C10        -0.9480  -15.6746  -50.5759 C.ar      23 UNK        -0.1150 
     11 C11        -1.0667  -17.0314  -50.2702 C.ar      23 UNK        -0.0193 
     12 C12        -2.0308  -17.4468  -49.3485 C.ar      23 UNK        -0.1150 
     13 C13        -2.8658  -16.5136  -48.7254 C.ar      23 UNK        -0.0193 
     14 C14        -2.7286  -15.1564  -49.0318 C.ar      23 UNK        -0.1150 
     15 C15        -3.9434  -16.9710  -47.7531 C.3       23 UNK        -0.0205 
     16 S16        -3.4584  -16.7824  -46.0028 S.3       23 UNK        -0.2404 
     17 C17        -1.9401  -17.7876  -45.8441 C.3       23 UNK        -0.0398 
     18 CA         -2.1166  -19.2884  -46.1796 C.3       11 UNK         0.1400 
     19 N          -0.8466  -19.9389  -46.5140 N.am      11 UNK        -0.5000 
     20 C          -0.7598  -21.0092  -47.3172 C.2       10 UNK         0.5000 
     21 O          -1.7363  -21.5309  -47.8533 O.2       10 UNK        -0.5000 
     22 CA          0.6290  -21.6259  -47.5573 C.3       10 UNK         0.1400 
     23 CB          1.2685  -21.0410  -48.8236 C.3       10 UNK        -0.1800 
     24 N           1.5621  -21.4745  -46.4459 N.am      10 UNK        -0.5000 
     25 C           1.3974  -21.9271  -45.1987 C.2       9 UNK         0.5000 
     26 O           0.3713  -22.4907  -44.8168 O.2       9 UNK        -0.5000 
     27 CA          2.5559  -21.7002  -44.2038 C.3       9 UNK         0.1400 
     28 CB          3.4329  -22.9597  -44.0870 C.3       9 UNK        -0.1800 
     29 N           3.3746  -20.5037  -44.4590 N.am      9 UNK        -0.5000 
     30 C           4.1722  -20.2022  -45.4953 C.2       8 UNK         0.5000 
     31 O           4.3772  -20.9699  -46.4362 O.2       8 UNK        -0.5000 
     32 CA          4.7754  -18.7775  -45.5144 C.3       8 UNK         0.1400 
     33 CB          5.4196  -18.4306  -46.8677 C.3       8 UNK        -0.1800 
     34 N           3.7676  -17.7598  -45.1932 N.am      8 UNK        -0.5000 
     35 C           3.3676  -17.4623  -43.9495 C.2       7 UNK         0.5000 
     36 O           3.8814  -17.9665  -42.9482 O.2       7 UNK        -0.5000 
     37 CA          2.1765  -16.5019  -43.7661 C.3       7 UNK         0.1400 
     38 CB          1.4399  -16.1294  -45.0689 C.3       7 UNK        -0.1800 
     39 N           1.2393  -17.0331  -42.7787 N.am      7 UNK        -0.5000 
     40 C           0.5303  -18.1693  -42.8524 C.2       6 UNK         0.5000 
     41 O           0.5292  -18.9307  -43.8230 O.2       6 UNK        -0.5000 
     42 CA         -0.3196  -18.5293  -41.6198 C.3       6 UNK         0.1400 
     43 CB          0.4191  -19.5824  -40.7788 C.3       6 UNK        -0.1800 
     44 N          -0.6298  -17.3879  -40.7583 N.am      6 UNK        -0.5000 
     45 C          -1.3860  -16.3311  -41.0859 C.2       5 UNK         0.5000 
     46 O          -1.9947  -16.2263  -42.1506 O.2       5 UNK        -0.5000 
     47 CA         -1.4612  -15.1917  -40.0480 C.3       5 UNK         0.1400 
     48 CB         -1.4551  -15.7060  -38.5922 C.3       5 UNK        -0.1800 
     49 N          -0.4242  -14.1664  -40.2219 N.am      5 UNK        -0.5000 
     50 C           0.9060  -14.3207  -40.2863 C.2       4 UNK         0.5000 
     51 O           1.4699  -15.4159  -40.3160 O.2       4 UNK        -0.5000 
     52 CA          1.7483  -13.0258  -40.3111 C.3       4 UNK         0.1400 
     53 CB          3.2622  -13.3085  -40.2974 C.3       4 UNK        -0.1800 
     54 N           1.4565  -12.1646  -41.4565 N.am      4 UNK        -0.5000 
     55 C           0.3719  -11.3970  -41.6274 C.2       3 UNK         0.5000 
     56 O          -0.5678  -11.3635  -40.8312 O.2       3 UNK        -0.5000 
     57 CA          0.3355  -10.5026  -42.8846 C.3       3 UNK         0.1400 
     58 CB          0.5269   -9.0276  -42.4976 C.3       3 UNK        -0.1800 
     59 N           1.3476  -10.8611  -43.8847 N.am      3 UNK        -0.5000 
     60 C           1.2493  -11.9078  -44.7119 C.2       2 UNK         0.5000 
     61 O           0.2816  -12.6730  -44.7346 O.2       2 UNK        -0.5000 
     62 CA          2.4387  -12.1534  -45.6510 C.3       2 UNK         0.1400 
     63 CB          3.6102  -12.8140  -44.8978 C.3       2 UNK        -0.1800 
     64 N           1.9671  -12.9967  -46.7422 N.am      2 UNK        -0.5000 
     65 C           2.6093  -13.2777  -47.8781 C.2       1 UNK         0.5000 
     66 O           3.7633  -12.9200  -48.1274 O.2       1 UNK        -0.5000 
     67 C          -2.8989  -20.0784  -45.1103 C.2       11 UNK         0.5000 
     68 O          -4.1220  -20.1739  -45.2161 O.2       11 UNK        -0.5000 
     69 N          -2.1955  -20.7192  -44.1620 N.am      12 UNK        -0.5000 
     70 CA         -2.7920  -21.6882  -43.2313 C.3       12 UNK         0.1400 
     71 CB         -1.8177  -22.0173  -42.0914 C.3       12 UNK        -0.1800 
     72 C          -3.2525  -22.9755  -43.9403 C.2       12 UNK         0.5000 
     73 O          -4.2651  -23.5577  -43.5518 O.2       12 UNK        -0.5000 
     74 N          -2.5316  -23.3612  -45.0012 N.am      13 UNK        -0.5000 
     75 CA         -2.8855  -24.4520  -45.9104 C.3       13 UNK         0.1400 
     76 CB         -1.6152  -24.9275  -46.6340 C.3       13 UNK        -0.1800 
     77 C          -3.9896  -24.0803  -46.9259 C.2       13 UNK         0.5000 
     78 O          -4.3147  -24.9129  -47.7716 O.2       13 UNK        -0.5000 
     79 N          -4.5321  -22.8538  -46.8540 N.am      14 UNK        -0.5000 
     80 CA         -5.5975  -22.3009  -47.6977 C.3       14 UNK         0.1400 
     81 CB         -6.9308  -23.0323  -47.4363 C.3       14 UNK        -0.1800 
     82 C          -5.2126  -22.2664  -49.1900 C.2       14 UNK         0.5000 
     83 O          -5.9632  -22.7509  -50.0386 O.2       14 UNK        -0.5000 
     84 N          -4.0166  -21.7300  -49.4708 N.am      15 UNK        -0.5000 
     85 CA         -3.3653  -21.6614  -50.7822 C.3       15 UNK         0.1400 
     86 CB         -4.1481  -20.7488  -51.7465 C.3       15 UNK        -0.1800 
     87 C          -3.0904  -23.0657  -51.3526 C.2       15 UNK         0.5000 
     88 O          -3.3435  -23.3195  -52.5328 O.2       15 UNK        -0.5000 
     89 N          -2.6080  -23.9553  -50.4710 N.am      16 UNK        -0.5000 
     90 CA         -2.3569  -25.3827  -50.6924 C.3       16 UNK         0.1400 
     91 CB         -1.1813  -25.5770  -51.6731 C.3       16 UNK        -0.1800 
     92 C          -3.6369  -26.1254  -51.1264 C.2       16 UNK         0.5000 
     93 O          -3.6468  -26.7855  -52.1640 O.2       16 UNK        -0.5000 
     94 N          -4.7161  -25.9467  -50.3508 N.am      17 UNK        -0.5000 
     95 CA         -6.0849  -26.4028  -50.6247 C.3       17 UNK         0.1400 
     96 CB         -6.1838  -27.9354  -50.4846 C.3       17 UNK        -0.1800 
     97 C          -6.6139  -25.8805  -51.9795 C.2       17 UNK         0.5000 
     98 O          -7.2099  -26.6322  -52.7528 O.2       17 UNK        -0.5000 
     99 N          -6.3344  -24.5971  -52.2443 N.am      18 UNK        -0.5000 
    100 CA        -6.5974  -23.8387  -53.4691 C.3       18 UNK         0.1400 
    101 CB        -8.1138  -23.7100  -53.7194 C.3       18 UNK        -0.1800 
    102 C         -5.8335  -24.3248  -54.7223 C.2       18 UNK         0.5000 
    103 O         -6.1463  -23.8609  -55.8196 O.2       18 UNK        -0.5000 
    104 N         -4.8378  -25.2124  -54.5691 N.am      19 UNK        -0.5000 
    105 CA        -4.0157  -25.7086  -55.6763 C.3       19 UNK         0.1400 
    106 CB        -3.3130  -27.0133  -55.2749 C.3       19 UNK        -0.1800 
    107 C         -2.9855  -24.6734  -56.1605 C.2       19 UNK         0.5000 
    108 O         -2.6989  -24.6297  -57.3578 O.2       19 UNK        -0.5000 
    109 N         -2.4560  -23.8534  -55.2399 N.am      20 UNK        -0.5000 
    110 CA        -1.5678  -22.7360  -55.5686 C.3       20 UNK         0.1400 
    111 CB        -0.7004  -22.3799  -54.3502 C.3       20 UNK        -0.1800 
    112 C         -2.3691  -21.5101  -56.0394 C.2       20 UNK         0.5000 
    113 O         -1.8903  -20.7640  -56.8935 O.2       20 UNK        -0.5000 
    114 N         -3.5733  -21.3385  -55.4694 N.am      21 UNK        -0.5000 
    115 CA        -4.5667  -20.2938  -55.7564 C.3       21 UNK         0.1400 
    116 CB        -5.1342  -20.4693  -57.1799 C.3       21 UNK        -0.1800 
    117 C         -4.0759  -18.8519  -55.4871 C.2       21 UNK         0.5000 
    118 O         -4.6348  -17.8992  -56.0338 O.2       21 UNK        -0.5000 
    119 N         -3.0420  -18.7180  -54.6497 N.am      22 UNK        -0.5000 
    120 CA        -2.4613  -17.4520  -54.1910 C.3       22 UNK         0.1400 
    121 C         -3.3951  -16.6447  -53.2433 C.2       22 UNK         0.5000 
    122 N         -3.2253  -15.3306  -53.1787 N.am      22 UNK        -0.7600 
    123 O         -4.2646  -17.1888  -52.5665 O.2       22 UNK        -0.5000 
    124 C124       -1.0453  -17.6759  -53.5957 C.3       23 UNK        -0.0398 
    125 S125       -0.9602  -18.9482  -52.2815 S.3       23 UNK        -0.2404 
    126 C126       -0.1465  -18.0475  -50.9259 C.3       23 UNK        -0.0205 
    127 H127        3.9063  -16.6753  -51.0864 H         1 UNK         0.0600 
    128 H128        3.5282  -18.0600  -50.0599 H         1 UNK         0.0600 
    129 H129        4.9358  -17.0523  -49.7011 H         1 UNK         0.0600 
    130 H130        2.9172  -14.7330  -50.5861 H         1 UNK         0.3000 
    131 H131        1.0039  -14.5982  -48.4451 H         1 UNK         0.0600 
    132 H132        1.7887  -12.1796  -50.1421 H         1 UNK         0.0800 
    133 H133        0.9496  -13.4856  -50.8943 H         1 UNK         0.0800 
    134 H134       -2.6357  -12.7767  -50.2092 H         1 UNK         0.0800 
    135 H135       -1.3986  -13.1449  -51.3776 H         1 UNK         0.0800 
    136 H136       -0.2147  -15.3568  -51.3013 H         1 UNK         0.1150 
    137 H137       -2.1339  -18.4998  -49.1310 H         1 UNK         0.1150 
    138 H138       -3.3753  -14.4326  -48.5560 H         1 UNK         0.1150 
    139 H139       -4.8436  -16.3777  -47.9200 H         1 UNK         0.0800 
    140 H140       -4.2391  -17.9999  -47.9583 H         1 UNK         0.0800 
    141 H141       -1.5567  -17.6572  -44.8325 H         1 UNK         0.0800 
    142 H142       -1.1919  -17.3445  -46.5026 H         1 UNK         0.0800 
    143 H143       -2.7277  -19.3442  -47.0787 H         1 UNK         0.0600 
    144 H144       -0.0150  -19.5910  -46.0542 H         1 UNK         0.3000 
    145 H145        0.4873  -22.6955  -47.7167 H         1 UNK         0.0600 
    146 H146        2.1857  -21.5714  -49.0808 H         1 UNK         0.0600 
    147 H147        0.5966  -21.1242  -49.6793 H         1 UNK         0.0600 
    148 H148        1.5204  -19.9878  -48.6932 H         1 UNK         0.0600 
    149 H149        2.4739  -21.0889  -46.6684 H         1 UNK         0.3000 
    150 H150        2.0899  -21.5320  -43.2319 H         1 UNK         0.0600 
    151 H151        2.8351  -23.8226  -43.7908 H         1 UNK         0.0600 
    152 H152        4.2110  -22.8299  -43.3349 H         1 UNK         0.0600 
    153 H153        3.9165  -23.2091  -45.0318 H         1 UNK         0.0600 
    154 H154        3.2705  -19.7723  -43.7645 H         1 UNK         0.3000 
    155 H155        5.5645  -18.7516  -44.7602 H         1 UNK         0.0600 
    156 H156        6.2569  -19.0950  -47.0844 H         1 UNK         0.0600 
    157 H157        5.8030  -17.4102  -46.8765 H         1 UNK         0.0600 
    158 H158        4.7043  -18.5289  -47.6841 H         1 UNK         0.0600 
    159 H159        3.2921  -17.3371  -45.9834 H         1 UNK         0.3000 
    160 H160        2.5791  -15.5893  -43.3276 H         1 UNK         0.0600 
    161 H161        1.1017  -17.0074  -45.6194 H         1 UNK         0.0600 
    162 H162        2.0912  -15.5568  -45.7261 H         1 UNK         0.0600 
    163 H163        0.5673  -15.5089  -44.8637 H         1 UNK         0.0600 
    164 H164        1.2117  -16.5267  -41.8982 H         1 UNK         0.3000 
    165 H165       -1.2610  -18.9472  -41.9792 H         1 UNK         0.0600 
    166 H166       -0.1889  -19.9170  -39.9381 H         1 UNK         0.0600 
    167 H167        0.6648  -20.4620  -41.3749 H         1 UNK         0.0600 
    168 H168        1.3555  -19.1904  -40.3794 H         1 UNK         0.0600 
    169 H169       -0.1316  -17.3467  -39.8806 H         1 UNK         0.3000 
    170 H170       -2.4170  -14.6917  -40.2120 H         1 UNK         0.0600 
    171 H171       -0.4891  -16.1202  -38.3017 H         1 UNK         0.0600 
    172 H172       -1.6873  -14.8999  -37.8960 H         1 UNK         0.0600 
    173 H173       -2.2070  -16.4827  -38.4464 H         1 UNK         0.0600 
    174 H174       -0.7640  -13.2103  -40.2819 H         1 UNK         0.3000 
    175 H175        1.5083  -12.4751  -39.3992 H         1 UNK         0.0600 
    176 H176        3.5800  -13.8475  -41.1910 H         1 UNK         0.0600 
    177 H177        3.8363  -12.3835  -40.2416 H         1 UNK         0.0600 
    178 H178        3.5408  -13.9121  -39.4325 H         1 UNK         0.0600 
    179 H179        2.1619  -12.1340  -42.1761 H         1 UNK         0.3000 
    180 H180       -0.6551  -10.6104  -43.3320 H         1 UNK         0.0600 
    181 H181        1.5029   -8.8538  -42.0427 H         1 UNK         0.0600 
    182 H182       -0.2308   -8.7091  -41.7803 H         1 UNK         0.0600 
    183 H183        0.4404   -8.3769  -43.3680 H         1 UNK         0.0600 
    184 H184        2.1678  -10.2724  -43.9254 H         1 UNK         0.3000 
    185 H185        2.7594  -11.1950  -46.0642 H         1 UNK         0.0600 
    186 H186        3.3331  -13.7874  -44.4989 H         1 UNK         0.0600 
    187 H187        4.4755  -12.9556  -45.5448 H         1 UNK         0.0600 
    188 H188        3.9387  -12.1975  -44.0605 H         1 UNK         0.0600 
    189 H189        1.0091  -13.3030  -46.6141 H         1 UNK         0.3000 
    190 H190       -1.1866  -20.6388  -44.1618 H         1 UNK         0.3000 
    191 H191       -3.6800  -21.2332  -42.7870 H         1 UNK         0.0600 
    192 H192       -0.8224  -22.2661  -42.4587 H         1 UNK         0.0600 
    193 H193       -1.7333  -21.1798  -41.4033 H         1 UNK         0.0600 
    194 H194       -2.1706  -22.8662  -41.5039 H         1 UNK         0.0600 
    195 H195       -1.6708  -22.8640  -45.2003 H         1 UNK         0.3000 
    196 H196       -3.2640  -25.2857  -45.3157 H         1 UNK         0.0600 
    197 H197       -0.8103  -25.1372  -45.9291 H         1 UNK         0.0600 
    198 H198       -1.2556  -24.1847  -47.3441 H         1 UNK         0.0600 
    199 H199       -1.8046  -25.8459  -47.1905 H         1 UNK         0.0600 
    200 H200       -4.1836  -22.2267  -46.1411 H         1 UNK         0.3000 
    201 H201       -5.7260  -21.2619  -47.3908 H         1 UNK         0.0600 
    202 H202       -7.7491  -22.5558  -47.9773 H         1 UNK         0.0600 
    203 H203       -7.1882  -23.0141  -46.3773 H         1 UNK         0.0600 
    204 H204       -6.8934  -24.0746  -47.7544 H         1 UNK         0.0600 
    205 H205       -3.4170  -21.4657  -48.6932 H         1 UNK         0.3000 
    206 H206       -2.3885  -21.2043  -50.6188 H         1 UNK         0.0600 
    207 H207       -4.2671  -19.7493  -51.3283 H         1 UNK         0.0600 
    208 H208       -5.1397  -21.1379  -51.9733 H         1 UNK         0.0600 
    209 H209       -3.6157  -20.6401  -52.6892 H         1 UNK         0.0600 
    210 H210       -2.4764  -23.6327  -49.5229 H         1 UNK         0.3000 
    211 H211       -2.0629  -25.8049  -49.7307 H         1 UNK         0.0600 
    212 H212       -0.2900  -25.0536  -51.3279 H         1 UNK         0.0600 
    213 H213       -0.9233  -26.6323  -51.7666 H         1 UNK         0.0600 
    214 H214       -1.4178  -25.2106  -52.6723 H         1 UNK         0.0600 
    215 H215       -4.6007  -25.4160  -49.4885 H         1 UNK         0.3000 
    216 H216       -6.7162  -25.9562  -49.8553 H         1 UNK         0.0600 
    217 H217       -7.2178  -28.2696  -50.5738 H         1 UNK         0.0600 
    218 H218       -5.6059  -28.4510  -51.2521 H         1 UNK         0.0600 
    219 H219       -5.8193  -28.2653  -49.5118 H         1 UNK         0.0600 
    220 H220       -5.8868  -24.0595  -51.5069 H         1 UNK         0.3000 
    221 H221       -6.2179  -22.8362  -53.2720 H         1 UNK         0.0600 
    222 H222       -8.5616  -24.6648  -53.9956 H         1 UNK         0.0600 
    223 H223       -8.6289  -23.3403  -52.8328 H         1 UNK         0.0600 
    224 H224       -8.3206  -23.0079  -54.5278 H         1 UNK         0.0600 
    225 H225       -4.6094  -25.5522  -53.6416 H         1 UNK         0.3000 
    226 H226       -4.6782  -25.9367  -56.5142 H         1 UNK         0.0600 
    227 H227       -4.0217  -27.7421  -54.8809 H         1 UNK         0.0600 
    228 H228       -2.8212  -27.4682  -56.1354 H         1 UNK         0.0600 
    229 H229       -2.5467  -26.8425  -54.5183 H         1 UNK         0.0600 
    230 H230       -2.7636  -23.9238  -54.2733 H         1 UNK         0.3000 
    231 H231       -0.8994  -23.0367  -56.3783 H         1 UNK         0.0600 
    232 H232        0.0407  -21.6237  -54.6118 H         1 UNK         0.0600 
    233 H233       -0.1602  -23.2510  -53.9795 H         1 UNK         0.0600 
    234 H234       -1.2929  -21.9772  -53.5295 H         1 UNK         0.0600 
    235 H235       -3.8462  -22.0186  -54.7741 H         1 UNK         0.3000 
    236 H236       -5.3860  -20.4624  -55.0560 H         1 UNK         0.0600 
    237 H237       -5.4911  -21.4872  -57.3380 H         1 UNK         0.0600 
    238 H238       -5.9790  -19.8015  -57.3521 H         1 UNK         0.0600 
    239 H239       -4.3856  -20.2540  -57.9428 H         1 UNK         0.0600 
    240 H240       -2.6545  -19.5480  -54.2287 H         1 UNK         0.3000 
    241 H241       -2.3333  -16.8365  -55.0838 H         1 UNK         0.0600 
    242 H242       -3.8193  -14.7998  -52.5624 H         1 UNK         0.3800 
    243 H243       -2.5349  -14.8534  -53.7358 H         1 UNK         0.3800 
    244 H244       -0.3755  -17.9993  -54.3935 H         1 UNK         0.0800 
    245 H245       -0.6271  -16.7343  -53.2403 H         1 UNK         0.0800 
    246 H246        0.7631  -17.5705  -51.2941 H         1 UNK         0.0800 
    247 H247        0.1739  -18.7655  -50.1734 H         1 UNK         0.0800 
@<TRIPOS>BOND
     1    1    2 1    
     2    1  127 1    
     3    1  128 1    
     4    1  129 1    
     5    2    3 2    
     6    2    4 am   BACKBONE|DICT|INTERRES
     7    4    5 1    
     8    4  130 1    
     9    5    6 1    
    10    5   65 1    
    11    5  131 1    
    12    6    7 1    
    13    6  132 1    
    14    6  133 1    
    15    7    8 1    
    16    8    9 1    
    17    8  134 1    
    18    8  135 1    
    19    9   10 ar   
    20    9   14 ar   
    21   10   11 ar   
    22   10  136 1    
    23   11   12 ar   
    24   11  126 1    
    25   12   13 ar   
    26   12  137 1    
    27   13   14 ar   
    28   13   15 1    
    29   14  138 1    
    30   15   16 1    
    31   15  139 1    
    32   15  140 1    
    33   16   17 1    
    34   17   18 1    
    35   17  141 1    
    36   17  142 1    
    37   18   19 1    
    38   18   67 1    
    39   18  143 1    
    40   19   20 am   BACKBONE|DICT|INTERRES
    41   19  144 1    
    42   20   21 2    
    43   20   22 1    
    44   22   23 1    
    45   22   24 1    
    46   22  145 1    
    47   23  146 1    
    48   23  147 1    
    49   23  148 1    
    50   24   25 am   BACKBONE|DICT|INTERRES
    51   24  149 1    
    52   25   26 2    
    53   25   27 1    
    54   27   28 1    
    55   27   29 1    
    56   27  150 1    
    57   28  151 1    
    58   28  152 1    
    59   28  153 1    
    60   29   30 am   BACKBONE|DICT|INTERRES
    61   29  154 1    
    62   30   31 2    
    63   30   32 1    
    64   32   33 1    
    65   32   34 1    
    66   32  155 1    
    67   33  156 1    
    68   33  157 1    
    69   33  158 1    
    70   34   35 am   BACKBONE|DICT|INTERRES
    71   34  159 1    
    72   35   36 2    
    73   35   37 1    
    74   37   38 1    
    75   37   39 1    
    76   37  160 1    
    77   38  161 1    
    78   38  162 1    
    79   38  163 1    
    80   39   40 am   BACKBONE|DICT|INTERRES
    81   39  164 1    
    82   40   41 2    
    83   40   42 1    
    84   42   43 1    
    85   42   44 1    
    86   42  165 1    
    87   43  166 1    
    88   43  167 1    
    89   43  168 1    
    90   44   45 am   BACKBONE|DICT|INTERRES
    91   44  169 1    
    92   45   46 2    
    93   45   47 1    
    94   47   48 1    
    95   47   49 1    
    96   47  170 1    
    97   48  171 1    
    98   48  172 1    
    99   48  173 1    
   100   49   50 am   BACKBONE|DICT|INTERRES
   101   49  174 1    
   102   50   51 2    
   103   50   52 1    
   104   52   53 1    
   105   52   54 1    
   106   52  175 1    
   107   53  176 1    
   108   53  177 1    
   109   53  178 1    
   110   54   55 am   BACKBONE|DICT|INTERRES
   111   54  179 1    
   112   55   56 2    
   113   55   57 1    
   114   57   58 1    
   115   57   59 1    
   116   57  180 1    
   117   58  181 1    
   118   58  182 1    
   119   58  183 1    
   120   59   60 am   BACKBONE|DICT|INTERRES
   121   59  184 1    
   122   60   61 2    
   123   60   62 1    
   124   62   63 1    
   125   62   64 1    
   126   62  185 1    
   127   63  186 1    
   128   63  187 1    
   129   63  188 1    
   130   64   65 am   BACKBONE|DICT|INTERRES
   131   64  189 1    
   132   65   66 2    
   133   67   68 2    
   134   67   69 am   BACKBONE|DICT|INTERRES
   135   69   70 1    
   136   69  190 1    
   137   70   71 1    
   138   70   72 1    
   139   70  191 1    
   140   71  192 1    
   141   71  193 1    
   142   71  194 1    
   143   72   73 2    
   144   72   74 am   BACKBONE|DICT|INTERRES
   145   74   75 1    
   146   74  195 1    
   147   75   76 1    
   148   75   77 1    
   149   75  196 1    
   150   76  197 1    
   151   76  198 1    
   152   76  199 1    
   153   77   78 2    
   154   77   79 am   BACKBONE|DICT|INTERRES
   155   79   80 1    
   156   79  200 1    
   157   80   81 1    
   158   80   82 1    
   159   80  201 1    
   160   81  202 1    
   161   81  203 1    
   162   81  204 1    
   163   82   83 2    
   164   82   84 am   BACKBONE|DICT|INTERRES
   165   84   85 1    
   166   84  205 1    
   167   85   86 1    
   168   85   87 1    
   169   85  206 1    
   170   86  207 1    
   171   86  208 1    
   172   86  209 1    
   173   87   88 2    
   174   87   89 am   BACKBONE|DICT|INTERRES
   175   89   90 1    
   176   89  210 1    
   177   90   91 1    
   178   90   92 1    
   179   90  211 1    
   180   91  212 1    
   181   91  213 1    
   182   91  214 1    
   183   92   93 2    
   184   92   94 am   BACKBONE|DICT|INTERRES
   185   94   95 1    
   186   94  215 1    
   187   95   96 1    
   188   95   97 1    
   189   95  216 1    
   190   96  217 1    
   191   96  218 1    
   192   96  219 1    
   193   97   98 2    
   194   97   99 am   BACKBONE|DICT|INTERRES
   195   99  100 1    
   196   99  220 1    
   197  100  101 1    
   198  100  102 1    
   199  100  221 1    
   200  101  222 1    
   201  101  223 1    
   202  101  224 1    
   203  102  103 2    
   204  102  104 am   BACKBONE|DICT|INTERRES
   205  104  105 1    
   206  104  225 1    
   207  105  106 1    
   208  105  107 1    
   209  105  226 1    
   210  106  227 1    
   211  106  228 1    
   212  106  229 1    
   213  107  108 2    
   214  107  109 am   BACKBONE|DICT|INTERRES
   215  109  110 1    
   216  109  230 1    
   217  110  111 1    
   218  110  112 1    
   219  110  231 1    
   220  111  232 1    
   221  111  233 1    
   222  111  234 1    
   223  112  113 2    
   224  112  114 am   BACKBONE|DICT|INTERRES
   225  114  115 1    
   226  114  235 1    
   227  115  116 1    
   228  115  117 1    
   229  115  236 1    
   230  116  237 1    
   231  116  238 1    
   232  116  239 1    
   233  117  118 2    
   234  117  119 am   BACKBONE|DICT|INTERRES
   235  119  120 1    
   236  119  240 1    
   237  120  121 1    
   238  120  124 1    
   239  120  241 1    
   240  121  122 am   BACKBONE|DICT|INTERRES
   241  121  123 2    
   242  122  242 1    
   243  122  243 1    
   244  124  125 1    
   245  124  244 1    
   246  124  245 1    
   247  125  126 1    
   248  126  246 1    
   249  126  247 1    
@<TRIPOS>SUBSTRUCTURE
     1 UNK         1 GROUP             0       ****    0 ROOT    
