@<TRIPOS>MOLECULE
3R540
247   249    1
SMALL
USER_CHARGES


@<TRIPOS>ATOM
      1 CA         -4.1289  -15.2070  -47.8230 C.3       0 UNK        -0.1800 
      2 C          -3.1254  -14.4091  -48.6412 C.2       0 UNK         0.5000 
      3 O          -3.5191  -13.5269  -49.4040 O.2       0 UNK        -0.5000 
      4 N          -1.8294  -14.6975  -48.4726 N.am      1 UNK        -0.5000 
      5 CA         -0.6974  -14.0877  -49.1844 C.3       1 UNK         0.1400 
      6 C6          0.5571  -14.9976  -49.1348 C.3       23 UNK        -0.0398 
      7 S7          0.2895  -16.6673  -49.8106 S.3       23 UNK        -0.2404 
      8 C8          1.8128  -17.4693  -49.2043 C.3       23 UNK        -0.0205 
      9 C9          2.0404  -18.8696  -49.7638 C.ar      23 UNK        -0.0193 
     10 C10         1.7645  -19.1647  -51.1037 C.ar      23 UNK        -0.1150 
     11 C11         2.0182  -20.4365  -51.6213 C.ar      23 UNK        -0.0193 
     12 C12         2.5708  -21.4176  -50.7963 C.ar      23 UNK        -0.1150 
     13 C13         2.8568  -21.1385  -49.4573 C.ar      23 UNK        -0.0193 
     14 C14         2.5842  -19.8656  -48.9445 C.ar      23 UNK        -0.1150 
     15 C15         3.4867  -22.2107  -48.5821 C.3       23 UNK        -0.0205 
     16 S16         2.2852  -23.4915  -48.1099 S.3       23 UNK        -0.2404 
     17 C17         1.2986  -22.6060  -46.8585 C.3       23 UNK        -0.0398 
     18 CA          0.5222  -23.5688  -45.9276 C.3       11 UNK         0.1400 
     19 N           0.2958  -22.9624  -44.6115 N.am      11 UNK        -0.5000 
     20 C          -0.0614  -23.6212  -43.5004 C.2       10 UNK         0.5000 
     21 O          -0.2570  -24.8364  -43.4583 O.2       10 UNK        -0.5000 
     22 CA         -0.2638  -22.7674  -42.2356 C.3       10 UNK         0.1400 
     23 CB          1.0801  -22.4497  -41.5618 C.3       10 UNK        -0.1800 
     24 N          -0.9658  -21.5205  -42.5427 N.am      10 UNK        -0.5000 
     25 C          -2.2904  -21.4350  -42.7278 C.2       9 UNK         0.5000 
     26 O          -3.0627  -22.3785  -42.5612 O.2       9 UNK        -0.5000 
     27 CA         -2.8509  -20.0794  -43.1991 C.3       9 UNK         0.1400 
     28 CB         -3.2274  -19.2031  -41.9955 C.3       9 UNK        -0.1800 
     29 N          -1.9373  -19.3357  -44.0678 N.am      9 UNK        -0.5000 
     30 C          -1.5119  -19.7420  -45.2720 C.2       8 UNK         0.5000 
     31 O          -1.8725  -20.7853  -45.8099 O.2       8 UNK        -0.5000 
     32 CA         -0.4713  -18.8537  -45.9750 C.3       8 UNK         0.1400 
     33 CB         -1.1678  -17.6974  -46.7016 C.3       8 UNK        -0.1800 
     34 N           0.5322  -18.3167  -45.0560 N.am      8 UNK        -0.5000 
     35 C           1.3569  -19.0561  -44.3010 C.2       7 UNK         0.5000 
     36 O           1.3767  -20.2866  -44.3138 O.2       7 UNK        -0.5000 
     37 CA          2.2716  -18.2898  -43.3333 C.3       7 UNK         0.1400 
     38 CB          3.5374  -17.7976  -44.0516 C.3       7 UNK        -0.1800 
     39 N           1.5675  -17.1566  -42.7319 N.am      7 UNK        -0.5000 
     40 C           0.6645  -17.2715  -41.7470 C.2       6 UNK         0.5000 
     41 O           0.3979  -18.3351  -41.1871 O.2       6 UNK        -0.5000 
     42 CA         -0.0917  -15.9899  -41.3425 C.3       6 UNK         0.1400 
     43 CB          0.7082  -15.1969  -40.2983 C.3       6 UNK        -0.1800 
     44 N          -0.3934  -15.1202  -42.4822 N.am      6 UNK        -0.5000 
     45 C          -1.2296  -15.4419  -43.4794 C.2       5 UNK         0.5000 
     46 O          -1.8793  -16.4857  -43.5090 O.2       5 UNK        -0.5000 
     47 CA         -1.3162  -14.4678  -44.6725 C.3       5 UNK         0.1400 
     48 CB         -2.4999  -13.5064  -44.5060 C.3       5 UNK        -0.1800 
     49 N          -0.0851  -13.7106  -44.9257 N.am      5 UNK        -0.5000 
     50 C           1.1093  -14.2611  -45.1958 C.2       4 UNK         0.5000 
     51 O           1.2745  -15.4794  -45.2744 O.2       4 UNK        -0.5000 
     52 CA          2.3138  -13.3179  -45.3888 C.3       4 UNK         0.1400 
     53 CB          3.2858  -13.8317  -46.4657 C.3       4 UNK        -0.1800 
     54 N           1.8986  -11.9578  -45.7312 N.am      4 UNK        -0.5000 
     55 C           1.8103  -10.9329  -44.8725 C.2       3 UNK         0.5000 
     56 O           2.0864  -11.0223  -43.6760 O.2       3 UNK        -0.5000 
     57 CA          1.3131   -9.5832  -45.4318 C.3       3 UNK         0.1400 
     58 CB          2.5007   -8.6508  -45.7151 C.3       3 UNK        -0.1800 
     59 N           0.5096   -9.7095  -46.6503 N.am      3 UNK        -0.5000 
     60 C          -0.7010  -10.2793  -46.7162 C.2       2 UNK         0.5000 
     61 O          -1.2889  -10.7304  -45.7334 O.2       2 UNK        -0.5000 
     62 CA         -1.3536  -10.4060  -48.1098 C.3       2 UNK         0.1400 
     63 CB         -0.7040   -9.5137  -49.1911 C.3       2 UNK        -0.1800 
     64 N          -1.3998  -11.7996  -48.5656 N.am      2 UNK        -0.5000 
     65 C          -0.3748  -12.6557  -48.6832 C.2       1 UNK         0.5000 
     66 O           0.7867  -12.3520  -48.4032 O.2       1 UNK        -0.5000 
     67 C          -0.7712  -24.1010  -46.5915 C.2       11 UNK         0.5000 
     68 O          -0.6844  -24.9339  -47.4927 O.2       11 UNK        -0.5000 
     69 N          -1.9429  -23.6568  -46.1125 N.am      12 UNK        -0.5000 
     70 CA         -3.2902  -24.0245  -46.5639 C.3       12 UNK         0.1400 
     71 CB         -4.3153  -23.3545  -45.6377 C.3       12 UNK        -0.1800 
     72 C          -3.5710  -25.5402  -46.6328 C.2       12 UNK         0.5000 
     73 O          -4.4051  -25.9700  -47.4302 O.2       12 UNK        -0.5000 
     74 N          -2.8757  -26.3217  -45.7964 N.am      13 UNK        -0.5000 
     75 CA         -2.9360  -27.7821  -45.7788 C.3       13 UNK         0.1400 
     76 CB         -2.4049  -28.2753  -44.4239 C.3       13 UNK        -0.1800 
     77 C          -2.1539  -28.4430  -46.9333 C.2       13 UNK         0.5000 
     78 O          -2.4294  -29.6010  -47.2511 O.2       13 UNK        -0.5000 
     79 N          -1.1873  -27.7242  -47.5199 N.am      14 UNK        -0.5000 
     80 CA         -0.2875  -28.2200  -48.5602 C.3       14 UNK         0.1400 
     81 CB          1.1553  -27.8341  -48.1944 C.3       14 UNK        -0.1800 
     82 C          -0.6448  -27.6738  -49.9521 C.2       14 UNK         0.5000 
     83 O          -0.4942  -28.4023  -50.9343 O.2       14 UNK        -0.5000 
     84 N          -1.0990  -26.4171  -50.0287 N.am      15 UNK        -0.5000 
     85 CA         -1.4147  -25.7205  -51.2741 C.3       15 UNK         0.1400 
     86 CB         -0.1299  -25.0907  -51.8410 C.3       15 UNK        -0.1800 
     87 C          -2.4884  -24.6522  -51.0257 C.2       15 UNK         0.5000 
     88 O          -2.7457  -24.2926  -49.8769 O.2       15 UNK        -0.5000 
     89 N          -3.0772  -24.1260  -52.1081 N.am      16 UNK        -0.5000 
     90 CA         -4.1396  -23.1089  -52.1184 C.3       16 UNK         0.1400 
     91 CB         -4.8407  -23.1584  -53.4888 C.3       16 UNK        -0.1800 
     92 C          -3.6600  -21.6831  -51.7469 C.2       16 UNK         0.5000 
     93 O          -4.0948  -20.6975  -52.3508 O.2       16 UNK        -0.5000 
     94 N          -2.7634  -21.5953  -50.7599 N.am      17 UNK        -0.5000 
     95 CA         -2.1110  -20.3800  -50.2866 C.3       17 UNK         0.1400 
     96 CB         -1.0011  -20.7678  -49.3042 C.3       17 UNK        -0.1800 
     97 C          -3.1038  -19.3996  -49.6447 C.2       17 UNK         0.5000 
     98 O          -3.2104  -18.2558  -50.0843 O.2       17 UNK        -0.5000 
     99 N          -3.8498  -19.8782  -48.6403 N.am      18 UNK        -0.5000 
    100 CA        -4.8782  -19.0975  -47.9481 C.3       18 UNK         0.1400 
    101 CB        -5.3077  -19.8377  -46.6748 C.3       18 UNK        -0.1800 
    102 C         -6.1054  -18.7908  -48.8271 C.2       18 UNK         0.5000 
    103 O         -6.8106  -17.8172  -48.5621 O.2       18 UNK        -0.5000 
    104 N         -6.3428  -19.6319  -49.8423 N.am      19 UNK        -0.5000 
    105 CA        -7.4506  -19.4998  -50.7810 C.3       19 UNK         0.1400 
    106 CB        -7.7001  -20.8465  -51.4764 C.3       19 UNK        -0.1800 
    107 C         -7.2151  -18.3786  -51.8062 C.2       19 UNK         0.5000 
    108 O         -8.0834  -17.5177  -51.9579 O.2       19 UNK        -0.5000 
    109 N         -6.0676  -18.4095  -52.5007 N.am      20 UNK        -0.5000 
    110 CA        -5.7882  -17.5090  -53.6230 C.3       20 UNK         0.1400 
    111 CB        -6.5819  -17.9668  -54.8676 C.3       20 UNK        -0.1800 
    112 C         -4.2841  -17.3674  -53.9198 C.2       20 UNK         0.5000 
    113 O         -3.9199  -17.1590  -55.0790 O.2       20 UNK        -0.5000 
    114 N         -3.4229  -17.5059  -52.8984 N.am      21 UNK        -0.5000 
    115 CA        -1.9542  -17.4288  -52.9856 C.3       21 UNK         0.1400 
    116 CB        -1.5027  -15.9752  -53.2340 C.3       21 UNK        -0.1800 
    117 C         -1.3501  -18.4332  -53.9938 C.2       21 UNK         0.5000 
    118 O         -0.3578  -18.1297  -54.6579 O.2       21 UNK        -0.5000 
    119 N         -1.9948  -19.6023  -54.1005 N.am      22 UNK        -0.5000 
    120 CA        -1.7259  -20.6842  -55.0616 C.3       22 UNK         0.1400 
    121 C         -2.1188  -20.3599  -56.5357 C.2       22 UNK         0.5000 
    122 N         -2.8232  -19.2710  -56.8230 N.am      22 UNK        -0.7600 
    123 O         -1.8078  -21.1289  -57.4413 O.2       22 UNK        -0.5000 
    124 C124       -0.3012  -21.2972  -54.9531 C.3       23 UNK        -0.0398 
    125 S125        0.1749  -21.7032  -53.2372 S.3       23 UNK        -0.2404 
    126 C126        1.7087  -20.7397  -53.0757 C.3       23 UNK        -0.0205 
    127 H127       -3.6389  -15.8772  -47.1181 H         1 UNK         0.0600 
    128 H128       -4.7563  -15.8028  -48.4858 H         1 UNK         0.0600 
    129 H129       -4.7721  -14.5337  -47.2567 H         1 UNK         0.0600 
    130 H130       -1.5778  -15.4504  -47.8518 H         1 UNK         0.3000 
    131 H131       -0.9812  -13.9852  -50.2339 H         1 UNK         0.0600 
    132 H132        0.9049  -15.0986  -48.1063 H         1 UNK         0.0800 
    133 H133        1.3783  -14.5490  -49.6972 H         1 UNK         0.0800 
    134 H134        1.7782  -17.4985  -48.1138 H         1 UNK         0.0800 
    135 H135        2.6720  -16.8535  -49.4732 H         1 UNK         0.0800 
    136 H136        1.3558  -18.4017  -51.7508 H         1 UNK         0.1150 
    137 H137        2.7736  -22.4016  -51.1954 H         1 UNK         0.1150 
    138 H138        2.8127  -19.6455  -47.9111 H         1 UNK         0.1150 
    139 H139        4.3026  -22.6834  -49.1308 H         1 UNK         0.0800 
    140 H140        3.9366  -21.7743  -47.6890 H         1 UNK         0.0800 
    141 H141        0.6356  -21.8910  -47.3438 H         1 UNK         0.0800 
    142 H142        1.9968  -22.0101  -46.2696 H         1 UNK         0.0800 
    143 H143        1.1536  -24.4420  -45.7484 H         1 UNK         0.0600 
    144 H144        0.4802  -21.9655  -44.5401 H         1 UNK         0.3000 
    145 H145       -0.8624  -23.3475  -41.5298 H         1 UNK         0.0600 
    146 H146        0.9352  -21.8703  -40.6497 H         1 UNK         0.0600 
    147 H147        1.7415  -21.8816  -42.2159 H         1 UNK         0.0600 
    148 H148        1.6021  -23.3667  -41.2857 H         1 UNK         0.0600 
    149 H149       -0.3962  -20.7029  -42.7119 H         1 UNK         0.3000 
    150 H150       -3.7603  -20.2836  -43.7664 H         1 UNK         0.0600 
    151 H151       -3.9186  -19.7241  -41.3317 H         1 UNK         0.0600 
    152 H152       -3.7166  -18.2831  -42.3162 H         1 UNK         0.0600 
    153 H153       -2.3502  -18.9283  -41.4088 H         1 UNK         0.0600 
    154 H154       -1.6505  -18.4183  -43.7398 H         1 UNK         0.3000 
    155 H155        0.0620  -19.4600  -46.7085 H         1 UNK         0.0600 
    156 H156       -1.6499  -18.0469  -47.6122 H         1 UNK         0.0600 
    157 H157       -0.4581  -16.9217  -46.9823 H         1 UNK         0.0600 
    158 H158       -1.9409  -17.2430  -46.0839 H         1 UNK         0.0600 
    159 H159        0.6258  -17.3067  -45.0159 H         1 UNK         0.3000 
    160 H160        2.5771  -18.9774  -42.5416 H         1 UNK         0.0600 
    161 H161        3.3045  -17.1249  -44.8771 H         1 UNK         0.0600 
    162 H162        4.0990  -18.6366  -44.4644 H         1 UNK         0.0600 
    163 H163        4.1996  -17.2696  -43.3655 H         1 UNK         0.0600 
    164 H164        1.6842  -16.2619  -43.1866 H         1 UNK         0.3000 
    165 H165       -1.0380  -16.2937  -40.8896 H         1 UNK         0.0600 
    166 H166        0.1472  -14.3310  -39.9461 H         1 UNK         0.0600 
    167 H167        0.9317  -15.8141  -39.4271 H         1 UNK         0.0600 
    168 H168        1.6574  -14.8415  -40.7013 H         1 UNK         0.0600 
    169 H169        0.0979  -14.2398  -42.5303 H         1 UNK         0.3000 
    170 H170       -1.5081  -15.0669  -45.5610 H         1 UNK         0.0600 
    171 H171       -2.3212  -12.7797  -43.7127 H         1 UNK         0.0600 
    172 H172       -2.6921  -12.9601  -45.4293 H         1 UNK         0.0600 
    173 H173       -3.4150  -14.0469  -44.2598 H         1 UNK         0.0600 
    174 H174       -0.1609  -12.7024  -44.8997 H         1 UNK         0.3000 
    175 H175        2.8540  -13.3148  -44.4403 H         1 UNK         0.0600 
    176 H176        2.8223  -13.8638  -47.4507 H         1 UNK         0.0600 
    177 H177        4.1641  -13.1899  -46.5352 H         1 UNK         0.0600 
    178 H178        3.6411  -14.8369  -46.2351 H         1 UNK         0.0600 
    179 H179        1.6018  -11.8209  -46.6939 H         1 UNK         0.3000 
    180 H180        0.6904   -9.1205  -44.6634 H         1 UNK         0.0600 
    181 H181        2.1617   -7.6659  -46.0370 H         1 UNK         0.0600 
    182 H182        3.1517   -9.0538  -46.4921 H         1 UNK         0.0600 
    183 H183        3.1076   -8.5073  -44.8201 H         1 UNK         0.0600 
    184 H184        0.9368   -9.3926  -47.5086 H         1 UNK         0.3000 
    185 H185       -2.3886  -10.0822  -47.9920 H         1 UNK         0.0600 
    186 H186        0.3217   -9.8098  -49.4137 H         1 UNK         0.0600 
    187 H187       -1.2673   -9.5651  -50.1230 H         1 UNK         0.0600 
    188 H188       -0.6917   -8.4672  -48.8837 H         1 UNK         0.0600 
    189 H189       -2.3192  -12.1590  -48.8077 H         1 UNK         0.3000 
    190 H190       -1.9010  -22.9027  -45.4386 H         1 UNK         0.3000 
    191 H191       -3.4200  -23.6085  -47.5619 H         1 UNK         0.0600 
    192 H192       -4.1459  -22.2818  -45.5671 H         1 UNK         0.0600 
    193 H193       -4.2684  -23.7636  -44.6278 H         1 UNK         0.0600 
    194 H194       -5.3314  -23.5018  -46.0057 H         1 UNK         0.0600 
    195 H195       -2.2154  -25.8838  -45.1689 H         1 UNK         0.3000 
    196 H196       -3.9798  -28.0905  -45.8682 H         1 UNK         0.0600 
    197 H197       -2.9938  -27.8732  -43.5993 H         1 UNK         0.0600 
    198 H198       -1.3658  -27.9814  -44.2686 H         1 UNK         0.0600 
    199 H199       -2.4529  -29.3630  -44.3562 H         1 UNK         0.0600 
    200 H200       -1.0644  -26.7500  -47.2579 H         1 UNK         0.3000 
    201 H201       -0.3345  -29.3097  -48.6124 H         1 UNK         0.0600 
    202 H202        1.4434  -28.2556  -47.2314 H         1 UNK         0.0600 
    203 H203        1.2835  -26.7522  -48.1382 H         1 UNK         0.0600 
    204 H204        1.8600  -28.2088  -48.9378 H         1 UNK         0.0600 
    205 H205       -1.2096  -25.8612  -49.1841 H         1 UNK         0.3000 
    206 H206       -1.8202  -26.4325  -51.9959 H         1 UNK         0.0600 
    207 H207        0.2713  -24.3271  -51.1723 H         1 UNK         0.0600 
    208 H208        0.6468  -25.8395  -51.9960 H         1 UNK         0.0600 
    209 H209       -0.3168  -24.6208  -52.8065 H         1 UNK         0.0600 
    210 H210       -2.7752  -24.4471  -53.0163 H         1 UNK         0.3000 
    211 H211       -4.8776  -23.3859  -51.3629 H         1 UNK         0.0600 
    212 H212       -4.1503  -22.9439  -54.3038 H         1 UNK         0.0600 
    213 H213       -5.6556  -22.4381  -53.5551 H         1 UNK         0.0600 
    214 H214       -5.2724  -24.1426  -53.6710 H         1 UNK         0.0600 
    215 H215       -2.5039  -22.4636  -50.3008 H         1 UNK         0.3000 
    216 H216       -1.6465  -19.8905  -51.1432 H         1 UNK         0.0600 
    217 H217       -0.4819  -19.8819  -48.9419 H         1 UNK         0.0600 
    218 H218       -0.2587  -21.4062  -49.7836 H         1 UNK         0.0600 
    219 H219       -1.3934  -21.3053  -48.4407 H         1 UNK         0.0600 
    220 H220       -3.6987  -20.8243  -48.3228 H         1 UNK         0.3000 
    221 H221       -4.4378  -18.1447  -47.6511 H         1 UNK         0.0600 
    222 H222       -5.7174  -20.8230  -46.8994 H         1 UNK         0.0600 
    223 H223       -4.4661  -19.9644  -45.9974 H         1 UNK         0.0600 
    224 H224       -6.0725  -19.2783  -46.1344 H         1 UNK         0.0600 
    225 H225       -5.6978  -20.3913  -49.9947 H         1 UNK         0.3000 
    226 H226       -8.3514  -19.2499  -50.2159 H         1 UNK         0.0600 
    227 H227       -7.9476  -21.6242  -50.7537 H         1 UNK         0.0600 
    228 H228       -8.5338  -20.7755  -52.1762 H         1 UNK         0.0600 
    229 H229       -6.8286  -21.1766  -52.0385 H         1 UNK         0.0600 
    230 H230       -5.3987  -19.1575  -52.3413 H         1 UNK         0.3000 
    231 H231       -6.1239  -16.5051  -53.3555 H         1 UNK         0.0600 
    232 H232       -6.4363  -17.2847  -55.7060 H         1 UNK         0.0600 
    233 H233       -7.6538  -17.9997  -54.6738 H         1 UNK         0.0600 
    234 H234       -6.2706  -18.9605  -55.1921 H         1 UNK         0.0600 
    235 H235       -3.7799  -17.6878  -51.9659 H         1 UNK         0.3000 
    236 H236       -1.5636  -17.7173  -52.0112 H         1 UNK         0.0600 
    237 H237       -1.8051  -15.6188  -54.2189 H         1 UNK         0.0600 
    238 H238       -1.9232  -15.3018  -52.4869 H         1 UNK         0.0600 
    239 H239       -0.4174  -15.8874  -53.1705 H         1 UNK         0.0600 
    240 H240       -2.8024  -19.7567  -53.5058 H         1 UNK         0.3000 
    241 H241       -2.4189  -21.4725  -54.7726 H         1 UNK         0.0600 
    242 H242       -3.0745  -19.0891  -57.7814 H         1 UNK         0.3800 
    243 H243       -3.0956  -18.6073  -56.1044 H         1 UNK         0.3800 
    244 H244        0.4324  -20.6254  -55.4001 H         1 UNK         0.0800 
    245 H245       -0.2458  -22.2205  -55.5317 H         1 UNK         0.0800 
    246 H246        2.5333  -21.2940  -53.5259 H         1 UNK         0.0800 
    247 H247        1.6241  -19.8056  -53.6327 H         1 UNK         0.0800 
@<TRIPOS>BOND
     1    1    2 1    
     2    1  127 1    
     3    1  128 1    
     4    1  129 1    
     5    2    3 2    
     6    2    4 am   BACKBONE|DICT|INTERRES
     7    4    5 1    
     8    4  130 1    
     9    5    6 1    
    10    5   65 1    
    11    5  131 1    
    12    6    7 1    
    13    6  132 1    
    14    6  133 1    
    15    7    8 1    
    16    8    9 1    
    17    8  134 1    
    18    8  135 1    
    19    9   10 ar   
    20    9   14 ar   
    21   10   11 ar   
    22   10  136 1    
    23   11   12 ar   
    24   11  126 1    
    25   12   13 ar   
    26   12  137 1    
    27   13   14 ar   
    28   13   15 1    
    29   14  138 1    
    30   15   16 1    
    31   15  139 1    
    32   15  140 1    
    33   16   17 1    
    34   17   18 1    
    35   17  141 1    
    36   17  142 1    
    37   18   19 1    
    38   18   67 1    
    39   18  143 1    
    40   19   20 am   BACKBONE|DICT|INTERRES
    41   19  144 1    
    42   20   21 2    
    43   20   22 1    
    44   22   23 1    
    45   22   24 1    
    46   22  145 1    
    47   23  146 1    
    48   23  147 1    
    49   23  148 1    
    50   24   25 am   BACKBONE|DICT|INTERRES
    51   24  149 1    
    52   25   26 2    
    53   25   27 1    
    54   27   28 1    
    55   27   29 1    
    56   27  150 1    
    57   28  151 1    
    58   28  152 1    
    59   28  153 1    
    60   29   30 am   BACKBONE|DICT|INTERRES
    61   29  154 1    
    62   30   31 2    
    63   30   32 1    
    64   32   33 1    
    65   32   34 1    
    66   32  155 1    
    67   33  156 1    
    68   33  157 1    
    69   33  158 1    
    70   34   35 am   BACKBONE|DICT|INTERRES
    71   34  159 1    
    72   35   36 2    
    73   35   37 1    
    74   37   38 1    
    75   37   39 1    
    76   37  160 1    
    77   38  161 1    
    78   38  162 1    
    79   38  163 1    
    80   39   40 am   BACKBONE|DICT|INTERRES
    81   39  164 1    
    82   40   41 2    
    83   40   42 1    
    84   42   43 1    
    85   42   44 1    
    86   42  165 1    
    87   43  166 1    
    88   43  167 1    
    89   43  168 1    
    90   44   45 am   BACKBONE|DICT|INTERRES
    91   44  169 1    
    92   45   46 2    
    93   45   47 1    
    94   47   48 1    
    95   47   49 1    
    96   47  170 1    
    97   48  171 1    
    98   48  172 1    
    99   48  173 1    
   100   49   50 am   BACKBONE|DICT|INTERRES
   101   49  174 1    
   102   50   51 2    
   103   50   52 1    
   104   52   53 1    
   105   52   54 1    
   106   52  175 1    
   107   53  176 1    
   108   53  177 1    
   109   53  178 1    
   110   54   55 am   BACKBONE|DICT|INTERRES
   111   54  179 1    
   112   55   56 2    
   113   55   57 1    
   114   57   58 1    
   115   57   59 1    
   116   57  180 1    
   117   58  181 1    
   118   58  182 1    
   119   58  183 1    
   120   59   60 am   BACKBONE|DICT|INTERRES
   121   59  184 1    
   122   60   61 2    
   123   60   62 1    
   124   62   63 1    
   125   62   64 1    
   126   62  185 1    
   127   63  186 1    
   128   63  187 1    
   129   63  188 1    
   130   64   65 am   BACKBONE|DICT|INTERRES
   131   64  189 1    
   132   65   66 2    
   133   67   68 2    
   134   67   69 am   BACKBONE|DICT|INTERRES
   135   69   70 1    
   136   69  190 1    
   137   70   71 1    
   138   70   72 1    
   139   70  191 1    
   140   71  192 1    
   141   71  193 1    
   142   71  194 1    
   143   72   73 2    
   144   72   74 am   BACKBONE|DICT|INTERRES
   145   74   75 1    
   146   74  195 1    
   147   75   76 1    
   148   75   77 1    
   149   75  196 1    
   150   76  197 1    
   151   76  198 1    
   152   76  199 1    
   153   77   78 2    
   154   77   79 am   BACKBONE|DICT|INTERRES
   155   79   80 1    
   156   79  200 1    
   157   80   81 1    
   158   80   82 1    
   159   80  201 1    
   160   81  202 1    
   161   81  203 1    
   162   81  204 1    
   163   82   83 2    
   164   82   84 am   BACKBONE|DICT|INTERRES
   165   84   85 1    
   166   84  205 1    
   167   85   86 1    
   168   85   87 1    
   169   85  206 1    
   170   86  207 1    
   171   86  208 1    
   172   86  209 1    
   173   87   88 2    
   174   87   89 am   BACKBONE|DICT|INTERRES
   175   89   90 1    
   176   89  210 1    
   177   90   91 1    
   178   90   92 1    
   179   90  211 1    
   180   91  212 1    
   181   91  213 1    
   182   91  214 1    
   183   92   93 2    
   184   92   94 am   BACKBONE|DICT|INTERRES
   185   94   95 1    
   186   94  215 1    
   187   95   96 1    
   188   95   97 1    
   189   95  216 1    
   190   96  217 1    
   191   96  218 1    
   192   96  219 1    
   193   97   98 2    
   194   97   99 am   BACKBONE|DICT|INTERRES
   195   99  100 1    
   196   99  220 1    
   197  100  101 1    
   198  100  102 1    
   199  100  221 1    
   200  101  222 1    
   201  101  223 1    
   202  101  224 1    
   203  102  103 2    
   204  102  104 am   BACKBONE|DICT|INTERRES
   205  104  105 1    
   206  104  225 1    
   207  105  106 1    
   208  105  107 1    
   209  105  226 1    
   210  106  227 1    
   211  106  228 1    
   212  106  229 1    
   213  107  108 2    
   214  107  109 am   BACKBONE|DICT|INTERRES
   215  109  110 1    
   216  109  230 1    
   217  110  111 1    
   218  110  112 1    
   219  110  231 1    
   220  111  232 1    
   221  111  233 1    
   222  111  234 1    
   223  112  113 2    
   224  112  114 am   BACKBONE|DICT|INTERRES
   225  114  115 1    
   226  114  235 1    
   227  115  116 1    
   228  115  117 1    
   229  115  236 1    
   230  116  237 1    
   231  116  238 1    
   232  116  239 1    
   233  117  118 2    
   234  117  119 am   BACKBONE|DICT|INTERRES
   235  119  120 1    
   236  119  240 1    
   237  120  121 1    
   238  120  124 1    
   239  120  241 1    
   240  121  122 am   BACKBONE|DICT|INTERRES
   241  121  123 2    
   242  122  242 1    
   243  122  243 1    
   244  124  125 1    
   245  124  244 1    
   246  124  245 1    
   247  125  126 1    
   248  126  246 1    
   249  126  247 1    
@<TRIPOS>SUBSTRUCTURE
     1 UNK         1 GROUP             0       ****    0 ROOT    
