@<TRIPOS>MOLECULE
3R540
247   249    1
SMALL
USER_CHARGES


@<TRIPOS>ATOM
      1 CA         -5.5430  -16.2227  -41.9641 C.3       0 UNK        -0.1800 
      2 C          -4.5547  -15.8485  -43.0591 C.2       0 UNK         0.5000 
      3 O          -4.8259  -14.9408  -43.8457 O.2       0 UNK        -0.5000 
      4 N          -3.4020  -16.5326  -43.1042 N.am      1 UNK        -0.5000 
      5 CA         -2.3428  -16.3382  -44.1067 C.3       1 UNK         0.1400 
      6 C6         -1.2686  -17.4636  -44.0581 C.3       23 UNK        -0.0398 
      7 S7         -1.2056  -18.4291  -45.6023 S.3       23 UNK        -0.2404 
      8 C8         -0.0194  -17.4564  -46.5823 C.3       23 UNK        -0.0205 
      9 C9          0.1308  -18.0511  -47.9712 C.ar      23 UNK        -0.0193 
     10 C10        -0.6953  -17.6256  -49.0142 C.ar      23 UNK        -0.1150 
     11 C11        -0.6350  -18.2455  -50.2644 C.ar      23 UNK        -0.0193 
     12 C12         0.2451  -19.3144  -50.4580 C.ar      23 UNK        -0.1150 
     13 C13         1.0861  -19.7440  -49.4272 C.ar      23 UNK        -0.0193 
     14 C14         1.0517  -19.0752  -48.1976 C.ar      23 UNK        -0.1150 
     15 C15         1.9807  -20.9644  -49.6477 C.3       23 UNK        -0.0205 
     16 S16         2.0444  -22.1218  -48.2288 S.3       23 UNK        -0.2404 
     17 C17         0.2843  -22.2072  -47.7605 C.3       23 UNK        -0.0398 
     18 CA         -0.0805  -23.4003  -46.8562 C.3       11 UNK         0.1400 
     19 N           0.7000  -23.4343  -45.6166 N.am      11 UNK        -0.5000 
     20 C           0.6823  -24.4510  -44.7412 C.2       10 UNK         0.5000 
     21 O           0.0458  -25.4886  -44.9195 O.2       10 UNK        -0.5000 
     22 CA          1.4419  -24.2505  -43.4138 C.3       10 UNK         0.1400 
     23 CB          2.8947  -24.7291  -43.5479 C.3       10 UNK        -0.1800 
     24 N           1.4356  -22.8605  -42.9544 N.am      10 UNK        -0.5000 
     25 C           0.3385  -22.1248  -42.7272 C.2       9 UNK         0.5000 
     26 O          -0.8001  -22.5928  -42.7567 O.2       9 UNK        -0.5000 
     27 CA          0.5258  -20.6116  -42.4867 C.3       9 UNK         0.1400 
     28 CB          0.0497  -20.2174  -41.0806 C.3       9 UNK        -0.1800 
     29 N           1.8936  -20.1169  -42.6853 N.am      9 UNK        -0.5000 
     30 C           2.5560  -20.0904  -43.8501 C.2       8 UNK         0.5000 
     31 O           2.0903  -20.5144  -44.9107 O.2       8 UNK        -0.5000 
     32 CA          4.0110  -19.5871  -43.7750 C.3       8 UNK         0.1400 
     33 CB          4.9158  -20.6716  -43.1663 C.3       8 UNK        -0.1800 
     34 N           4.5506  -19.2222  -45.0831 N.am      8 UNK        -0.5000 
     35 C           4.2029  -18.1371  -45.7829 C.2       7 UNK         0.5000 
     36 O           3.4253  -17.2737  -45.3658 O.2       7 UNK        -0.5000 
     37 CA          4.8391  -17.9863  -47.1766 C.3       7 UNK         0.1400 
     38 CB          4.9584  -19.3266  -47.9308 C.3       7 UNK        -0.1800 
     39 N           4.0421  -17.0343  -47.9392 N.am      7 UNK        -0.5000 
     40 C           4.4358  -16.3390  -49.0110 C.2       6 UNK         0.5000 
     41 O           5.5342  -16.4725  -49.5520 O.2       6 UNK        -0.5000 
     42 CA          3.4374  -15.3008  -49.5606 C.3       6 UNK         0.1400 
     43 CB          2.5989  -15.9127  -50.6917 C.3       6 UNK        -0.1800 
     44 N           2.5331  -14.7798  -48.5339 N.am      6 UNK        -0.5000 
     45 C           2.8863  -13.9922  -47.5120 C.2       5 UNK         0.5000 
     46 O           4.0218  -13.5343  -47.3700 O.2       5 UNK        -0.5000 
     47 CA          1.7812  -13.6757  -46.4815 C.3       5 UNK         0.1400 
     48 CB          2.3233  -12.9521  -45.2363 C.3       5 UNK        -0.1800 
     49 N           0.6705  -12.8911  -47.0264 N.am      5 UNK        -0.5000 
     50 C          -0.2618  -13.3319  -47.8813 C.2       4 UNK         0.5000 
     51 O          -0.2341  -14.4408  -48.4150 O.2       4 UNK        -0.5000 
     52 CA         -1.4575  -12.3971  -48.1061 C.3       4 UNK         0.1400 
     53 CB         -2.4495  -12.9298  -49.1606 C.3       4 UNK        -0.1800 
     54 N          -2.1373  -12.2089  -46.8263 N.am      4 UNK        -0.5000 
     55 C          -2.9110  -11.1627  -46.5094 C.2       3 UNK         0.5000 
     56 O          -3.1088  -10.2129  -47.2684 O.2       3 UNK        -0.5000 
     57 CA         -3.5938  -11.1654  -45.1247 C.3       3 UNK         0.1400 
     58 CB         -5.0711  -11.5658  -45.2593 C.3       3 UNK        -0.1800 
     59 N          -2.9577  -12.0523  -44.1502 N.am      3 UNK        -0.5000 
     60 C          -1.7715  -11.8283  -43.5675 C.2       2 UNK         0.5000 
     61 O          -1.1026  -10.8117  -43.7551 O.2       2 UNK        -0.5000 
     62 CA         -1.2270  -12.9288  -42.6307 C.3       2 UNK         0.1400 
     63 CB         -1.4866  -12.5574  -41.1628 C.3       2 UNK        -0.1800 
     64 N          -1.7673  -14.2697  -42.8801 N.am      2 UNK        -0.5000 
     65 C          -1.6847  -14.9430  -44.0375 C.2       1 UNK         0.5000 
     66 O          -1.1420  -14.4885  -45.0406 O.2       1 UNK        -0.5000 
     67 C          -1.5964  -23.3533  -46.5819 C.2       11 UNK         0.5000 
     68 O          -2.3591  -23.9489  -47.3396 O.2       11 UNK        -0.5000 
     69 N          -2.0172  -22.6440  -45.5250 N.am      12 UNK        -0.5000 
     70 CA         -3.4189  -22.5479  -45.1160 C.3       12 UNK         0.1400 
     71 CB         -3.6231  -21.3346  -44.1960 C.3       12 UNK        -0.1800 
     72 C          -3.9036  -23.8474  -44.4555 C.2       12 UNK         0.5000 
     73 O          -5.0299  -24.2699  -44.7145 O.2       12 UNK        -0.5000 
     74 N          -3.0257  -24.4907  -43.6722 N.am      13 UNK        -0.5000 
     75 CA         -3.2512  -25.8139  -43.0849 C.3       13 UNK         0.1400 
     76 CB         -2.1242  -26.1314  -42.0908 C.3       13 UNK        -0.1800 
     77 C          -3.3762  -26.9219  -44.1510 C.2       13 UNK         0.5000 
     78 O          -4.2275  -27.8016  -44.0191 O.2       13 UNK        -0.5000 
     79 N          -2.5527  -26.8350  -45.2049 N.am      14 UNK        -0.5000 
     80 CA         -2.5808  -27.7199  -46.3725 C.3       14 UNK         0.1400 
     81 CB         -1.2286  -27.6148  -47.0964 C.3       14 UNK        -0.1800 
     82 C          -3.7298  -27.4164  -47.3578 C.2       14 UNK         0.5000 
     83 O          -3.9796  -28.2274  -48.2499 O.2       14 UNK        -0.5000 
     84 N          -4.3768  -26.2506  -47.2047 N.am      15 UNK        -0.5000 
     85 CA         -5.4023  -25.6637  -48.0780 C.3       15 UNK         0.1400 
     86 CB         -6.6657  -26.5464  -48.1367 C.3       15 UNK        -0.1800 
     87 C          -4.8743  -25.2748  -49.4782 C.2       15 UNK         0.5000 
     88 O          -5.6587  -25.1225  -50.4150 O.2       15 UNK        -0.5000 
     89 N          -3.5548  -25.0788  -49.5878 N.am      16 UNK        -0.5000 
     90 CA         -2.8575  -24.5947  -50.7770 C.3       16 UNK         0.1400 
     91 CB         -1.3741  -24.9813  -50.6761 C.3       16 UNK        -0.1800 
     92 C          -3.0056  -23.0726  -50.9469 C.2       16 UNK         0.5000 
     93 O          -3.0237  -22.5879  -52.0778 O.2       16 UNK        -0.5000 
     94 N          -3.1540  -22.3472  -49.8265 N.am      17 UNK        -0.5000 
     95 CA         -3.3404  -20.8913  -49.7840 C.3       17 UNK         0.1400 
     96 CB         -3.2121  -20.3999  -48.3343 C.3       17 UNK        -0.1800 
     97 C          -4.6670  -20.4031  -50.4044 C.2       17 UNK         0.5000 
     98 O          -4.8130  -19.2063  -50.6521 O.2       17 UNK        -0.5000 
     99 N          -5.6021  -21.3306  -50.6597 N.am      18 UNK        -0.5000 
    100 CA        -6.8556  -21.0936  -51.3763 C.3       18 UNK         0.1400 
    101 CB        -7.7380  -22.3458  -51.2631 C.3       18 UNK        -0.1800 
    102 C         -6.6489  -20.7084  -52.8560 C.2       18 UNK         0.5000 
    103 O         -7.5148  -20.0463  -53.4299 O.2       18 UNK        -0.5000 
    104 N         -5.5098  -21.1036  -53.4449 N.am      19 UNK        -0.5000 
    105 CA        -5.0589  -20.6435  -54.7544 C.3       19 UNK         0.1400 
    106 CB        -4.0236  -21.6334  -55.3141 C.3       19 UNK        -0.1800 
    107 C         -4.4732  -19.2298  -54.6044 C.2       19 UNK         0.5000 
    108 O         -3.3331  -19.0883  -54.1622 O.2       19 UNK        -0.5000 
    109 N         -5.2733  -18.2114  -54.9460 N.am      20 UNK        -0.5000 
    110 CA        -4.9945  -16.7864  -54.7239 C.3       20 UNK         0.1400 
    111 CB        -6.2328  -15.9743  -55.1348 C.3       20 UNK        -0.1800 
    112 C         -3.7329  -16.2353  -55.4217 C.2       20 UNK         0.5000 
    113 O         -3.2351  -15.1830  -55.0201 O.2       20 UNK        -0.5000 
    114 N         -3.2333  -16.9466  -56.4413 N.am      21 UNK        -0.5000 
    115 CA        -1.9559  -16.6690  -57.1007 C.3       21 UNK         0.1400 
    116 CB        -1.9069  -17.4409  -58.4285 C.3       21 UNK        -0.1800 
    117 C         -0.7335  -17.0233  -56.2265 C.2       21 UNK         0.5000 
    118 O          0.3441  -16.4714  -56.4514 O.2       21 UNK        -0.5000 
    119 N         -0.9202  -17.9353  -55.2611 N.am      22 UNK        -0.5000 
    120 CA         0.0764  -18.4136  -54.2874 C.3       22 UNK         0.1400 
    121 C          1.2803  -19.1982  -54.8946 C.2       22 UNK         0.5000 
    122 N          1.1987  -19.6857  -56.1266 N.am      22 UNK        -0.7600 
    123 O          2.2930  -19.4031  -54.2311 O.2       22 UNK        -0.5000 
    124 C124        0.5239  -17.3170  -53.2779 C.3       23 UNK        -0.0398 
    125 S125       -0.8511  -16.4760  -52.4118 S.3       23 UNK        -0.2404 
    126 C126       -1.5651  -17.8008  -51.3834 C.3       23 UNK        -0.0205 
    127 H127       -6.4884  -16.5383  -42.4052 H         1 UNK         0.0600 
    128 H128       -5.7351  -15.3625  -41.3227 H         1 UNK         0.0600 
    129 H129       -5.1701  -17.0358  -41.3409 H         1 UNK         0.0600 
    130 H130       -3.2399  -17.2620  -42.4248 H         1 UNK         0.3000 
    131 H131       -2.8442  -16.3689  -45.0769 H         1 UNK         0.0600 
    132 H132       -0.2655  -17.0903  -43.8390 H         1 UNK         0.0800 
    133 H133       -1.4854  -18.1657  -43.2527 H         1 UNK         0.0800 
    134 H134       -0.3642  -16.4254  -46.6544 H         1 UNK         0.0800 
    135 H135        0.9426  -17.4341  -46.0722 H         1 UNK         0.0800 
    136 H136       -1.4039  -16.8270  -48.8446 H         1 UNK         0.1150 
    137 H137        0.2639  -19.8232  -51.4110 H         1 UNK         0.1150 
    138 H138        1.6828  -19.4063  -47.3849 H         1 UNK         0.1150 
    139 H139        1.6350  -21.5268  -50.5164 H         1 UNK         0.0800 
    140 H140        2.9894  -20.6282  -49.8874 H         1 UNK         0.0800 
    141 H141       -0.3066  -22.2300  -48.6786 H         1 UNK         0.0800 
    142 H142        0.0258  -21.2809  -47.2464 H         1 UNK         0.0800 
    143 H143        0.1273  -24.3208  -47.4055 H         1 UNK         0.0600 
    144 H144        1.2496  -22.6088  -45.4083 H         1 UNK         0.3000 
    145 H145        0.9465  -24.8552  -42.6520 H         1 UNK         0.0600 
    146 H146        3.4215  -24.6646  -42.5956 H         1 UNK         0.0600 
    147 H147        2.9341  -25.7705  -43.8702 H         1 UNK         0.0600 
    148 H148        3.4475  -24.1375  -44.2791 H         1 UNK         0.0600 
    149 H149        2.3292  -22.3952  -42.9135 H         1 UNK         0.3000 
    150 H150       -0.1121  -20.1095  -43.2149 H         1 UNK         0.0600 
    151 H151        0.6625  -20.6788  -40.3054 H         1 UNK         0.0600 
    152 H152       -0.9821  -20.5299  -40.9131 H         1 UNK         0.0600 
    153 H153        0.0851  -19.1369  -40.9404 H         1 UNK         0.0600 
    154 H154        2.3616  -19.7783  -41.8567 H         1 UNK         0.3000 
    155 H155        4.0373  -18.7043  -43.1325 H         1 UNK         0.0600 
    156 H156        4.9163  -21.5808  -43.7694 H         1 UNK         0.0600 
    157 H157        4.5895  -20.9443  -42.1619 H         1 UNK         0.0600 
    158 H158        5.9460  -20.3244  -43.0841 H         1 UNK         0.0600 
    159 H159        5.1610  -19.8989  -45.5160 H         1 UNK         0.3000 
    160 H160        5.8364  -17.5652  -47.0356 H         1 UNK         0.0600 
    161 H161        4.0154  -19.8696  -47.9177 H         1 UNK         0.0600 
    162 H162        5.7132  -19.9696  -47.4779 H         1 UNK         0.0600 
    163 H163        5.2483  -19.1841  -48.9716 H         1 UNK         0.0600 
    164 H164        3.1478  -16.8150  -47.5208 H         1 UNK         0.3000 
    165 H165        4.0113  -14.4658  -49.9673 H         1 UNK         0.0600 
    166 H166        1.9226  -15.1767  -51.1269 H         1 UNK         0.0600 
    167 H167        3.2353  -16.2869  -51.4945 H         1 UNK         0.0600 
    168 H168        1.9962  -16.7479  -50.3332 H         1 UNK         0.0600 
    169 H169        1.5490  -15.0256  -48.6153 H         1 UNK         0.3000 
    170 H170        1.3824  -14.6356  -46.1472 H         1 UNK         0.0600 
    171 H171        3.1226  -13.5272  -44.7669 H         1 UNK         0.0600 
    172 H172        2.7239  -11.9682  -45.4833 H         1 UNK         0.0600 
    173 H173        1.5415  -12.8179  -44.4894 H         1 UNK         0.0600 
    174 H174        0.5565  -11.9659  -46.6392 H         1 UNK         0.3000 
    175 H175       -1.0585  -11.4417  -48.4530 H         1 UNK         0.0600 
    176 H176       -1.9490  -13.1079  -50.1132 H         1 UNK         0.0600 
    177 H177       -2.9014  -13.8711  -48.8453 H         1 UNK         0.0600 
    178 H178       -3.2538  -12.2180  -49.3460 H         1 UNK         0.0600 
    179 H179       -1.9727  -12.9374  -46.1375 H         1 UNK         0.3000 
    180 H180       -3.5513  -10.1452  -44.7374 H         1 UNK         0.0600 
    181 H181       -5.1774  -12.5866  -45.6293 H         1 UNK         0.0600 
    182 H182       -5.5946  -10.9077  -45.9540 H         1 UNK         0.0600 
    183 H183       -5.5866  -11.5019  -44.3009 H         1 UNK         0.0600 
    184 H184       -3.4380  -12.9198  -43.9490 H         1 UNK         0.3000 
    185 H185       -0.1477  -12.9782  -42.7835 H         1 UNK         0.0600 
    186 H186       -1.0724  -11.5759  -40.9278 H         1 UNK         0.0600 
    187 H187       -2.5539  -12.5253  -40.9398 H         1 UNK         0.0600 
    188 H188       -1.0221  -13.2741  -40.4853 H         1 UNK         0.0600 
    189 H189       -2.2490  -14.7104  -42.1102 H         1 UNK         0.3000 
    190 H190       -1.3369  -22.2242  -44.9069 H         1 UNK         0.3000 
    191 H191       -4.0290  -22.3934  -46.0075 H         1 UNK         0.0600 
    192 H192       -3.3250  -20.4113  -44.6920 H         1 UNK         0.0600 
    193 H193       -4.6735  -21.2292  -43.9223 H         1 UNK         0.0600 
    194 H194       -3.0536  -21.4187  -43.2710 H         1 UNK         0.0600 
    195 H195       -2.1363  -24.0439  -43.4786 H         1 UNK         0.3000 
    196 H196       -4.1918  -25.7767  -42.5313 H         1 UNK         0.0600 
    197 H197       -2.3059  -27.0822  -41.5883 H         1 UNK         0.0600 
    198 H198       -2.0492  -25.3641  -41.3199 H         1 UNK         0.0600 
    199 H199       -1.1564  -26.2039  -42.5864 H         1 UNK         0.0600 
    200 H200       -1.8199  -26.1323  -45.1911 H         1 UNK         0.3000 
    201 H201       -2.7062  -28.7484  -46.0280 H         1 UNK         0.0600 
    202 H202       -1.1866  -28.2883  -47.9533 H         1 UNK         0.0600 
    203 H203       -0.4048  -27.8819  -46.4341 H         1 UNK         0.0600 
    204 H204       -1.0481  -26.6041  -47.4642 H         1 UNK         0.0600 
    205 H205       -4.0813  -25.6603  -46.4390 H         1 UNK         0.3000 
    206 H206       -5.6865  -24.7244  -47.6016 H         1 UNK         0.0600 
    207 H207       -7.0135  -26.8029  -47.1360 H         1 UNK         0.0600 
    208 H208       -7.4821  -26.0264  -48.6391 H         1 UNK         0.0600 
    209 H209       -6.4893  -27.4746  -48.6804 H         1 UNK         0.0600 
    210 H210       -3.0080  -25.1191  -48.7339 H         1 UNK         0.3000 
    211 H211       -3.2831  -25.0779  -51.6590 H         1 UNK         0.0600 
    212 H212       -0.8958  -24.5276  -49.8076 H         1 UNK         0.0600 
    213 H213       -0.8249  -24.6563  -51.5608 H         1 UNK         0.0600 
    214 H214       -1.2539  -26.0620  -50.5970 H         1 UNK         0.0600 
    215 H215       -3.1228  -22.8332  -48.9381 H         1 UNK         0.3000 
    216 H216       -2.5341  -20.4440  -50.3663 H         1 UNK         0.0600 
    217 H217       -3.2859  -19.3127  -48.2831 H         1 UNK         0.0600 
    218 H218       -2.2489  -20.6686  -47.9039 H         1 UNK         0.0600 
    219 H219       -3.9979  -20.8095  -47.7008 H         1 UNK         0.0600 
    220 H220       -5.3952  -22.2902  -50.4245 H         1 UNK         0.3000 
    221 H221       -7.3708  -20.2637  -50.8883 H         1 UNK         0.0600 
    222 H222       -7.2702  -23.2106  -51.7354 H         1 UNK         0.0600 
    223 H223       -7.9354  -22.5988  -50.2212 H         1 UNK         0.0600 
    224 H224       -8.7025  -22.1891  -51.7477 H         1 UNK         0.0600 
    225 H225       -4.8250  -21.6080  -52.8942 H         1 UNK         0.3000 
    226 H226       -5.9049  -20.6144  -55.4445 H         1 UNK         0.0600 
    227 H227       -3.6726  -21.3150  -56.2964 H         1 UNK         0.0600 
    228 H228       -3.1501  -21.7199  -54.6667 H         1 UNK         0.0600 
    229 H229       -4.4529  -22.6288  -55.4278 H         1 UNK         0.0600 
    230 H230       -6.2034  -18.4295  -55.2748 H         1 UNK         0.3000 
    231 H231       -4.8416  -16.6535  -53.6508 H         1 UNK         0.0600 
    232 H232       -6.4577  -16.0953  -56.1952 H         1 UNK         0.0600 
    233 H233       -6.0834  -14.9096  -54.9502 H         1 UNK         0.0600 
    234 H234       -7.1118  -16.2795  -54.5667 H         1 UNK         0.0600 
    235 H235       -3.7165  -17.7886  -56.7163 H         1 UNK         0.3000 
    236 H236       -1.9050  -15.6011  -57.3233 H         1 UNK         0.0600 
    237 H237       -2.7258  -17.1476  -59.0856 H         1 UNK         0.0600 
    238 H238       -0.9767  -17.2414  -58.9623 H         1 UNK         0.0600 
    239 H239       -1.9709  -18.5183  -58.2712 H         1 UNK         0.0600 
    240 H240       -1.8546  -18.3052  -55.1143 H         1 UNK         0.3000 
    241 H241       -0.4491  -19.1774  -53.7162 H         1 UNK         0.0600 
    242 H242        0.3725  -19.5365  -56.6826 H         1 UNK         0.3800 
    243 H243        1.9760  -20.2012  -56.5088 H         1 UNK         0.3800 
    244 H244        1.1920  -17.7350  -52.5254 H         1 UNK         0.0800 
    245 H245        1.1071  -16.5533  -53.7938 H         1 UNK         0.0800 
    246 H246       -2.4995  -17.4353  -50.9548 H         1 UNK         0.0800 
    247 H247       -1.8459  -18.6504  -52.0049 H         1 UNK         0.0800 
@<TRIPOS>BOND
     1    1    2 1    
     2    1  127 1    
     3    1  128 1    
     4    1  129 1    
     5    2    3 2    
     6    2    4 am   BACKBONE|DICT|INTERRES
     7    4    5 1    
     8    4  130 1    
     9    5    6 1    
    10    5   65 1    
    11    5  131 1    
    12    6    7 1    
    13    6  132 1    
    14    6  133 1    
    15    7    8 1    
    16    8    9 1    
    17    8  134 1    
    18    8  135 1    
    19    9   10 ar   
    20    9   14 ar   
    21   10   11 ar   
    22   10  136 1    
    23   11   12 ar   
    24   11  126 1    
    25   12   13 ar   
    26   12  137 1    
    27   13   14 ar   
    28   13   15 1    
    29   14  138 1    
    30   15   16 1    
    31   15  139 1    
    32   15  140 1    
    33   16   17 1    
    34   17   18 1    
    35   17  141 1    
    36   17  142 1    
    37   18   19 1    
    38   18   67 1    
    39   18  143 1    
    40   19   20 am   BACKBONE|DICT|INTERRES
    41   19  144 1    
    42   20   21 2    
    43   20   22 1    
    44   22   23 1    
    45   22   24 1    
    46   22  145 1    
    47   23  146 1    
    48   23  147 1    
    49   23  148 1    
    50   24   25 am   BACKBONE|DICT|INTERRES
    51   24  149 1    
    52   25   26 2    
    53   25   27 1    
    54   27   28 1    
    55   27   29 1    
    56   27  150 1    
    57   28  151 1    
    58   28  152 1    
    59   28  153 1    
    60   29   30 am   BACKBONE|DICT|INTERRES
    61   29  154 1    
    62   30   31 2    
    63   30   32 1    
    64   32   33 1    
    65   32   34 1    
    66   32  155 1    
    67   33  156 1    
    68   33  157 1    
    69   33  158 1    
    70   34   35 am   BACKBONE|DICT|INTERRES
    71   34  159 1    
    72   35   36 2    
    73   35   37 1    
    74   37   38 1    
    75   37   39 1    
    76   37  160 1    
    77   38  161 1    
    78   38  162 1    
    79   38  163 1    
    80   39   40 am   BACKBONE|DICT|INTERRES
    81   39  164 1    
    82   40   41 2    
    83   40   42 1    
    84   42   43 1    
    85   42   44 1    
    86   42  165 1    
    87   43  166 1    
    88   43  167 1    
    89   43  168 1    
    90   44   45 am   BACKBONE|DICT|INTERRES
    91   44  169 1    
    92   45   46 2    
    93   45   47 1    
    94   47   48 1    
    95   47   49 1    
    96   47  170 1    
    97   48  171 1    
    98   48  172 1    
    99   48  173 1    
   100   49   50 am   BACKBONE|DICT|INTERRES
   101   49  174 1    
   102   50   51 2    
   103   50   52 1    
   104   52   53 1    
   105   52   54 1    
   106   52  175 1    
   107   53  176 1    
   108   53  177 1    
   109   53  178 1    
   110   54   55 am   BACKBONE|DICT|INTERRES
   111   54  179 1    
   112   55   56 2    
   113   55   57 1    
   114   57   58 1    
   115   57   59 1    
   116   57  180 1    
   117   58  181 1    
   118   58  182 1    
   119   58  183 1    
   120   59   60 am   BACKBONE|DICT|INTERRES
   121   59  184 1    
   122   60   61 2    
   123   60   62 1    
   124   62   63 1    
   125   62   64 1    
   126   62  185 1    
   127   63  186 1    
   128   63  187 1    
   129   63  188 1    
   130   64   65 am   BACKBONE|DICT|INTERRES
   131   64  189 1    
   132   65   66 2    
   133   67   68 2    
   134   67   69 am   BACKBONE|DICT|INTERRES
   135   69   70 1    
   136   69  190 1    
   137   70   71 1    
   138   70   72 1    
   139   70  191 1    
   140   71  192 1    
   141   71  193 1    
   142   71  194 1    
   143   72   73 2    
   144   72   74 am   BACKBONE|DICT|INTERRES
   145   74   75 1    
   146   74  195 1    
   147   75   76 1    
   148   75   77 1    
   149   75  196 1    
   150   76  197 1    
   151   76  198 1    
   152   76  199 1    
   153   77   78 2    
   154   77   79 am   BACKBONE|DICT|INTERRES
   155   79   80 1    
   156   79  200 1    
   157   80   81 1    
   158   80   82 1    
   159   80  201 1    
   160   81  202 1    
   161   81  203 1    
   162   81  204 1    
   163   82   83 2    
   164   82   84 am   BACKBONE|DICT|INTERRES
   165   84   85 1    
   166   84  205 1    
   167   85   86 1    
   168   85   87 1    
   169   85  206 1    
   170   86  207 1    
   171   86  208 1    
   172   86  209 1    
   173   87   88 2    
   174   87   89 am   BACKBONE|DICT|INTERRES
   175   89   90 1    
   176   89  210 1    
   177   90   91 1    
   178   90   92 1    
   179   90  211 1    
   180   91  212 1    
   181   91  213 1    
   182   91  214 1    
   183   92   93 2    
   184   92   94 am   BACKBONE|DICT|INTERRES
   185   94   95 1    
   186   94  215 1    
   187   95   96 1    
   188   95   97 1    
   189   95  216 1    
   190   96  217 1    
   191   96  218 1    
   192   96  219 1    
   193   97   98 2    
   194   97   99 am   BACKBONE|DICT|INTERRES
   195   99  100 1    
   196   99  220 1    
   197  100  101 1    
   198  100  102 1    
   199  100  221 1    
   200  101  222 1    
   201  101  223 1    
   202  101  224 1    
   203  102  103 2    
   204  102  104 am   BACKBONE|DICT|INTERRES
   205  104  105 1    
   206  104  225 1    
   207  105  106 1    
   208  105  107 1    
   209  105  226 1    
   210  106  227 1    
   211  106  228 1    
   212  106  229 1    
   213  107  108 2    
   214  107  109 am   BACKBONE|DICT|INTERRES
   215  109  110 1    
   216  109  230 1    
   217  110  111 1    
   218  110  112 1    
   219  110  231 1    
   220  111  232 1    
   221  111  233 1    
   222  111  234 1    
   223  112  113 2    
   224  112  114 am   BACKBONE|DICT|INTERRES
   225  114  115 1    
   226  114  235 1    
   227  115  116 1    
   228  115  117 1    
   229  115  236 1    
   230  116  237 1    
   231  116  238 1    
   232  116  239 1    
   233  117  118 2    
   234  117  119 am   BACKBONE|DICT|INTERRES
   235  119  120 1    
   236  119  240 1    
   237  120  121 1    
   238  120  124 1    
   239  120  241 1    
   240  121  122 am   BACKBONE|DICT|INTERRES
   241  121  123 2    
   242  122  242 1    
   243  122  243 1    
   244  124  125 1    
   245  124  244 1    
   246  124  245 1    
   247  125  126 1    
   248  126  246 1    
   249  126  247 1    
@<TRIPOS>SUBSTRUCTURE
     1 UNK         1 GROUP             0       ****    0 ROOT    
