@<TRIPOS>MOLECULE
3R540
247   249    1
SMALL
USER_CHARGES


@<TRIPOS>ATOM
      1 CA          5.1593  -10.0394  -47.9197 C.3       0 UNK        -0.1800 
      2 C           4.6095  -11.4059  -47.5374 C.2       0 UNK         0.5000 
      3 O           4.8000  -11.8487  -46.4043 O.2       0 UNK        -0.5000 
      4 N           3.9161  -12.0706  -48.4722 N.am      1 UNK        -0.5000 
      5 CA          3.3125  -13.3990  -48.2947 C.3       1 UNK         0.1400 
      6 C6          2.8361  -14.0089  -49.6384 C.3       23 UNK        -0.0398 
      7 S7          1.5814  -13.0145  -50.5312 S.3       23 UNK        -0.2404 
      8 C8          0.0121  -13.7838  -50.0058 C.3       23 UNK        -0.0205 
      9 C9         -0.3750  -14.9772  -50.8666 C.ar      23 UNK        -0.0193 
     10 C10        -1.2740  -14.8141  -51.9268 C.ar      23 UNK        -0.1150 
     11 C11        -1.6690  -15.9132  -52.6950 C.ar      23 UNK        -0.0193 
     12 C12        -1.1413  -17.1735  -52.4129 C.ar      23 UNK        -0.1150 
     13 C13        -0.2392  -17.3493  -51.3629 C.ar      23 UNK        -0.0193 
     14 C14         0.1303  -16.2509  -50.5839 C.ar      23 UNK        -0.1150 
     15 C15         0.3215  -18.7290  -51.0710 C.3       23 UNK        -0.0205 
     16 S16        -0.7014  -19.5846  -49.8393 S.3       23 UNK        -0.2404 
     17 C17        -0.2973  -21.3320  -50.1842 C.3       23 UNK        -0.0398 
     18 CA          0.1492  -22.1341  -48.9410 C.3       11 UNK         0.1400 
     19 N           1.3539  -21.5655  -48.3332 N.am      11 UNK        -0.5000 
     20 C           2.1515  -22.2124  -47.4765 C.2       10 UNK         0.5000 
     21 O           1.9560  -23.3754  -47.1205 O.2       10 UNK        -0.5000 
     22 CA          3.3404  -21.4331  -46.8737 C.3       10 UNK         0.1400 
     23 CB          3.4933  -19.9878  -47.4054 C.3       10 UNK        -0.1800 
     24 N           3.2731  -21.4415  -45.4086 N.am      10 UNK        -0.5000 
     25 C           2.2563  -20.9830  -44.6670 C.2       9 UNK         0.5000 
     26 O           1.2655  -20.4218  -45.1410 O.2       9 UNK        -0.5000 
     27 CA          2.3684  -21.2004  -43.1511 C.3       9 UNK         0.1400 
     28 CB          3.3934  -20.2450  -42.5209 C.3       9 UNK        -0.1800 
     29 N           1.0684  -20.9644  -42.5321 N.am      9 UNK        -0.5000 
     30 C           0.3875  -21.8534  -41.8010 C.2       8 UNK         0.5000 
     31 O           0.8183  -22.9673  -41.5007 O.2       8 UNK        -0.5000 
     32 CA         -0.9910  -21.3952  -41.2997 C.3       8 UNK         0.1400 
     33 CB         -1.5958  -22.3231  -40.2295 C.3       8 UNK        -0.1800 
     34 N          -0.8805  -20.0356  -40.7792 N.am      8 UNK        -0.5000 
     35 C          -1.8117  -19.0845  -40.8914 C.2       7 UNK         0.5000 
     36 O          -2.9153  -19.2757  -41.4058 O.2       7 UNK        -0.5000 
     37 CA         -1.4614  -17.6893  -40.3355 C.3       7 UNK         0.1400 
     38 CB          0.0021  -17.5392  -39.8682 C.3       7 UNK        -0.1800 
     39 N          -1.7236  -16.6924  -41.3664 N.am      7 UNK        -0.5000 
     40 C          -2.8300  -15.9442  -41.4615 C.2       6 UNK         0.5000 
     41 O          -3.7342  -15.9497  -40.6244 O.2       6 UNK        -0.5000 
     42 CA         -2.9499  -15.0170  -42.6878 C.3       6 UNK         0.1400 
     43 CB         -2.7653  -13.5508  -42.2670 C.3       6 UNK        -0.1800 
     44 N          -1.9944  -15.3436  -43.7517 N.am      6 UNK        -0.5000 
     45 C          -2.1465  -16.3672  -44.6046 C.2       5 UNK         0.5000 
     46 O          -3.1460  -17.0847  -44.6274 O.2       5 UNK        -0.5000 
     47 CA         -0.9956  -16.6551  -45.5878 C.3       5 UNK         0.1400 
     48 CB         -1.2193  -15.9266  -46.9200 C.3       5 UNK        -0.1800 
     49 N           0.3337  -16.3264  -45.0738 N.am      5 UNK        -0.5000 
     50 C           0.9401  -16.9579  -44.0581 C.2       4 UNK         0.5000 
     51 O           0.4029  -17.8199  -43.3606 O.2       4 UNK        -0.5000 
     52 CA          2.3881  -16.5368  -43.7647 C.3       4 UNK         0.1400 
     53 CB          3.3519  -17.1236  -44.8092 C.3       4 UNK        -0.1800 
     54 N           2.5166  -15.0829  -43.7538 N.am      4 UNK        -0.5000 
     55 C           2.3452  -14.3174  -42.6681 C.2       3 UNK         0.5000 
     56 O           2.1312  -14.7644  -41.5411 O.2       3 UNK        -0.5000 
     57 CA          2.4082  -12.7907  -42.8752 C.3       3 UNK         0.1400 
     58 CB          3.8386  -12.2756  -42.6569 C.3       3 UNK        -0.1800 
     59 N           1.9438  -12.3608  -44.1955 N.am      3 UNK        -0.5000 
     60 C           0.6933  -12.5198  -44.6512 C.2       2 UNK         0.5000 
     61 O          -0.2099  -13.0400  -44.0003 O.2       2 UNK        -0.5000 
     62 CA          0.4154  -12.0779  -46.0979 C.3       2 UNK         0.1400 
     63 CB         -0.0178  -10.6056  -46.1376 C.3       2 UNK        -0.1800 
     64 N           1.5470  -12.2702  -47.0056 N.am      2 UNK        -0.5000 
     65 C           2.1841  -13.4273  -47.2412 C.2       1 UNK         0.5000 
     66 O           1.9112  -14.4859  -46.6726 O.2       1 UNK        -0.5000 
     67 C          -1.0110  -22.3299  -47.9380 C.2       11 UNK         0.5000 
     68 O          -1.8792  -23.1700  -48.1838 O.2       11 UNK        -0.5000 
     69 N          -1.0150  -21.5819  -46.8234 N.am      12 UNK        -0.5000 
     70 CA         -2.0386  -21.6842  -45.7816 C.3       12 UNK         0.1400 
     71 CB         -2.1128  -20.3801  -44.9774 C.3       12 UNK        -0.1800 
     72 C          -1.8486  -22.9038  -44.8648 C.2       12 UNK         0.5000 
     73 O          -2.7882  -23.2667  -44.1592 O.2       12 UNK        -0.5000 
     74 N          -0.6766  -23.5548  -44.9198 N.am      13 UNK        -0.5000 
     75 CA         -0.3885  -24.8056  -44.2096 C.3       13 UNK         0.1400 
     76 CB          1.1068  -25.1293  -44.3376 C.3       13 UNK        -0.1800 
     77 C          -1.2432  -25.9914  -44.7030 C.2       13 UNK         0.5000 
     78 O          -1.5020  -26.9159  -43.9326 O.2       13 UNK        -0.5000 
     79 N          -1.6932  -25.9267  -45.9648 N.am      14 UNK        -0.5000 
     80 CA         -2.6341  -26.8718  -46.5693 C.3       14 UNK         0.1400 
     81 CB         -2.4900  -26.7863  -48.0973 C.3       14 UNK        -0.1800 
     82 C          -4.1000  -26.6149  -46.1571 C.2       14 UNK         0.5000 
     83 O          -4.9478  -27.4725  -46.4043 O.2       14 UNK        -0.5000 
     84 N          -4.3672  -25.4397  -45.5653 N.am      15 UNK        -0.5000 
     85 CA         -5.6666  -24.8891  -45.1684 C.3       15 UNK         0.1400 
     86 CB         -6.1364  -25.5755  -43.8697 C.3       15 UNK        -0.1800 
     87 C          -6.7389  -24.9242  -46.2884 C.2       15 UNK         0.5000 
     88 O          -7.7699  -25.5744  -46.1151 O.2       15 UNK        -0.5000 
     89 N          -6.5420  -24.2616  -47.4370 N.am      16 UNK        -0.5000 
     90 CA         -5.4076  -23.4518  -47.8732 C.3       16 UNK         0.1400 
     91 CB         -5.6220  -21.9838  -47.4703 C.3       16 UNK        -0.1800 
     92 C          -5.3013  -23.5945  -49.3968 C.2       16 UNK         0.5000 
     93 O          -6.3283  -23.6869  -50.0735 O.2       16 UNK        -0.5000 
     94 N          -4.0669  -23.5978  -49.9084 N.am      17 UNK        -0.5000 
     95 CA         -3.7524  -23.7713  -51.3284 C.3       17 UNK         0.1400 
     96 CB         -2.4488  -24.5791  -51.4494 C.3       17 UNK        -0.1800 
     97 C          -3.6546  -22.4379  -52.0952 C.2       17 UNK         0.5000 
     98 O          -3.3371  -22.4557  -53.2841 O.2       17 UNK        -0.5000 
     99 N          -3.9171  -21.3059  -51.4235 N.am      18 UNK        -0.5000 
    100 CA        -3.7971  -19.9441  -51.9585 C.3       18 UNK         0.1400 
    101 CB        -4.2116  -18.9343  -50.8772 C.3       18 UNK        -0.1800 
    102 C         -4.6005  -19.7015  -53.2505 C.2       18 UNK         0.5000 
    103 O         -4.0998  -19.0571  -54.1727 O.2       18 UNK        -0.5000 
    104 N         -5.8131  -20.2687  -53.3058 N.am      19 UNK        -0.5000 
    105 CA        -6.7155  -20.2043  -54.4564 C.3       19 UNK         0.1400 
    106 CB        -8.0926  -20.7426  -54.0396 C.3       19 UNK        -0.1800 
    107 C         -6.1938  -20.9593  -55.6948 C.2       19 UNK         0.5000 
    108 O         -6.5494  -20.5914  -56.8146 O.2       19 UNK        -0.5000 
    109 N         -5.3633  -21.9888  -55.4790 N.am      20 UNK        -0.5000 
    110 CA        -4.6752  -22.7226  -56.5383 C.3       20 UNK         0.1400 
    111 CB        -4.4125  -24.1677  -56.0851 C.3       20 UNK        -0.1800 
    112 C         -3.3659  -22.0157  -56.9231 C.2       20 UNK         0.5000 
    113 O         -3.0927  -21.8547  -58.1128 O.2       20 UNK        -0.5000 
    114 N         -2.5996  -21.5766  -55.9136 N.am      21 UNK        -0.5000 
    115 CA        -1.3103  -20.8954  -56.0555 C.3       21 UNK         0.1400 
    116 CB        -0.7088  -20.6544  -54.6631 C.3       21 UNK        -0.1800 
    117 C         -1.3846  -19.5838  -56.8616 C.2       21 UNK         0.5000 
    118 O         -0.5115  -19.3421  -57.6964 O.2       21 UNK        -0.5000 
    119 N         -2.4397  -18.7925  -56.6323 N.am      22 UNK        -0.5000 
    120 CA        -2.7764  -17.5927  -57.4204 C.3       22 UNK         0.1400 
    121 C         -3.7951  -17.8728  -58.5670 C.2       22 UNK         0.5000 
    122 N         -4.0867  -19.1183  -58.9221 N.am      22 UNK        -0.7600 
    123 O         -4.3224  -16.9414  -59.1695 O.2       22 UNK        -0.5000 
    124 C124       -3.2183  -16.4088  -56.5193 C.3       23 UNK        -0.0398 
    125 S125       -1.8606  -15.8345  -55.4414 S.3       23 UNK        -0.2404 
    126 C126       -2.6786  -15.7653  -53.8197 C.3       23 UNK        -0.0205 
    127 H127        4.9089   -9.7746  -48.9473 H         1 UNK         0.0600 
    128 H128        6.2447  -10.0314  -47.8211 H         1 UNK         0.0600 
    129 H129        4.7503   -9.2731  -47.2613 H         1 UNK         0.0600 
    130 H130        3.7804  -11.6520  -49.3821 H         1 UNK         0.3000 
    131 H131        4.0987  -14.0511  -47.9082 H         1 UNK         0.0600 
    132 H132        3.6948  -14.1164  -50.3023 H         1 UNK         0.0800 
    133 H133        2.4741  -15.0236  -49.4834 H         1 UNK         0.0800 
    134 H134       -0.7720  -13.0268  -50.0548 H         1 UNK         0.0800 
    135 H135        0.0623  -14.0853  -48.9606 H         1 UNK         0.0800 
    136 H136       -1.6774  -13.8350  -52.1444 H         1 UNK         0.1150 
    137 H137       -1.4411  -18.0167  -53.0161 H         1 UNK         0.1150 
    138 H138        0.8025  -16.3988  -49.7525 H         1 UNK         0.1150 
    139 H139        0.3576  -19.3074  -51.9954 H         1 UNK         0.0800 
    140 H140        1.3480  -18.6561  -50.7086 H         1 UNK         0.0800 
    141 H141        0.4891  -21.3848  -50.9381 H         1 UNK         0.0800 
    142 H142       -1.1685  -21.7933  -50.6466 H         1 UNK         0.0800 
    143 H143        0.4095  -23.1357  -49.2905 H         1 UNK         0.0600 
    144 H144        1.5479  -20.5982  -48.5478 H         1 UNK         0.3000 
    145 H145        4.2394  -21.9857  -47.1499 H         1 UNK         0.0600 
    146 H146        3.6444  -19.9787  -48.4855 H         1 UNK         0.0600 
    147 H147        2.6244  -19.3668  -47.1845 H         1 UNK         0.0600 
    148 H148        4.3618  -19.5024  -46.9602 H         1 UNK         0.0600 
    149 H149        4.0362  -21.9132  -44.9440 H         1 UNK         0.3000 
    150 H150        2.6987  -22.2280  -42.9883 H         1 UNK         0.0600 
    151 H151        4.3713  -20.3359  -42.9951 H         1 UNK         0.0600 
    152 H152        3.5262  -20.4618  -41.4608 H         1 UNK         0.0600 
    153 H153        3.0781  -19.2069  -42.6070 H         1 UNK         0.0600 
    154 H154        0.6249  -20.0910  -42.7959 H         1 UNK         0.3000 
    155 H155       -1.6508  -21.4034  -42.1689 H         1 UNK         0.0600 
    156 H156       -0.9656  -22.3751  -39.3411 H         1 UNK         0.0600 
    157 H157       -1.7140  -23.3373  -40.6134 H         1 UNK         0.0600 
    158 H158       -2.5829  -21.9782  -39.9215 H         1 UNK         0.0600 
    159 H159        0.0095  -19.7971  -40.3637 H         1 UNK         0.3000 
    160 H160       -2.1053  -17.5193  -39.4705 H         1 UNK         0.0600 
    161 H161        0.7135  -17.7346  -40.6716 H         1 UNK         0.0600 
    162 H162        0.2282  -18.2155  -39.0430 H         1 UNK         0.0600 
    163 H163        0.1910  -16.5276  -39.5082 H         1 UNK         0.0600 
    164 H164       -1.0705  -16.6826  -42.1395 H         1 UNK         0.3000 
    165 H165       -3.9625  -15.1261  -43.0819 H         1 UNK         0.0600 
    166 H166       -2.8767  -12.8781  -43.1175 H         1 UNK         0.0600 
    167 H167       -3.5092  -13.2600  -41.5244 H         1 UNK         0.0600 
    168 H168       -1.7814  -13.3804  -41.8284 H         1 UNK         0.0600 
    169 H169       -1.1754  -14.7463  -43.8229 H         1 UNK         0.3000 
    170 H170       -0.9984  -17.7262  -45.7932 H         1 UNK         0.0600 
    171 H171       -2.1760  -16.2055  -47.3633 H         1 UNK         0.0600 
    172 H172       -1.2184  -14.8450  -46.7911 H         1 UNK         0.0600 
    173 H173       -0.4425  -16.1825  -47.6397 H         1 UNK         0.0600 
    174 H174        0.8619  -15.6354  -45.5995 H         1 UNK         0.3000 
    175 H175        2.6647  -16.9344  -42.7866 H         1 UNK         0.0600 
    176 H176        3.1441  -16.7509  -45.8126 H         1 UNK         0.0600 
    177 H177        4.3868  -16.8792  -44.5698 H         1 UNK         0.0600 
    178 H178        3.2757  -18.2096  -44.8465 H         1 UNK         0.0600 
    179 H179        2.6309  -14.6330  -44.6533 H         1 UNK         0.3000 
    180 H180        1.7596  -12.3310  -42.1265 H         1 UNK         0.0600 
    181 H181        3.8791  -11.1876  -42.7127 H         1 UNK         0.0600 
    182 H182        4.5275  -12.6753  -43.4025 H         1 UNK         0.0600 
    183 H183        4.2130  -12.5644  -41.6739 H         1 UNK         0.0600 
    184 H184        2.6346  -11.9550  -44.8117 H         1 UNK         0.3000 
    185 H185       -0.4108  -12.6831  -46.4728 H         1 UNK         0.0600 
    186 H186       -0.3119  -10.3077  -47.1442 H         1 UNK         0.0600 
    187 H187       -0.8753  -10.4330  -45.4857 H         1 UNK         0.0600 
    188 H188        0.7831   -9.9413  -45.8103 H         1 UNK         0.0600 
    189 H189        1.8479  -11.4591  -47.5256 H         1 UNK         0.3000 
    190 H190       -0.2476  -20.9442  -46.6433 H         1 UNK         0.3000 
    191 H191       -3.0068  -21.8128  -46.2666 H         1 UNK         0.0600 
    192 H192       -2.8823  -20.4361  -44.2062 H         1 UNK         0.0600 
    193 H193       -2.3777  -19.5478  -45.6272 H         1 UNK         0.0600 
    194 H194       -1.1742  -20.1403  -44.4806 H         1 UNK         0.0600 
    195 H195        0.0442  -23.2070  -45.5378 H         1 UNK         0.3000 
    196 H196       -0.6180  -24.6531  -43.1532 H         1 UNK         0.0600 
    197 H197        1.3873  -25.3353  -45.3710 H         1 UNK         0.0600 
    198 H198        1.7230  -24.3053  -43.9791 H         1 UNK         0.0600 
    199 H199        1.3658  -26.0087  -43.7468 H         1 UNK         0.0600 
    200 H200       -1.4214  -25.1370  -46.5338 H         1 UNK         0.3000 
    201 H201       -2.3731  -27.8844  -46.2548 H         1 UNK         0.0600 
    202 H202       -1.4702  -27.0086  -48.4118 H         1 UNK         0.0600 
    203 H203       -2.7464  -25.7945  -48.4693 H         1 UNK         0.0600 
    204 H204       -3.1457  -27.5021  -48.5948 H         1 UNK         0.0600 
    205 H205       -3.5815  -24.8391  -45.3507 H         1 UNK         0.3000 
    206 H206       -5.4996  -23.8374  -44.9335 H         1 UNK         0.0600 
    207 H207       -5.3960  -25.4629  -43.0775 H         1 UNK         0.0600 
    208 H208       -7.0668  -25.1364  -43.5078 H         1 UNK         0.0600 
    209 H209       -6.3098  -26.6423  -44.0158 H         1 UNK         0.0600 
    210 H210       -7.2400  -24.3569  -48.1635 H         1 UNK         0.3000 
    211 H211       -4.4727  -23.8040  -47.4441 H         1 UNK         0.0600 
    212 H212       -4.8139  -21.3526  -47.8422 H         1 UNK         0.0600 
    213 H213       -5.6524  -21.8672  -46.3872 H         1 UNK         0.0600 
    214 H214       -6.5557  -21.5899  -47.8738 H         1 UNK         0.0600 
    215 H215       -3.2694  -23.4920  -49.2825 H         1 UNK         0.3000 
    216 H216       -4.5429  -24.3500  -51.8105 H         1 UNK         0.0600 
    217 H217       -1.6140  -24.0851  -50.9537 H         1 UNK         0.0600 
    218 H218       -2.1701  -24.7296  -52.4933 H         1 UNK         0.0600 
    219 H219       -2.5603  -25.5675  -51.0038 H         1 UNK         0.0600 
    220 H220       -4.1758  -21.3862  -50.4524 H         1 UNK         0.3000 
    221 H221       -2.7437  -19.7840  -52.1873 H         1 UNK         0.0600 
    222 H222       -3.6199  -19.0542  -49.9702 H         1 UNK         0.0600 
    223 H223       -5.2623  -19.0423  -50.6052 H         1 UNK         0.0600 
    224 H224       -4.0640  -17.9107  -51.2245 H         1 UNK         0.0600 
    225 H225       -6.1336  -20.7943  -52.5057 H         1 UNK         0.3000 
    226 H226       -6.8280  -19.1549  -54.7368 H         1 UNK         0.0600 
    227 H227       -8.0383  -21.7854  -53.7242 H         1 UNK         0.0600 
    228 H228       -8.5105  -20.1631  -53.2162 H         1 UNK         0.0600 
    229 H229       -8.8011  -20.6863  -54.8671 H         1 UNK         0.0600 
    230 H230       -5.0720  -22.1895  -54.5313 H         1 UNK         0.3000 
    231 H231       -5.3112  -22.7639  -57.4253 H         1 UNK         0.0600 
    232 H232       -3.7617  -24.2130  -55.2118 H         1 UNK         0.0600 
    233 H233       -3.9325  -24.7412  -56.8790 H         1 UNK         0.0600 
    234 H234       -5.3435  -24.6762  -55.8347 H         1 UNK         0.0600 
    235 H235       -2.8961  -21.7810  -54.9627 H         1 UNK         0.3000 
    236 H236       -0.6455  -21.5720  -56.5961 H         1 UNK         0.0600 
    237 H237       -1.3637  -20.0355  -54.0534 H         1 UNK         0.0600 
    238 H238       -0.5499  -21.5936  -54.1328 H         1 UNK         0.0600 
    239 H239        0.2552  -20.1489  -54.7317 H         1 UNK         0.0600 
    240 H240       -3.0957  -19.0443  -55.8988 H         1 UNK         0.3000 
    241 H241       -1.8801  -17.2570  -57.9447 H         1 UNK         0.0600 
    242 H242       -4.7493  -19.2727  -59.6651 H         1 UNK         0.3800 
    243 H243       -3.6385  -19.9135  -58.4839 H         1 UNK         0.3800 
    244 H244       -3.5255  -15.5520  -57.1210 H         1 UNK         0.0800 
    245 H245       -4.0896  -16.6925  -55.9274 H         1 UNK         0.0800 
    246 H246       -3.4159  -16.5631  -53.7319 H         1 UNK         0.0800 
    247 H247       -3.2275  -14.8266  -53.7317 H         1 UNK         0.0800 
@<TRIPOS>BOND
     1    1    2 1    
     2    1  127 1    
     3    1  128 1    
     4    1  129 1    
     5    2    3 2    
     6    2    4 am   BACKBONE|DICT|INTERRES
     7    4    5 1    
     8    4  130 1    
     9    5    6 1    
    10    5   65 1    
    11    5  131 1    
    12    6    7 1    
    13    6  132 1    
    14    6  133 1    
    15    7    8 1    
    16    8    9 1    
    17    8  134 1    
    18    8  135 1    
    19    9   10 ar   
    20    9   14 ar   
    21   10   11 ar   
    22   10  136 1    
    23   11   12 ar   
    24   11  126 1    
    25   12   13 ar   
    26   12  137 1    
    27   13   14 ar   
    28   13   15 1    
    29   14  138 1    
    30   15   16 1    
    31   15  139 1    
    32   15  140 1    
    33   16   17 1    
    34   17   18 1    
    35   17  141 1    
    36   17  142 1    
    37   18   19 1    
    38   18   67 1    
    39   18  143 1    
    40   19   20 am   BACKBONE|DICT|INTERRES
    41   19  144 1    
    42   20   21 2    
    43   20   22 1    
    44   22   23 1    
    45   22   24 1    
    46   22  145 1    
    47   23  146 1    
    48   23  147 1    
    49   23  148 1    
    50   24   25 am   BACKBONE|DICT|INTERRES
    51   24  149 1    
    52   25   26 2    
    53   25   27 1    
    54   27   28 1    
    55   27   29 1    
    56   27  150 1    
    57   28  151 1    
    58   28  152 1    
    59   28  153 1    
    60   29   30 am   BACKBONE|DICT|INTERRES
    61   29  154 1    
    62   30   31 2    
    63   30   32 1    
    64   32   33 1    
    65   32   34 1    
    66   32  155 1    
    67   33  156 1    
    68   33  157 1    
    69   33  158 1    
    70   34   35 am   BACKBONE|DICT|INTERRES
    71   34  159 1    
    72   35   36 2    
    73   35   37 1    
    74   37   38 1    
    75   37   39 1    
    76   37  160 1    
    77   38  161 1    
    78   38  162 1    
    79   38  163 1    
    80   39   40 am   BACKBONE|DICT|INTERRES
    81   39  164 1    
    82   40   41 2    
    83   40   42 1    
    84   42   43 1    
    85   42   44 1    
    86   42  165 1    
    87   43  166 1    
    88   43  167 1    
    89   43  168 1    
    90   44   45 am   BACKBONE|DICT|INTERRES
    91   44  169 1    
    92   45   46 2    
    93   45   47 1    
    94   47   48 1    
    95   47   49 1    
    96   47  170 1    
    97   48  171 1    
    98   48  172 1    
    99   48  173 1    
   100   49   50 am   BACKBONE|DICT|INTERRES
   101   49  174 1    
   102   50   51 2    
   103   50   52 1    
   104   52   53 1    
   105   52   54 1    
   106   52  175 1    
   107   53  176 1    
   108   53  177 1    
   109   53  178 1    
   110   54   55 am   BACKBONE|DICT|INTERRES
   111   54  179 1    
   112   55   56 2    
   113   55   57 1    
   114   57   58 1    
   115   57   59 1    
   116   57  180 1    
   117   58  181 1    
   118   58  182 1    
   119   58  183 1    
   120   59   60 am   BACKBONE|DICT|INTERRES
   121   59  184 1    
   122   60   61 2    
   123   60   62 1    
   124   62   63 1    
   125   62   64 1    
   126   62  185 1    
   127   63  186 1    
   128   63  187 1    
   129   63  188 1    
   130   64   65 am   BACKBONE|DICT|INTERRES
   131   64  189 1    
   132   65   66 2    
   133   67   68 2    
   134   67   69 am   BACKBONE|DICT|INTERRES
   135   69   70 1    
   136   69  190 1    
   137   70   71 1    
   138   70   72 1    
   139   70  191 1    
   140   71  192 1    
   141   71  193 1    
   142   71  194 1    
   143   72   73 2    
   144   72   74 am   BACKBONE|DICT|INTERRES
   145   74   75 1    
   146   74  195 1    
   147   75   76 1    
   148   75   77 1    
   149   75  196 1    
   150   76  197 1    
   151   76  198 1    
   152   76  199 1    
   153   77   78 2    
   154   77   79 am   BACKBONE|DICT|INTERRES
   155   79   80 1    
   156   79  200 1    
   157   80   81 1    
   158   80   82 1    
   159   80  201 1    
   160   81  202 1    
   161   81  203 1    
   162   81  204 1    
   163   82   83 2    
   164   82   84 am   BACKBONE|DICT|INTERRES
   165   84   85 1    
   166   84  205 1    
   167   85   86 1    
   168   85   87 1    
   169   85  206 1    
   170   86  207 1    
   171   86  208 1    
   172   86  209 1    
   173   87   88 2    
   174   87   89 am   BACKBONE|DICT|INTERRES
   175   89   90 1    
   176   89  210 1    
   177   90   91 1    
   178   90   92 1    
   179   90  211 1    
   180   91  212 1    
   181   91  213 1    
   182   91  214 1    
   183   92   93 2    
   184   92   94 am   BACKBONE|DICT|INTERRES
   185   94   95 1    
   186   94  215 1    
   187   95   96 1    
   188   95   97 1    
   189   95  216 1    
   190   96  217 1    
   191   96  218 1    
   192   96  219 1    
   193   97   98 2    
   194   97   99 am   BACKBONE|DICT|INTERRES
   195   99  100 1    
   196   99  220 1    
   197  100  101 1    
   198  100  102 1    
   199  100  221 1    
   200  101  222 1    
   201  101  223 1    
   202  101  224 1    
   203  102  103 2    
   204  102  104 am   BACKBONE|DICT|INTERRES
   205  104  105 1    
   206  104  225 1    
   207  105  106 1    
   208  105  107 1    
   209  105  226 1    
   210  106  227 1    
   211  106  228 1    
   212  106  229 1    
   213  107  108 2    
   214  107  109 am   BACKBONE|DICT|INTERRES
   215  109  110 1    
   216  109  230 1    
   217  110  111 1    
   218  110  112 1    
   219  110  231 1    
   220  111  232 1    
   221  111  233 1    
   222  111  234 1    
   223  112  113 2    
   224  112  114 am   BACKBONE|DICT|INTERRES
   225  114  115 1    
   226  114  235 1    
   227  115  116 1    
   228  115  117 1    
   229  115  236 1    
   230  116  237 1    
   231  116  238 1    
   232  116  239 1    
   233  117  118 2    
   234  117  119 am   BACKBONE|DICT|INTERRES
   235  119  120 1    
   236  119  240 1    
   237  120  121 1    
   238  120  124 1    
   239  120  241 1    
   240  121  122 am   BACKBONE|DICT|INTERRES
   241  121  123 2    
   242  122  242 1    
   243  122  243 1    
   244  124  125 1    
   245  124  244 1    
   246  124  245 1    
   247  125  126 1    
   248  126  246 1    
   249  126  247 1    
@<TRIPOS>SUBSTRUCTURE
     1 UNK         1 GROUP             0       ****    0 ROOT    
