@<TRIPOS>MOLECULE
3R540
247   249    1
SMALL
USER_CHARGES


@<TRIPOS>ATOM
      1 CA          0.0942   -8.1157  -48.7699 C.3       0 UNK        -0.1800 
      2 C          -0.0150   -9.4165  -49.5534 C.2       0 UNK         0.5000 
      3 O           0.4533   -9.4882  -50.6902 O.2       0 UNK        -0.5000 
      4 N          -0.6379  -10.4379  -48.9547 N.am      1 UNK        -0.5000 
      5 CA         -0.7702  -11.7857  -49.5146 C.3       1 UNK         0.1400 
      6 C6         -1.9506  -12.5497  -48.8628 C.3       23 UNK        -0.0398 
      7 S7         -1.7178  -12.9243  -47.0865 S.3       23 UNK        -0.2404 
      8 C8         -3.0823  -14.0876  -46.7555 C.3       23 UNK        -0.0205 
      9 C9         -3.1302  -15.2624  -47.7257 C.ar      23 UNK        -0.0193 
     10 C10        -4.2924  -15.5104  -48.4615 C.ar      23 UNK        -0.1150 
     11 C11        -4.3531  -16.5783  -49.3611 C.ar      23 UNK        -0.0193 
     12 C12        -3.2437  -17.4151  -49.5054 C.ar      23 UNK        -0.1150 
     13 C13        -2.0631  -17.1571  -48.8066 C.ar      23 UNK        -0.0193 
     14 C14        -2.0172  -16.0888  -47.9077 C.ar      23 UNK        -0.1150 
     15 C15        -0.8266  -18.0059  -49.0542 C.3       23 UNK        -0.0205 
     16 S16        -0.3672  -18.9873  -47.5973 S.3       23 UNK        -0.2404 
     17 C17        -1.8180  -20.0797  -47.4591 C.3       23 UNK        -0.0398 
     18 CA         -1.4348  -21.5043  -47.0068 C.3       11 UNK         0.1400 
     19 N          -0.7213  -21.5170  -45.7292 N.am      11 UNK        -0.5000 
     20 C          -0.0467  -22.5673  -45.2421 C.2       10 UNK         0.5000 
     21 O           0.0660  -23.6383  -45.8355 O.2       10 UNK        -0.5000 
     22 CA          0.5635  -22.4123  -43.8361 C.3       10 UNK         0.1400 
     23 CB          1.9905  -21.8511  -43.9281 C.3       10 UNK        -0.1800 
     24 N          -0.2406  -21.5522  -42.9671 N.am      10 UNK        -0.5000 
     25 C          -1.4962  -21.8241  -42.5792 C.2       9 UNK         0.5000 
     26 O          -2.0780  -22.8745  -42.8527 O.2       9 UNK        -0.5000 
     27 CA         -2.2485  -20.7218  -41.8061 C.3       9 UNK         0.1400 
     28 CB         -2.1818  -20.9883  -40.2954 C.3       9 UNK        -0.1800 
     29 N          -1.7521  -19.3684  -42.0751 N.am      9 UNK        -0.5000 
     30 C          -1.7611  -18.7583  -43.2709 C.2       8 UNK         0.5000 
     31 O          -2.2415  -19.2685  -44.2813 O.2       8 UNK        -0.5000 
     32 CA         -1.0702  -17.3809  -43.3636 C.3       8 UNK         0.1400 
     33 CB         -2.1027  -16.2467  -43.3095 C.3       8 UNK        -0.1800 
     34 N          -0.0743  -17.1848  -42.3044 N.am      8 UNK        -0.5000 
     35 C           1.0921  -17.8384  -42.2419 C.2       7 UNK         0.5000 
     36 O           1.5276  -18.5315  -43.1622 O.2       7 UNK        -0.5000 
     37 CA          1.8625  -17.7206  -40.9148 C.3       7 UNK         0.1400 
     38 CB          2.9159  -18.8276  -40.7350 C.3       7 UNK        -0.1800 
     39 N           2.4924  -16.4102  -40.7724 N.am      7 UNK        -0.5000 
     40 C           1.8636  -15.3136  -40.3237 C.2       6 UNK         0.5000 
     41 O           0.6653  -15.2962  -40.0361 O.2       6 UNK        -0.5000 
     42 CA          2.6962  -14.0280  -40.1416 C.3       6 UNK         0.1400 
     43 CB          3.0649  -13.8366  -38.6623 C.3       6 UNK        -0.1800 
     44 N           3.9233  -14.0129  -40.9376 N.am      6 UNK        -0.5000 
     45 C           3.9631  -13.7880  -42.2558 C.2       5 UNK         0.5000 
     46 O           2.9682  -13.5173  -42.9295 O.2       5 UNK        -0.5000 
     47 CA          5.3291  -13.9156  -42.9600 C.3       5 UNK         0.1400 
     48 CB          6.5441  -13.9930  -42.0070 C.3       5 UNK        -0.1800 
     49 N           5.3062  -15.0497  -43.8851 N.am      5 UNK        -0.5000 
     50 C           5.0928  -16.3369  -43.5794 C.2       4 UNK         0.5000 
     51 O           5.0181  -16.7643  -42.4263 O.2       4 UNK        -0.5000 
     52 CA          4.8458  -17.2735  -44.7786 C.3       4 UNK         0.1400 
     53 CB          4.9195  -18.7650  -44.4073 C.3       4 UNK        -0.1800 
     54 N           3.5357  -16.9946  -45.3676 N.am      4 UNK        -0.5000 
     55 C           3.2674  -15.9590  -46.1734 C.2       3 UNK         0.5000 
     56 O           4.1237  -15.1560  -46.5569 O.2       3 UNK        -0.5000 
     57 CA          1.7905  -15.7583  -46.5602 C.3       3 UNK         0.1400 
     58 CB          1.0629  -14.9818  -45.4500 C.3       3 UNK        -0.1800 
     59 N           1.6291  -15.0430  -47.8291 N.am      3 UNK        -0.5000 
     60 C           2.0331  -15.4861  -49.0278 C.2       2 UNK         0.5000 
     61 O           2.5485  -16.5940  -49.1889 O.2       2 UNK        -0.5000 
     62 CA          1.8149  -14.5664  -50.2565 C.3       2 UNK         0.1400 
     63 CB          1.7018  -15.3709  -51.5651 C.3       2 UNK        -0.1800 
     64 N           0.6496  -13.6797  -50.1660 N.am      2 UNK        -0.5000 
     65 C           0.5607  -12.5702  -49.4247 C.2       1 UNK         0.5000 
     66 O           1.4605  -12.1929  -48.6688 O.2       1 UNK        -0.5000 
     67 C          -2.6891  -22.3904  -46.9438 C.2       11 UNK         0.5000 
     68 O          -2.9466  -23.1419  -47.8836 O.2       11 UNK        -0.5000 
     69 N          -3.4279  -22.3094  -45.8274 N.am      12 UNK        -0.5000 
     70 CA         -4.6027  -23.1372  -45.5524 C.3       12 UNK         0.1400 
     71 CB         -5.3075  -22.6375  -44.2823 C.3       12 UNK        -0.1800 
     72 C          -4.2412  -24.6285  -45.4428 C.2       12 UNK         0.5000 
     73 O          -4.9305  -25.4622  -46.0318 O.2       12 UNK        -0.5000 
     74 N          -3.1319  -24.9222  -44.7472 N.am      13 UNK        -0.5000 
     75 CA         -2.5387  -26.2565  -44.6387 C.3       13 UNK         0.1400 
     76 CB         -1.3704  -26.2177  -43.6426 C.3       13 UNK        -0.1800 
     77 C          -2.0829  -26.8228  -45.9980 C.2       13 UNK         0.5000 
     78 O          -2.2820  -28.0094  -46.2586 O.2       13 UNK        -0.5000 
     79 N          -1.5433  -25.9576  -46.8672 N.am      14 UNK        -0.5000 
     80 CA         -1.1485  -26.2526  -48.2473 C.3       14 UNK         0.1400 
     81 CB         -0.0584  -25.2542  -48.6775 C.3       14 UNK        -0.1800 
     82 C          -2.3418  -26.2720  -49.2310 C.2       14 UNK         0.5000 
     83 O          -2.2162  -25.7811  -50.3542 O.2       14 UNK        -0.5000 
     84 N          -3.4769  -26.8406  -48.7991 N.am      15 UNK        -0.5000 
     85 CA         -4.7141  -27.0595  -49.5573 C.3       15 UNK         0.1400 
     86 CB         -4.4936  -28.1566  -50.6201 C.3       15 UNK        -0.1800 
     87 C          -5.3151  -25.7665  -50.1496 C.2       15 UNK         0.5000 
     88 O          -5.7552  -25.7653  -51.3003 O.2       15 UNK        -0.5000 
     89 N          -5.3061  -24.6902  -49.3483 N.am      16 UNK        -0.5000 
     90 CA         -5.7137  -23.3254  -49.7047 C.3       16 UNK         0.1400 
     91 CB         -7.2282  -23.2490  -49.9896 C.3       16 UNK        -0.1800 
     92 C          -4.8470  -22.7581  -50.8468 C.2       16 UNK         0.5000 
     93 O          -5.3637  -22.3728  -51.8974 O.2       16 UNK        -0.5000 
     94 N          -3.5280  -22.7548  -50.6078 N.am      17 UNK        -0.5000 
     95 CA         -2.4547  -22.3171  -51.5036 C.3       17 UNK         0.1400 
     96 CB         -2.4757  -20.7839  -51.6490 C.3       17 UNK        -0.1800 
     97 C          -2.4869  -23.0483  -52.8587 C.2       17 UNK         0.5000 
     98 O          -2.4753  -22.4022  -53.9095 O.2       17 UNK        -0.5000 
     99 N          -2.5821  -24.3838  -52.7929 N.am      18 UNK        -0.5000 
    100 CA        -2.7063  -25.3714  -53.8718 C.3       18 UNK         0.1400 
    101 CB        -1.4532  -25.3738  -54.7675 C.3       18 UNK        -0.1800 
    102 C         -3.9930  -25.2490  -54.7135 C.2       18 UNK         0.5000 
    103 O         -4.6987  -26.2417  -54.8958 O.2       18 UNK        -0.5000 
    104 N         -4.2647  -24.0429  -55.2153 N.am      19 UNK        -0.5000 
    105 CA        -5.4109  -23.6673  -56.0328 C.3       19 UNK         0.1400 
    106 CB        -5.2337  -24.1879  -57.4744 C.3       19 UNK        -0.1800 
    107 C         -5.6019  -22.1417  -55.9576 C.2       19 UNK         0.5000 
    108 O         -5.7561  -21.4888  -56.9913 O.2       19 UNK        -0.5000 
    109 N         -5.5668  -21.5989  -54.7308 N.am      20 UNK        -0.5000 
    110 CA        -5.7183  -20.1818  -54.3880 C.3       20 UNK         0.1400 
    111 CB        -7.1467  -19.6887  -54.7009 C.3       20 UNK        -0.1800 
    112 C         -4.6179  -19.2806  -54.9861 C.2       20 UNK         0.5000 
    113 O         -4.9098  -18.1848  -55.4714 O.2       20 UNK        -0.5000 
    114 N         -3.3562  -19.7291  -54.9078 N.am      21 UNK        -0.5000 
    115 CA        -2.1632  -18.9480  -55.2519 C.3       21 UNK         0.1400 
    116 CB        -1.0033  -19.9139  -55.5520 C.3       21 UNK        -0.1800 
    117 C         -1.8213  -17.9312  -54.1377 C.2       21 UNK         0.5000 
    118 O         -0.7587  -18.0107  -53.5196 O.2       21 UNK        -0.5000 
    119 N         -2.7641  -17.0216  -53.8714 N.am      22 UNK        -0.5000 
    120 CA        -2.7505  -16.0685  -52.7503 C.3       22 UNK         0.1400 
    121 C         -1.8073  -14.8455  -52.9305 C.2       22 UNK         0.5000 
    122 N         -1.2590  -14.5941  -54.1122 N.am      22 UNK        -0.7600 
    123 O         -1.5524  -14.1213  -51.9719 O.2       22 UNK        -0.5000 
    124 C124       -4.1901  -15.6177  -52.3812 C.3       23 UNK        -0.0398 
    125 S125       -5.2822  -17.0313  -51.9735 S.3       23 UNK        -0.2404 
    126 C126       -5.6117  -16.8016  -50.1915 C.3       23 UNK        -0.0205 
    127 H127        1.1419   -7.8506  -48.6279 H         1 UNK         0.0600 
    128 H128       -0.3727   -8.1935  -47.7877 H         1 UNK         0.0600 
    129 H129       -0.3927   -7.3069  -49.3147 H         1 UNK         0.0600 
    130 H130       -0.9665  -10.3335  -48.0053 H         1 UNK         0.3000 
    131 H131       -1.0033  -11.6796  -50.5765 H         1 UNK         0.0600 
    132 H132       -2.1208  -13.4780  -49.4082 H         1 UNK         0.0800 
    133 H133       -2.8707  -11.9748  -48.9752 H         1 UNK         0.0800 
    134 H134       -4.0209  -13.5317  -46.7756 H         1 UNK         0.0800 
    135 H135       -2.9761  -14.4722  -45.7411 H         1 UNK         0.0800 
    136 H136       -5.1498  -14.8631  -48.3415 H         1 UNK         0.1150 
    137 H137       -3.2884  -18.2368  -50.2044 H         1 UNK         0.1150 
    138 H138       -1.1065  -15.8926  -47.3636 H         1 UNK         0.1150 
    139 H139       -0.9619  -18.6645  -49.9121 H         1 UNK         0.0800 
    140 H140        0.0001  -17.3519  -49.3179 H         1 UNK         0.0800 
    141 H141       -2.3244  -20.1246  -48.4227 H         1 UNK         0.0800 
    142 H142       -2.5302  -19.6179  -46.7749 H         1 UNK         0.0800 
    143 H143       -0.7719  -21.9289  -47.7639 H         1 UNK         0.0600 
    144 H144       -0.8035  -20.6777  -45.1701 H         1 UNK         0.3000 
    145 H145        0.6111  -23.4026  -43.3790 H         1 UNK         0.0600 
    146 H146        2.4411  -21.7457  -42.9411 H         1 UNK         0.0600 
    147 H147        2.6320  -22.5139  -44.5101 H         1 UNK         0.0600 
    148 H148        2.0087  -20.8733  -44.4109 H         1 UNK         0.0600 
    149 H149        0.1614  -20.6583  -42.7233 H         1 UNK         0.3000 
    150 H150       -3.2943  -20.7615  -42.1175 H         1 UNK         0.0600 
    151 H151       -2.5684  -21.9801  -40.0564 H         1 UNK         0.0600 
    152 H152       -2.7806  -20.2661  -39.7401 H         1 UNK         0.0600 
    153 H153       -1.1584  -20.9360  -39.9219 H         1 UNK         0.0600 
    154 H154       -1.3522  -18.8731  -41.2926 H         1 UNK         0.3000 
    155 H155       -0.5653  -17.3358  -44.3310 H         1 UNK         0.0600 
    156 H156       -2.6280  -16.2243  -42.3540 H         1 UNK         0.0600 
    157 H157       -2.8511  -16.3652  -44.0943 H         1 UNK         0.0600 
    158 H158       -1.6287  -15.2759  -43.4565 H         1 UNK         0.0600 
    159 H159       -0.3273  -16.5776  -41.5334 H         1 UNK         0.3000 
    160 H160        1.1363  -17.8531  -40.1097 H         1 UNK         0.0600 
    161 H161        3.3842  -18.7676  -39.7526 H         1 UNK         0.0600 
    162 H162        2.4613  -19.8156  -40.8181 H         1 UNK         0.0600 
    163 H163        3.7051  -18.7699  -41.4818 H         1 UNK         0.0600 
    164 H164        3.4599  -16.3450  -41.0698 H         1 UNK         0.3000 
    165 H165        2.0705  -13.1863  -40.4464 H         1 UNK         0.0600 
    166 H166        3.5953  -12.8970  -38.5061 H         1 UNK         0.0600 
    167 H167        2.1717  -13.8115  -38.0366 H         1 UNK         0.0600 
    168 H168        3.6987  -14.6458  -38.2972 H         1 UNK         0.0600 
    169 H169        4.7804  -14.2523  -40.4605 H         1 UNK         0.3000 
    170 H170        5.4448  -13.0185  -43.5697 H         1 UNK         0.0600 
    171 H171        6.5223  -14.8746  -41.3662 H         1 UNK         0.0600 
    172 H172        7.4758  -14.0236  -42.5720 H         1 UNK         0.0600 
    173 H173        6.5912  -13.1147  -41.3620 H         1 UNK         0.0600 
    174 H174        5.2403  -14.8046  -44.8679 H         1 UNK         0.3000 
    175 H175        5.6257  -17.0795  -45.5182 H         1 UNK         0.0600 
    176 H176        4.1137  -19.0578  -43.7354 H         1 UNK         0.0600 
    177 H177        4.8514  -19.3928  -45.2957 H         1 UNK         0.0600 
    178 H178        5.8633  -19.0004  -43.9141 H         1 UNK         0.0600 
    179 H179        2.7760  -17.5767  -45.0383 H         1 UNK         0.3000 
    180 H180        1.3277  -16.7407  -46.6630 H         1 UNK         0.0600 
    181 H181       -0.0109  -14.9406  -45.6231 H         1 UNK         0.0600 
    182 H182        1.4288  -13.9570  -45.3733 H         1 UNK         0.0600 
    183 H183        1.2108  -15.4504  -44.4761 H         1 UNK         0.0600 
    184 H184        1.2964  -14.0886  -47.7746 H         1 UNK         0.3000 
    185 H185        2.7063  -13.9407  -50.3324 H         1 UNK         0.0600 
    186 H186        2.5965  -15.9683  -51.7436 H         1 UNK         0.0600 
    187 H187        0.8495  -16.0517  -51.5440 H         1 UNK         0.0600 
    188 H188        1.5806  -14.7124  -52.4254 H         1 UNK         0.0600 
    189 H189       -0.1410  -13.9255  -50.7589 H         1 UNK         0.3000 
    190 H190       -3.1348  -21.6745  -45.0983 H         1 UNK         0.3000 
    191 H191       -5.2958  -23.0228  -46.3880 H         1 UNK         0.0600 
    192 H192       -4.6743  -22.7308  -43.4002 H         1 UNK         0.0600 
    193 H193       -6.2162  -23.2101  -44.0929 H         1 UNK         0.0600 
    194 H194       -5.5971  -21.5909  -44.3777 H         1 UNK         0.0600 
    195 H195       -2.6558  -24.1718  -44.2558 H         1 UNK         0.3000 
    196 H196       -3.3035  -26.9263  -44.2403 H         1 UNK         0.0600 
    197 H197       -0.9427  -27.2114  -43.5041 H         1 UNK         0.0600 
    198 H198       -1.6971  -25.8639  -42.6645 H         1 UNK         0.0600 
    199 H199       -0.5705  -25.5613  -43.9850 H         1 UNK         0.0600 
    200 H200       -1.3868  -25.0047  -46.5602 H         1 UNK         0.3000 
    201 H201       -0.7067  -27.2505  -48.2736 H         1 UNK         0.0600 
    202 H202        0.7894  -25.2769  -47.9928 H         1 UNK         0.0600 
    203 H203        0.3247  -25.4902  -49.6710 H         1 UNK         0.0600 
    204 H204       -0.4399  -24.2333  -48.7049 H         1 UNK         0.0600 
    205 H205       -3.4719  -27.2083  -47.8553 H         1 UNK         0.3000 
    206 H206       -5.4481  -27.4341  -48.8426 H         1 UNK         0.0600 
    207 H207       -4.0958  -29.0666  -50.1709 H         1 UNK         0.0600 
    208 H208       -5.4308  -28.4220  -51.1106 H         1 UNK         0.0600 
    209 H209       -3.7984  -27.8336  -51.3957 H         1 UNK         0.0600 
    210 H210       -4.8816  -24.7957  -48.4357 H         1 UNK         0.3000 
    211 H211       -5.5176  -22.7026  -48.8314 H         1 UNK         0.0600 
    212 H212       -7.5079  -23.8146  -50.8786 H         1 UNK         0.0600 
    213 H213       -7.5394  -22.2165  -50.1519 H         1 UNK         0.0600 
    214 H214       -7.8065  -23.6351  -49.1504 H         1 UNK         0.0600 
    215 H215       -3.2253  -23.1043  -49.7008 H         1 UNK         0.3000 
    216 H216       -1.5152  -22.5949  -51.0235 H         1 UNK         0.0600 
    217 H217       -1.6316  -20.4333  -52.2433 H         1 UNK         0.0600 
    218 H218       -2.4048  -20.3073  -50.6761 H         1 UNK         0.0600 
    219 H219       -3.3895  -20.4290  -52.1245 H         1 UNK         0.0600 
    220 H220       -2.5878  -24.7966  -51.8609 H         1 UNK         0.3000 
    221 H221       -2.7523  -26.3401  -53.3715 H         1 UNK         0.0600 
    222 H222       -1.3265  -24.4293  -55.2975 H         1 UNK         0.0600 
    223 H223       -0.5519  -25.5521  -54.1810 H         1 UNK         0.0600 
    224 H224       -1.5141  -26.1625  -55.5183 H         1 UNK         0.0600 
    225 H225       -3.6263  -23.2888  -54.9663 H         1 UNK         0.3000 
    226 H226       -6.3084  -24.1197  -55.6064 H         1 UNK         0.0600 
    227 H227       -4.3408  -23.7711  -57.9419 H         1 UNK         0.0600 
    228 H228       -5.1481  -25.2741  -57.4995 H         1 UNK         0.0600 
    229 H229       -6.0888  -23.9201  -58.0961 H         1 UNK         0.0600 
    230 H230       -5.4295  -22.2062  -53.9277 H         1 UNK         0.3000 
    231 H231       -5.5914  -20.1166  -53.3070 H         1 UNK         0.0600 
    232 H232       -7.8949  -20.3288  -54.2336 H         1 UNK         0.0600 
    233 H233       -7.3444  -19.6658  -55.7728 H         1 UNK         0.0600 
    234 H234       -7.3017  -18.6790  -54.3185 H         1 UNK         0.0600 
    235 H235       -3.1824  -20.6436  -54.5017 H         1 UNK         0.3000 
    236 H236       -2.3628  -18.3808  -56.1633 H         1 UNK         0.0600 
    237 H237       -0.1173  -19.3691  -55.8799 H         1 UNK         0.0600 
    238 H238       -0.7233  -20.4958  -54.6733 H         1 UNK         0.0600 
    239 H239       -1.2675  -20.6138  -56.3450 H         1 UNK         0.0600 
    240 H240       -3.6220  -17.0648  -54.4116 H         1 UNK         0.3000 
    241 H241       -2.3426  -16.6024  -51.8926 H         1 UNK         0.0600 
    242 H242       -1.4516  -15.1884  -54.9022 H         1 UNK         0.3800 
    243 H243       -0.6459  -13.8018  -54.2170 H         1 UNK         0.3800 
    244 H244       -4.6380  -15.0746  -53.2148 H         1 UNK         0.0800 
    245 H245       -4.1749  -14.9180  -51.5439 H         1 UNK         0.0800 
    246 H246       -6.1316  -17.6823  -49.8128 H         1 UNK         0.0800 
    247 H247       -6.3006  -15.9633  -50.0772 H         1 UNK         0.0800 
@<TRIPOS>BOND
     1    1    2 1    
     2    1  127 1    
     3    1  128 1    
     4    1  129 1    
     5    2    3 2    
     6    2    4 am   BACKBONE|DICT|INTERRES
     7    4    5 1    
     8    4  130 1    
     9    5    6 1    
    10    5   65 1    
    11    5  131 1    
    12    6    7 1    
    13    6  132 1    
    14    6  133 1    
    15    7    8 1    
    16    8    9 1    
    17    8  134 1    
    18    8  135 1    
    19    9   10 ar   
    20    9   14 ar   
    21   10   11 ar   
    22   10  136 1    
    23   11   12 ar   
    24   11  126 1    
    25   12   13 ar   
    26   12  137 1    
    27   13   14 ar   
    28   13   15 1    
    29   14  138 1    
    30   15   16 1    
    31   15  139 1    
    32   15  140 1    
    33   16   17 1    
    34   17   18 1    
    35   17  141 1    
    36   17  142 1    
    37   18   19 1    
    38   18   67 1    
    39   18  143 1    
    40   19   20 am   BACKBONE|DICT|INTERRES
    41   19  144 1    
    42   20   21 2    
    43   20   22 1    
    44   22   23 1    
    45   22   24 1    
    46   22  145 1    
    47   23  146 1    
    48   23  147 1    
    49   23  148 1    
    50   24   25 am   BACKBONE|DICT|INTERRES
    51   24  149 1    
    52   25   26 2    
    53   25   27 1    
    54   27   28 1    
    55   27   29 1    
    56   27  150 1    
    57   28  151 1    
    58   28  152 1    
    59   28  153 1    
    60   29   30 am   BACKBONE|DICT|INTERRES
    61   29  154 1    
    62   30   31 2    
    63   30   32 1    
    64   32   33 1    
    65   32   34 1    
    66   32  155 1    
    67   33  156 1    
    68   33  157 1    
    69   33  158 1    
    70   34   35 am   BACKBONE|DICT|INTERRES
    71   34  159 1    
    72   35   36 2    
    73   35   37 1    
    74   37   38 1    
    75   37   39 1    
    76   37  160 1    
    77   38  161 1    
    78   38  162 1    
    79   38  163 1    
    80   39   40 am   BACKBONE|DICT|INTERRES
    81   39  164 1    
    82   40   41 2    
    83   40   42 1    
    84   42   43 1    
    85   42   44 1    
    86   42  165 1    
    87   43  166 1    
    88   43  167 1    
    89   43  168 1    
    90   44   45 am   BACKBONE|DICT|INTERRES
    91   44  169 1    
    92   45   46 2    
    93   45   47 1    
    94   47   48 1    
    95   47   49 1    
    96   47  170 1    
    97   48  171 1    
    98   48  172 1    
    99   48  173 1    
   100   49   50 am   BACKBONE|DICT|INTERRES
   101   49  174 1    
   102   50   51 2    
   103   50   52 1    
   104   52   53 1    
   105   52   54 1    
   106   52  175 1    
   107   53  176 1    
   108   53  177 1    
   109   53  178 1    
   110   54   55 am   BACKBONE|DICT|INTERRES
   111   54  179 1    
   112   55   56 2    
   113   55   57 1    
   114   57   58 1    
   115   57   59 1    
   116   57  180 1    
   117   58  181 1    
   118   58  182 1    
   119   58  183 1    
   120   59   60 am   BACKBONE|DICT|INTERRES
   121   59  184 1    
   122   60   61 2    
   123   60   62 1    
   124   62   63 1    
   125   62   64 1    
   126   62  185 1    
   127   63  186 1    
   128   63  187 1    
   129   63  188 1    
   130   64   65 am   BACKBONE|DICT|INTERRES
   131   64  189 1    
   132   65   66 2    
   133   67   68 2    
   134   67   69 am   BACKBONE|DICT|INTERRES
   135   69   70 1    
   136   69  190 1    
   137   70   71 1    
   138   70   72 1    
   139   70  191 1    
   140   71  192 1    
   141   71  193 1    
   142   71  194 1    
   143   72   73 2    
   144   72   74 am   BACKBONE|DICT|INTERRES
   145   74   75 1    
   146   74  195 1    
   147   75   76 1    
   148   75   77 1    
   149   75  196 1    
   150   76  197 1    
   151   76  198 1    
   152   76  199 1    
   153   77   78 2    
   154   77   79 am   BACKBONE|DICT|INTERRES
   155   79   80 1    
   156   79  200 1    
   157   80   81 1    
   158   80   82 1    
   159   80  201 1    
   160   81  202 1    
   161   81  203 1    
   162   81  204 1    
   163   82   83 2    
   164   82   84 am   BACKBONE|DICT|INTERRES
   165   84   85 1    
   166   84  205 1    
   167   85   86 1    
   168   85   87 1    
   169   85  206 1    
   170   86  207 1    
   171   86  208 1    
   172   86  209 1    
   173   87   88 2    
   174   87   89 am   BACKBONE|DICT|INTERRES
   175   89   90 1    
   176   89  210 1    
   177   90   91 1    
   178   90   92 1    
   179   90  211 1    
   180   91  212 1    
   181   91  213 1    
   182   91  214 1    
   183   92   93 2    
   184   92   94 am   BACKBONE|DICT|INTERRES
   185   94   95 1    
   186   94  215 1    
   187   95   96 1    
   188   95   97 1    
   189   95  216 1    
   190   96  217 1    
   191   96  218 1    
   192   96  219 1    
   193   97   98 2    
   194   97   99 am   BACKBONE|DICT|INTERRES
   195   99  100 1    
   196   99  220 1    
   197  100  101 1    
   198  100  102 1    
   199  100  221 1    
   200  101  222 1    
   201  101  223 1    
   202  101  224 1    
   203  102  103 2    
   204  102  104 am   BACKBONE|DICT|INTERRES
   205  104  105 1    
   206  104  225 1    
   207  105  106 1    
   208  105  107 1    
   209  105  226 1    
   210  106  227 1    
   211  106  228 1    
   212  106  229 1    
   213  107  108 2    
   214  107  109 am   BACKBONE|DICT|INTERRES
   215  109  110 1    
   216  109  230 1    
   217  110  111 1    
   218  110  112 1    
   219  110  231 1    
   220  111  232 1    
   221  111  233 1    
   222  111  234 1    
   223  112  113 2    
   224  112  114 am   BACKBONE|DICT|INTERRES
   225  114  115 1    
   226  114  235 1    
   227  115  116 1    
   228  115  117 1    
   229  115  236 1    
   230  116  237 1    
   231  116  238 1    
   232  116  239 1    
   233  117  118 2    
   234  117  119 am   BACKBONE|DICT|INTERRES
   235  119  120 1    
   236  119  240 1    
   237  120  121 1    
   238  120  124 1    
   239  120  241 1    
   240  121  122 am   BACKBONE|DICT|INTERRES
   241  121  123 2    
   242  122  242 1    
   243  122  243 1    
   244  124  125 1    
   245  124  244 1    
   246  124  245 1    
   247  125  126 1    
   248  126  246 1    
   249  126  247 1    
@<TRIPOS>SUBSTRUCTURE
     1 UNK         1 GROUP             0       ****    0 ROOT    
