@<TRIPOS>MOLECULE
3R540
247   249    1
SMALL
USER_CHARGES


@<TRIPOS>ATOM
      1 CA         -0.8887  -12.7908  -49.0830 C.3       0 UNK        -0.1800 
      2 C           0.1993  -12.9382  -48.0303 C.2       0 UNK         0.5000 
      3 O          -0.0027  -12.5546  -46.8797 O.2       0 UNK        -0.5000 
      4 N           1.3453  -13.5161  -48.4092 N.am      1 UNK        -0.5000 
      5 CA          2.5139  -13.7656  -47.5536 C.3       1 UNK         0.1400 
      6 C6          3.7540  -14.2516  -48.3575 C.3       23 UNK        -0.0398 
      7 S7          3.4026  -15.3212  -49.8025 S.3       23 UNK        -0.2404 
      8 C8          3.3887  -16.9834  -49.0534 C.3       23 UNK        -0.0205 
      9 C9          2.0833  -17.7580  -49.2323 C.ar      23 UNK        -0.0193 
     10 C10         0.8451  -17.1182  -49.3736 C.ar      23 UNK        -0.1150 
     11 C11        -0.3391  -17.8489  -49.4959 C.ar      23 UNK        -0.0193 
     12 C12        -0.2758  -19.2476  -49.4604 C.ar      23 UNK        -0.1150 
     13 C13         0.9515  -19.9061  -49.3419 C.ar      23 UNK        -0.0193 
     14 C14         2.1238  -19.1549  -49.2250 C.ar      23 UNK        -0.1150 
     15 C15         1.0085  -21.4289  -49.3745 C.3       23 UNK        -0.0205 
     16 S16         1.7435  -22.1816  -47.8819 S.3       23 UNK        -0.2404 
     17 C17         0.8693  -21.3779  -46.4949 C.3       23 UNK        -0.0398 
     18 CA         -0.4699  -22.0592  -46.1158 C.3       11 UNK         0.1400 
     19 N          -0.6807  -22.1005  -44.6653 N.am      11 UNK        -0.5000 
     20 C          -1.6456  -22.8092  -44.0558 C.2       10 UNK         0.5000 
     21 O          -2.4356  -23.5353  -44.6603 O.2       10 UNK        -0.5000 
     22 CA         -1.7858  -22.6563  -42.5272 C.3       10 UNK         0.1400 
     23 CB         -1.1049  -23.8308  -41.8088 C.3       10 UNK        -0.1800 
     24 N          -1.2411  -21.4017  -42.0039 N.am      10 UNK        -0.5000 
     25 C          -1.6712  -20.1725  -42.3236 C.2       9 UNK         0.5000 
     26 O          -2.6253  -19.9569  -43.0693 O.2       9 UNK        -0.5000 
     27 CA         -0.8573  -18.9870  -41.7699 C.3       9 UNK         0.1400 
     28 CB         -1.4936  -18.4461  -40.4816 C.3       9 UNK        -0.1800 
     29 N           0.5535  -19.3035  -41.5182 N.am      9 UNK        -0.5000 
     30 C           1.4277  -19.6839  -42.4591 C.2       8 UNK         0.5000 
     31 O           1.1243  -19.8720  -43.6392 O.2       8 UNK        -0.5000 
     32 CA          2.8712  -19.9515  -41.9956 C.3       8 UNK         0.1400 
     33 CB          3.1010  -21.4609  -41.8234 C.3       8 UNK        -0.1800 
     34 N           3.8490  -19.4235  -42.9477 N.am      8 UNK        -0.5000 
     35 C           3.9956  -18.1225  -43.2242 C.2       7 UNK         0.5000 
     36 O           3.3735  -17.2315  -42.6402 O.2       7 UNK        -0.5000 
     37 CA          4.9880  -17.7628  -44.3432 C.3       7 UNK         0.1400 
     38 CB          4.4690  -18.2543  -45.7036 C.3       7 UNK        -0.1800 
     39 N           5.1307  -16.3103  -44.3856 N.am      7 UNK        -0.5000 
     40 C           6.2365  -15.6217  -44.0806 C.2       6 UNK         0.5000 
     41 O           7.3530  -16.1261  -43.9554 O.2       6 UNK        -0.5000 
     42 CA          6.0439  -14.1153  -43.8181 C.3       6 UNK         0.1400 
     43 CB          6.1617  -13.3038  -45.1170 C.3       6 UNK        -0.1800 
     44 N           4.7425  -13.8571  -43.1992 N.am      6 UNK        -0.5000 
     45 C           4.4714  -14.0450  -41.8998 C.2       5 UNK         0.5000 
     46 O           5.3367  -14.2933  -41.0578 O.2       5 UNK        -0.5000 
     47 CA          2.9872  -13.9742  -41.4797 C.3       5 UNK         0.1400 
     48 CB          2.7929  -13.5728  -40.0023 C.3       5 UNK        -0.1800 
     49 N           2.1633  -13.1510  -42.3692 N.am      5 UNK        -0.5000 
     50 C           2.2172  -11.8224  -42.5473 C.2       4 UNK         0.5000 
     51 O           3.0066  -11.0825  -41.9593 O.2       4 UNK        -0.5000 
     52 CA          1.2330  -11.2083  -43.5666 C.3       4 UNK         0.1400 
     53 CB          1.9980  -10.6678  -44.7845 C.3       4 UNK        -0.1800 
     54 N           0.2106  -12.1472  -44.0350 N.am      4 UNK        -0.5000 
     55 C          -0.8300  -12.5879  -43.3147 C.2       3 UNK         0.5000 
     56 O          -1.0950  -12.1917  -42.1796 O.2       3 UNK        -0.5000 
     57 CA         -1.6882  -13.6927  -43.9576 C.3       3 UNK         0.1400 
     58 CB         -2.8103  -13.0885  -44.8155 C.3       3 UNK        -0.1800 
     59 N          -0.8877  -14.6069  -44.7761 N.am      3 UNK        -0.5000 
     60 C          -0.0570  -15.5371  -44.2840 C.2       2 UNK         0.5000 
     61 O           0.1123  -15.7295  -43.0812 O.2       2 UNK        -0.5000 
     62 CA          0.7374  -16.3663  -45.3095 C.3       2 UNK         0.1400 
     63 CB         -0.1265  -17.5041  -45.8688 C.3       2 UNK        -0.1800 
     64 N           1.2311  -15.5513  -46.4212 N.am      2 UNK        -0.5000 
     65 C           2.2211  -14.6545  -46.3208 C.2       1 UNK         0.5000 
     66 O           2.8719  -14.4841  -45.2890 O.2       1 UNK        -0.5000 
     67 C          -1.6674  -21.4234  -46.8560 C.2       11 UNK         0.5000 
     68 O          -1.9595  -21.8183  -47.9807 O.2       11 UNK        -0.5000 
     69 N          -2.4092  -20.5225  -46.1918 N.am      12 UNK        -0.5000 
     70 CA         -3.6333  -19.9050  -46.7141 C.3       12 UNK         0.1400 
     71 CB         -4.0014  -18.6955  -45.8395 C.3       12 UNK        -0.1800 
     72 C          -4.8298  -20.8772  -46.8527 C.2       12 UNK         0.5000 
     73 O          -5.8972  -20.4502  -47.2937 O.2       12 UNK        -0.5000 
     74 N          -4.6449  -22.1535  -46.4908 N.am      13 UNK        -0.5000 
     75 CA         -5.5973  -23.2433  -46.6806 C.3       13 UNK         0.1400 
     76 CB         -6.2486  -23.5694  -45.3244 C.3       13 UNK        -0.1800 
     77 C          -4.9237  -24.4791  -47.3162 C.2       13 UNK         0.5000 
     78 O          -5.4702  -25.5780  -47.2071 O.2       13 UNK        -0.5000 
     79 N          -3.7603  -24.3046  -47.9604 N.am      14 UNK        -0.5000 
     80 CA         -2.9801  -25.3754  -48.5800 C.3       14 UNK         0.1400 
     81 CB         -1.8544  -25.7916  -47.6182 C.3       14 UNK        -0.1800 
     82 C          -2.4060  -24.9122  -49.9278 C.2       14 UNK         0.5000 
     83 O          -2.4547  -23.7232  -50.2473 O.2       14 UNK        -0.5000 
     84 N          -1.8624  -25.8668  -50.6968 N.am      15 UNK        -0.5000 
     85 CA         -1.1749  -25.6723  -51.9791 C.3       15 UNK         0.1400 
     86 CB          0.2156  -25.0414  -51.7348 C.3       15 UNK        -0.1800 
     87 C          -2.0474  -24.9005  -52.9928 C.2       15 UNK         0.5000 
     88 O          -3.1360  -25.3705  -53.3284 O.2       15 UNK        -0.5000 
     89 N          -1.5902  -23.7171  -53.4247 N.am      16 UNK        -0.5000 
     90 CA         -2.3088  -22.8074  -54.3181 C.3       16 UNK         0.1400 
     91 CB         -1.4210  -21.5922  -54.6256 C.3       16 UNK        -0.1800 
     92 C          -3.6703  -22.3468  -53.7659 C.2       16 UNK         0.5000 
     93 O          -4.6095  -22.1833  -54.5439 O.2       16 UNK        -0.5000 
     94 N          -3.7697  -22.1853  -52.4387 N.am      17 UNK        -0.5000 
     95 CA         -4.9975  -21.7827  -51.7543 C.3       17 UNK         0.1400 
     96 CB         -4.6644  -21.3343  -50.3272 C.3       17 UNK        -0.1800 
     97 C          -6.0551  -22.8987  -51.7302 C.2       17 UNK         0.5000 
     98 O          -7.2485  -22.5998  -51.7289 O.2       17 UNK        -0.5000 
     99 N          -5.6016  -24.1592  -51.7240 N.am      18 UNK        -0.5000 
    100 CA        -6.4596  -25.3355  -51.8458 C.3       18 UNK         0.1400 
    101 CB        -5.7452  -26.5587  -51.2520 C.3       18 UNK        -0.1800 
    102 C         -6.8681  -25.5845  -53.3085 C.2       18 UNK         0.5000 
    103 O         -8.0020  -25.9955  -53.5571 O.2       18 UNK        -0.5000 
    104 N         -5.9449  -25.3242  -54.2461 N.am      19 UNK        -0.5000 
    105 CA        -6.1570  -25.4609  -55.6866 C.3       19 UNK         0.1400 
    106 CB        -4.8094  -25.3576  -56.4168 C.3       19 UNK        -0.1800 
    107 C         -7.1625  -24.4380  -56.2475 C.2       19 UNK         0.5000 
    108 O         -8.0446  -24.8223  -57.0171 O.2       19 UNK        -0.5000 
    109 N         -7.0230  -23.1664  -55.8515 N.am      20 UNK        -0.5000 
    110 CA        -7.8955  -22.0714  -56.2657 C.3       20 UNK         0.1400 
    111 CB        -7.5329  -21.5971  -57.6890 C.3       20 UNK        -0.1800 
    112 C         -7.8318  -20.9428  -55.2284 C.2       20 UNK         0.5000 
    113 O         -8.7304  -20.8287  -54.3944 O.2       20 UNK        -0.5000 
    114 N         -6.7695  -20.1363  -55.2966 N.am      21 UNK        -0.5000 
    115 CA        -6.4654  -19.0304  -54.3989 C.3       21 UNK         0.1400 
    116 CB        -7.3057  -17.7942  -54.7653 C.3       21 UNK        -0.1800 
    117 C         -4.9656  -18.7315  -54.5194 C.2       21 UNK         0.5000 
    118 O         -4.4144  -18.8371  -55.6188 O.2       21 UNK        -0.5000 
    119 N         -4.3383  -18.3634  -53.3995 N.am      22 UNK        -0.5000 
    120 CA        -2.9331  -17.9400  -53.3317 C.3       22 UNK         0.1400 
    121 C         -2.7622  -16.4020  -53.4917 C.2       22 UNK         0.5000 
    122 N         -1.5432  -15.9292  -53.7162 N.am      22 UNK        -0.7600 
    123 O         -3.7143  -15.6282  -53.4099 O.2       22 UNK        -0.5000 
    124 C124       -2.2389  -18.4912  -52.0612 C.3       23 UNK        -0.0398 
    125 S125       -3.0097  -17.9941  -50.4773 S.3       23 UNK        -0.2404 
    126 C126       -1.6540  -17.0816  -49.6622 C.3       23 UNK        -0.0205 
    127 H127       -1.7918  -13.3106  -48.7629 H         1 UNK         0.0600 
    128 H128       -0.5815  -13.2029  -50.0445 H         1 UNK         0.0600 
    129 H129       -1.1319  -11.7379  -49.2243 H         1 UNK         0.0600 
    130 H130        1.4627  -13.8002  -49.3721 H         1 UNK         0.3000 
    131 H131        2.7837  -12.7941  -47.1369 H         1 UNK         0.0600 
    132 H132        4.2648  -13.3738  -48.7555 H         1 UNK         0.0800 
    133 H133        4.4949  -14.7333  -47.7169 H         1 UNK         0.0800 
    134 H134        4.2183  -17.5500  -49.4790 H         1 UNK         0.0800 
    135 H135        3.5867  -16.9019  -47.9879 H         1 UNK         0.0800 
    136 H136        0.7914  -16.0415  -49.3945 H         1 UNK         0.1150 
    137 H137       -1.1800  -19.8328  -49.5449 H         1 UNK         0.1150 
    138 H138        3.0715  -19.6650  -49.1227 H         1 UNK         0.1150 
    139 H139        0.0193  -21.8553  -49.5414 H         1 UNK         0.0800 
    140 H140        1.6036  -21.7317  -50.2368 H         1 UNK         0.0800 
    141 H141        0.7542  -20.3110  -46.6754 H         1 UNK         0.0800 
    142 H142        1.5647  -21.4455  -45.6578 H         1 UNK         0.0800 
    143 H143       -0.4191  -23.1006  -46.4351 H         1 UNK         0.0600 
    144 H144       -0.0907  -21.4887  -44.1117 H         1 UNK         0.3000 
    145 H145       -2.8523  -22.6799  -42.2941 H         1 UNK         0.0600 
    146 H146       -1.2686  -23.7839  -40.7320 H         1 UNK         0.0600 
    147 H147       -1.5040  -24.7852  -42.1551 H         1 UNK         0.0600 
    148 H148       -0.0286  -23.8411  -41.9860 H         1 UNK         0.0600 
    149 H149       -0.4465  -21.4781  -41.3866 H         1 UNK         0.3000 
    150 H150       -0.8896  -18.1973  -42.5225 H         1 UNK         0.0600 
    151 H151       -1.4593  -19.1802  -39.6758 H         1 UNK         0.0600 
    152 H152       -2.5400  -18.1834  -40.6435 H         1 UNK         0.0600 
    153 H153       -0.9840  -17.5447  -40.1401 H         1 UNK         0.0600 
    154 H154        0.8775  -19.1772  -40.5702 H         1 UNK         0.3000 
    155 H155        3.0342  -19.4609  -41.0337 H         1 UNK         0.0600 
    156 H156        2.9628  -21.9991  -42.7623 H         1 UNK         0.0600 
    157 H157        2.4041  -21.8830  -41.0982 H         1 UNK         0.0600 
    158 H158        4.1085  -21.6684  -41.4624 H         1 UNK         0.0600 
    159 H159        4.3671  -20.1037  -43.4837 H         1 UNK         0.3000 
    160 H160        5.9439  -18.2431  -44.1249 H         1 UNK         0.0600 
    161 H161        3.4694  -17.8729  -45.9124 H         1 UNK         0.0600 
    162 H162        4.4134  -19.3429  -45.7373 H         1 UNK         0.0600 
    163 H163        5.1318  -17.9419  -46.5104 H         1 UNK         0.0600 
    164 H164        4.2569  -15.7968  -44.4191 H         1 UNK         0.3000 
    165 H165        6.8350  -13.7864  -43.1409 H         1 UNK         0.0600 
    166 H166        6.0802  -12.2347  -44.9202 H         1 UNK         0.0600 
    167 H167        7.1257  -13.4746  -45.5976 H         1 UNK         0.0600 
    168 H168        5.3855  -13.5705  -45.8327 H         1 UNK         0.0600 
    169 H169        3.9626  -13.7233  -43.8345 H         1 UNK         0.3000 
    170 H170        2.5985  -14.9868  -41.5857 H         1 UNK         0.0600 
    171 H171        3.2599  -14.2995  -39.3366 H         1 UNK         0.0600 
    172 H172        3.2343  -12.6006  -39.7826 H         1 UNK         0.0600 
    173 H173        1.7353  -13.5298  -39.7416 H         1 UNK         0.0600 
    174 H174        1.4869  -13.6643  -42.9177 H         1 UNK         0.3000 
    175 H175        0.7307  -10.3718  -43.0768 H         1 UNK         0.0600 
    176 H176        2.6942   -9.8811  -44.4913 H         1 UNK         0.0600 
    177 H177        2.5782  -11.4521  -45.2692 H         1 UNK         0.0600 
    178 H178        1.3196  -10.2427  -45.5246 H         1 UNK         0.0600 
    179 H179        0.2933  -12.4655  -44.9971 H         1 UNK         0.3000 
    180 H180       -2.1504  -14.2670  -43.1518 H         1 UNK         0.0600 
    181 H181       -2.4157  -12.4994  -45.6439 H         1 UNK         0.0600 
    182 H182       -3.4441  -12.4309  -44.2193 H         1 UNK         0.0600 
    183 H183       -3.4503  -13.8665  -45.2319 H         1 UNK         0.0600 
    184 H184       -0.9159  -14.4552  -45.7738 H         1 UNK         0.3000 
    185 H185        1.5908  -16.8088  -44.7925 H         1 UNK         0.0600 
    186 H186       -0.4781  -18.1619  -45.0734 H         1 UNK         0.0600 
    187 H187       -1.0014  -17.1269  -46.3978 H         1 UNK         0.0600 
    188 H188        0.4464  -18.1110  -46.5668 H         1 UNK         0.0600 
    189 H189        0.7499  -15.6412  -47.3024 H         1 UNK         0.3000 
    190 H190       -2.1734  -20.3003  -45.2325 H         1 UNK         0.3000 
    191 H191       -3.4110  -19.5348  -47.7172 H         1 UNK         0.0600 
    192 H192       -3.1595  -18.0142  -45.7223 H         1 UNK         0.0600 
    193 H193       -4.8172  -18.1261  -46.2864 H         1 UNK         0.0600 
    194 H194       -4.3269  -19.0036  -44.8459 H         1 UNK         0.0600 
    195 H195       -3.7481  -22.4264  -46.1067 H         1 UNK         0.3000 
    196 H196       -6.3820  -22.9387  -47.3759 H         1 UNK         0.0600 
    197 H197       -7.0117  -24.3419  -45.4262 H         1 UNK         0.0600 
    198 H198       -6.7347  -22.6907  -44.9001 H         1 UNK         0.0600 
    199 H199       -5.5107  -23.9250  -44.6040 H         1 UNK         0.0600 
    200 H200       -3.3746  -23.3734  -48.0910 H         1 UNK         0.3000 
    201 H201       -3.6155  -26.2405  -48.7767 H         1 UNK         0.0600 
    202 H202       -1.3142  -26.6610  -47.9939 H         1 UNK         0.0600 
    203 H203       -2.2484  -26.0543  -46.6361 H         1 UNK         0.0600 
    204 H204       -1.1291  -24.9902  -47.4838 H         1 UNK         0.0600 
    205 H205       -1.9014  -26.8227  -50.3727 H         1 UNK         0.3000 
    206 H206       -1.0200  -26.6639  -52.4065 H         1 UNK         0.0600 
    207 H207        0.8100  -25.6642  -51.0661 H         1 UNK         0.0600 
    208 H208        0.7785  -24.9480  -52.6644 H         1 UNK         0.0600 
    209 H209        0.1465  -24.0520  -51.2805 H         1 UNK         0.0600 
    210 H210       -0.6986  -23.3963  -53.0773 H         1 UNK         0.3000 
    211 H211       -2.4940  -23.3391  -55.2528 H         1 UNK         0.0600 
    212 H212       -1.1386  -21.0589  -53.7175 H         1 UNK         0.0600 
    213 H213       -1.9378  -20.8843  -55.2757 H         1 UNK         0.0600 
    214 H214       -0.5058  -21.8923  -55.1361 H         1 UNK         0.0600 
    215 H215       -2.9860  -22.4338  -51.8442 H         1 UNK         0.3000 
    216 H216       -5.4143  -20.9298  -52.2891 H         1 UNK         0.0600 
    217 H217       -5.4767  -20.7327  -49.9202 H         1 UNK         0.0600 
    218 H218       -3.7571  -20.7347  -50.2903 H         1 UNK         0.0600 
    219 H219       -4.5178  -22.1817  -49.6592 H         1 UNK         0.0600 
    220 H220       -4.6030  -24.3119  -51.7607 H         1 UNK         0.3000 
    221 H221       -7.3722  -25.1711  -51.2686 H         1 UNK         0.0600 
    222 H222       -4.7958  -26.7590  -51.7487 H         1 UNK         0.0600 
    223 H223       -5.5485  -26.4166  -50.1898 H         1 UNK         0.0600 
    224 H224       -6.3609  -27.4538  -51.3487 H         1 UNK         0.0600 
    225 H225       -5.0116  -25.0631  -53.9465 H         1 UNK         0.3000 
    226 H226       -6.5606  -26.4592  -55.8687 H         1 UNK         0.0600 
    227 H227       -4.9325  -25.5330  -57.4862 H         1 UNK         0.0600 
    228 H228       -4.3617  -24.3714  -56.2977 H         1 UNK         0.0600 
    229 H229       -4.0992  -26.0963  -56.0446 H         1 UNK         0.0600 
    230 H230       -6.2577  -22.9160  -55.2290 H         1 UNK         0.3000 
    231 H231       -8.9282  -22.4271  -56.2784 H         1 UNK         0.0600 
    232 H232       -6.4734  -21.3561  -57.7819 H         1 UNK         0.0600 
    233 H233       -8.1018  -20.7075  -57.9625 H         1 UNK         0.0600 
    234 H234       -7.7614  -22.3642  -58.4289 H         1 UNK         0.0600 
    235 H235       -6.0401  -20.3254  -55.9735 H         1 UNK         0.3000 
    236 H236       -6.6922  -19.3281  -53.3736 H         1 UNK         0.0600 
    237 H237       -8.3720  -17.9894  -54.6510 H         1 UNK         0.0600 
    238 H238       -7.0593  -16.9504  -54.1196 H         1 UNK         0.0600 
    239 H239       -7.1306  -17.4823  -55.7957 H         1 UNK         0.0600 
    240 H240       -4.8637  -18.2419  -52.5459 H         1 UNK         0.3000 
    241 H241       -2.4065  -18.3811  -54.1805 H         1 UNK         0.0600 
    242 H242       -0.7420  -16.5347  -53.8013 H         1 UNK         0.3800 
    243 H243       -1.4207  -14.9341  -53.8212 H         1 UNK         0.3800 
    244 H244       -2.2526  -19.5809  -52.0930 H         1 UNK         0.0800 
    245 H245       -1.1827  -18.2203  -52.0671 H         1 UNK         0.0800 
    246 H246       -1.9982  -16.7662  -48.6769 H         1 UNK         0.0800 
    247 H247       -1.4770  -16.1695  -50.2348 H         1 UNK         0.0800 
@<TRIPOS>BOND
     1    1    2 1    
     2    1  127 1    
     3    1  128 1    
     4    1  129 1    
     5    2    3 2    
     6    2    4 am   BACKBONE|DICT|INTERRES
     7    4    5 1    
     8    4  130 1    
     9    5    6 1    
    10    5   65 1    
    11    5  131 1    
    12    6    7 1    
    13    6  132 1    
    14    6  133 1    
    15    7    8 1    
    16    8    9 1    
    17    8  134 1    
    18    8  135 1    
    19    9   10 ar   
    20    9   14 ar   
    21   10   11 ar   
    22   10  136 1    
    23   11   12 ar   
    24   11  126 1    
    25   12   13 ar   
    26   12  137 1    
    27   13   14 ar   
    28   13   15 1    
    29   14  138 1    
    30   15   16 1    
    31   15  139 1    
    32   15  140 1    
    33   16   17 1    
    34   17   18 1    
    35   17  141 1    
    36   17  142 1    
    37   18   19 1    
    38   18   67 1    
    39   18  143 1    
    40   19   20 am   BACKBONE|DICT|INTERRES
    41   19  144 1    
    42   20   21 2    
    43   20   22 1    
    44   22   23 1    
    45   22   24 1    
    46   22  145 1    
    47   23  146 1    
    48   23  147 1    
    49   23  148 1    
    50   24   25 am   BACKBONE|DICT|INTERRES
    51   24  149 1    
    52   25   26 2    
    53   25   27 1    
    54   27   28 1    
    55   27   29 1    
    56   27  150 1    
    57   28  151 1    
    58   28  152 1    
    59   28  153 1    
    60   29   30 am   BACKBONE|DICT|INTERRES
    61   29  154 1    
    62   30   31 2    
    63   30   32 1    
    64   32   33 1    
    65   32   34 1    
    66   32  155 1    
    67   33  156 1    
    68   33  157 1    
    69   33  158 1    
    70   34   35 am   BACKBONE|DICT|INTERRES
    71   34  159 1    
    72   35   36 2    
    73   35   37 1    
    74   37   38 1    
    75   37   39 1    
    76   37  160 1    
    77   38  161 1    
    78   38  162 1    
    79   38  163 1    
    80   39   40 am   BACKBONE|DICT|INTERRES
    81   39  164 1    
    82   40   41 2    
    83   40   42 1    
    84   42   43 1    
    85   42   44 1    
    86   42  165 1    
    87   43  166 1    
    88   43  167 1    
    89   43  168 1    
    90   44   45 am   BACKBONE|DICT|INTERRES
    91   44  169 1    
    92   45   46 2    
    93   45   47 1    
    94   47   48 1    
    95   47   49 1    
    96   47  170 1    
    97   48  171 1    
    98   48  172 1    
    99   48  173 1    
   100   49   50 am   BACKBONE|DICT|INTERRES
   101   49  174 1    
   102   50   51 2    
   103   50   52 1    
   104   52   53 1    
   105   52   54 1    
   106   52  175 1    
   107   53  176 1    
   108   53  177 1    
   109   53  178 1    
   110   54   55 am   BACKBONE|DICT|INTERRES
   111   54  179 1    
   112   55   56 2    
   113   55   57 1    
   114   57   58 1    
   115   57   59 1    
   116   57  180 1    
   117   58  181 1    
   118   58  182 1    
   119   58  183 1    
   120   59   60 am   BACKBONE|DICT|INTERRES
   121   59  184 1    
   122   60   61 2    
   123   60   62 1    
   124   62   63 1    
   125   62   64 1    
   126   62  185 1    
   127   63  186 1    
   128   63  187 1    
   129   63  188 1    
   130   64   65 am   BACKBONE|DICT|INTERRES
   131   64  189 1    
   132   65   66 2    
   133   67   68 2    
   134   67   69 am   BACKBONE|DICT|INTERRES
   135   69   70 1    
   136   69  190 1    
   137   70   71 1    
   138   70   72 1    
   139   70  191 1    
   140   71  192 1    
   141   71  193 1    
   142   71  194 1    
   143   72   73 2    
   144   72   74 am   BACKBONE|DICT|INTERRES
   145   74   75 1    
   146   74  195 1    
   147   75   76 1    
   148   75   77 1    
   149   75  196 1    
   150   76  197 1    
   151   76  198 1    
   152   76  199 1    
   153   77   78 2    
   154   77   79 am   BACKBONE|DICT|INTERRES
   155   79   80 1    
   156   79  200 1    
   157   80   81 1    
   158   80   82 1    
   159   80  201 1    
   160   81  202 1    
   161   81  203 1    
   162   81  204 1    
   163   82   83 2    
   164   82   84 am   BACKBONE|DICT|INTERRES
   165   84   85 1    
   166   84  205 1    
   167   85   86 1    
   168   85   87 1    
   169   85  206 1    
   170   86  207 1    
   171   86  208 1    
   172   86  209 1    
   173   87   88 2    
   174   87   89 am   BACKBONE|DICT|INTERRES
   175   89   90 1    
   176   89  210 1    
   177   90   91 1    
   178   90   92 1    
   179   90  211 1    
   180   91  212 1    
   181   91  213 1    
   182   91  214 1    
   183   92   93 2    
   184   92   94 am   BACKBONE|DICT|INTERRES
   185   94   95 1    
   186   94  215 1    
   187   95   96 1    
   188   95   97 1    
   189   95  216 1    
   190   96  217 1    
   191   96  218 1    
   192   96  219 1    
   193   97   98 2    
   194   97   99 am   BACKBONE|DICT|INTERRES
   195   99  100 1    
   196   99  220 1    
   197  100  101 1    
   198  100  102 1    
   199  100  221 1    
   200  101  222 1    
   201  101  223 1    
   202  101  224 1    
   203  102  103 2    
   204  102  104 am   BACKBONE|DICT|INTERRES
   205  104  105 1    
   206  104  225 1    
   207  105  106 1    
   208  105  107 1    
   209  105  226 1    
   210  106  227 1    
   211  106  228 1    
   212  106  229 1    
   213  107  108 2    
   214  107  109 am   BACKBONE|DICT|INTERRES
   215  109  110 1    
   216  109  230 1    
   217  110  111 1    
   218  110  112 1    
   219  110  231 1    
   220  111  232 1    
   221  111  233 1    
   222  111  234 1    
   223  112  113 2    
   224  112  114 am   BACKBONE|DICT|INTERRES
   225  114  115 1    
   226  114  235 1    
   227  115  116 1    
   228  115  117 1    
   229  115  236 1    
   230  116  237 1    
   231  116  238 1    
   232  116  239 1    
   233  117  118 2    
   234  117  119 am   BACKBONE|DICT|INTERRES
   235  119  120 1    
   236  119  240 1    
   237  120  121 1    
   238  120  124 1    
   239  120  241 1    
   240  121  122 am   BACKBONE|DICT|INTERRES
   241  121  123 2    
   242  122  242 1    
   243  122  243 1    
   244  124  125 1    
   245  124  244 1    
   246  124  245 1    
   247  125  126 1    
   248  126  246 1    
   249  126  247 1    
@<TRIPOS>SUBSTRUCTURE
     1 UNK         1 GROUP             0       ****    0 ROOT    
