@<TRIPOS>MOLECULE
3R540
247   249    1
SMALL
USER_CHARGES


@<TRIPOS>ATOM
      1 CA          0.5159  -14.2054  -53.4637 C.3       0 UNK        -0.1800 
      2 C           0.4013  -13.2875  -52.2542 C.2       0 UNK         0.5000 
      3 O          -0.1337  -12.1840  -52.3680 O.2       0 UNK        -0.5000 
      4 N           0.9105  -13.7366  -51.1016 N.am      1 UNK        -0.5000 
      5 CA          0.7831  -13.0688  -49.8037 C.3       1 UNK         0.1400 
      6 C6          1.9074  -13.5132  -48.8277 C.3       23 UNK        -0.0398 
      7 S7          1.8898  -15.2912  -48.4007 S.3       23 UNK        -0.2404 
      8 C8          3.1641  -15.9588  -49.5141 C.3       23 UNK        -0.0205 
      9 C9          2.7918  -17.3522  -49.9946 C.ar      23 UNK        -0.0193 
     10 C10         1.7795  -17.5104  -50.9444 C.ar      23 UNK        -0.1150 
     11 C11         1.4311  -18.7787  -51.4109 C.ar      23 UNK        -0.0193 
     12 C12         2.1072  -19.9004  -50.9220 C.ar      23 UNK        -0.1150 
     13 C13         3.1214  -19.7586  -49.9690 C.ar      23 UNK        -0.0193 
     14 C14         3.4605  -18.4804  -49.5102 C.ar      23 UNK        -0.1150 
     15 C15         3.8697  -20.9847  -49.4609 C.3       23 UNK        -0.0205 
     16 S16         3.7021  -21.2161  -47.6623 S.3       23 UNK        -0.2404 
     17 C17         1.9061  -21.4880  -47.4745 C.3       23 UNK        -0.0398 
     18 CA          1.5615  -22.6052  -46.4489 C.3       11 UNK         0.1400 
     19 N           2.1981  -22.3687  -45.1551 N.am      11 UNK        -0.5000 
     20 C           2.7701  -23.2864  -44.3686 C.2       10 UNK         0.5000 
     21 O           2.9382  -24.4626  -44.6975 O.2       10 UNK        -0.5000 
     22 CA          3.1991  -22.8006  -42.9676 C.3       10 UNK         0.1400 
     23 CB          4.2528  -23.7078  -42.2976 C.3       10 UNK        -0.1800 
     24 N           3.6099  -21.3923  -42.9514 N.am      10 UNK        -0.5000 
     25 C           4.6851  -20.8435  -43.5387 C.2       9 UNK         0.5000 
     26 O           5.5439  -21.4938  -44.1359 O.2       9 UNK        -0.5000 
     27 CA          4.8374  -19.3081  -43.4575 C.3       9 UNK         0.1400 
     28 CB          4.7947  -18.6840  -44.8630 C.3       9 UNK        -0.1800 
     29 N           3.8251  -18.6563  -42.6227 N.am      9 UNK        -0.5000 
     30 C           3.8061  -18.6516  -41.2833 C.2       8 UNK         0.5000 
     31 O           4.6913  -19.1490  -40.5867 O.2       8 UNK        -0.5000 
     32 CA          2.5689  -18.0249  -40.6082 C.3       8 UNK         0.1400 
     33 CB          2.7763  -16.5202  -40.3810 C.3       8 UNK        -0.1800 
     34 N           1.3267  -18.2422  -41.3572 N.am      8 UNK        -0.5000 
     35 C           0.7709  -19.4434  -41.5773 C.2       7 UNK         0.5000 
     36 O           1.2346  -20.4982  -41.1434 O.2       7 UNK        -0.5000 
     37 CA         -0.4764  -19.4853  -42.4808 C.3       7 UNK         0.1400 
     38 CB         -1.7366  -19.0855  -41.6998 C.3       7 UNK        -0.1800 
     39 N          -0.3410  -18.6440  -43.6706 N.am      7 UNK        -0.5000 
     40 C           0.5876  -18.8275  -44.6201 C.2       6 UNK         0.5000 
     41 O           1.3938  -19.7552  -44.6090 O.2       6 UNK        -0.5000 
     42 CA          0.6714  -17.7726  -45.7356 C.3       6 UNK         0.1400 
     43 CB         -0.4310  -17.9912  -46.7790 C.3       6 UNK        -0.1800 
     44 N           0.5919  -16.4116  -45.2102 N.am      6 UNK        -0.5000 
     45 C           1.4817  -15.8644  -44.3713 C.2       5 UNK         0.5000 
     46 O           2.5029  -16.4327  -43.9884 O.2       5 UNK        -0.5000 
     47 CA          1.1406  -14.4725  -43.8152 C.3       5 UNK         0.1400 
     48 CB          1.5239  -13.3649  -44.8079 C.3       5 UNK        -0.1800 
     49 N          -0.2762  -14.3617  -43.4691 N.am      5 UNK        -0.5000 
     50 C          -0.8537  -14.9960  -42.4392 C.2       4 UNK         0.5000 
     51 O          -0.2406  -15.7109  -41.6465 O.2       4 UNK        -0.5000 
     52 CA         -2.3773  -14.8289  -42.2907 C.3       4 UNK         0.1400 
     53 CB         -2.7085  -13.5338  -41.5344 C.3       4 UNK        -0.1800 
     54 N          -3.0729  -14.8294  -43.5788 N.am      4 UNK        -0.5000 
     55 C          -3.1823  -15.9016  -44.3758 C.2       3 UNK         0.5000 
     56 O          -2.7368  -17.0124  -44.0904 O.2       3 UNK        -0.5000 
     57 CA         -3.8658  -15.6834  -45.7400 C.3       3 UNK         0.1400 
     58 CB         -5.3907  -15.8061  -45.6039 C.3       3 UNK        -0.1800 
     59 N          -3.5427  -14.4006  -46.3743 N.am      3 UNK        -0.5000 
     60 C          -2.3049  -13.9865  -46.6745 C.2       2 UNK         0.5000 
     61 O          -1.2861  -14.6057  -46.3654 O.2       2 UNK        -0.5000 
     62 CA         -2.1866  -12.6231  -47.3831 C.3       2 UNK         0.1400 
     63 CB         -2.2323  -11.4867  -46.3495 C.3       2 UNK        -0.1800 
     64 N          -0.9471  -12.5031  -48.1543 N.am      2 UNK        -0.5000 
     65 C          -0.6356  -13.2612  -49.2145 C.2       1 UNK         0.5000 
     66 O          -1.4144  -14.0770  -49.7152 O.2       1 UNK        -0.5000 
     67 C           0.0404  -22.7732  -46.2045 C.2       11 UNK         0.5000 
     68 O          -0.3506  -23.3252  -45.1728 O.2       11 UNK        -0.5000 
     69 N          -0.8010  -22.3152  -47.1475 N.am      12 UNK        -0.5000 
     70 CA         -2.2741  -22.3213  -47.0957 C.3       12 UNK         0.1400 
     71 CB         -2.7887  -21.4448  -45.9323 C.3       12 UNK        -0.1800 
     72 C          -2.9112  -23.7325  -47.1004 C.2       12 UNK         0.5000 
     73 O          -4.0928  -23.8781  -46.7828 O.2       12 UNK        -0.5000 
     74 N          -2.1239  -24.7481  -47.4810 N.am      13 UNK        -0.5000 
     75 CA         -2.4376  -26.1730  -47.3522 C.3       13 UNK         0.1400 
     76 CB         -1.1496  -26.9749  -47.5967 C.3       13 UNK        -0.1800 
     77 C          -3.5709  -26.6890  -48.2605 C.2       13 UNK         0.5000 
     78 O          -4.1014  -27.7676  -47.9920 O.2       13 UNK        -0.5000 
     79 N          -3.9244  -25.9329  -49.3087 N.am      14 UNK        -0.5000 
     80 CA         -5.0059  -26.2728  -50.2380 C.3       14 UNK         0.1400 
     81 CB         -4.5894  -25.8704  -51.6637 C.3       14 UNK        -0.1800 
     82 C          -6.3352  -25.5990  -49.8476 C.2       14 UNK         0.5000 
     83 O          -7.3355  -25.8124  -50.5326 O.2       14 UNK        -0.5000 
     84 N          -6.3167  -24.7723  -48.7885 N.am      15 UNK        -0.5000 
     85 CA         -7.4054  -23.9274  -48.2828 C.3       15 UNK         0.1400 
     86 CB         -8.6306  -24.7678  -47.8672 C.3       15 UNK        -0.1800 
     87 C          -7.7802  -22.7591  -49.2209 C.2       15 UNK         0.5000 
     88 O          -8.7512  -22.0522  -48.9475 O.2       15 UNK        -0.5000 
     89 N          -6.9877  -22.5408  -50.2807 N.am      16 UNK        -0.5000 
     90 CA         -7.0788  -21.3784  -51.1655 C.3       16 UNK         0.1400 
     91 CB         -6.4390  -21.7252  -52.5161 C.3       16 UNK        -0.1800 
     92 C          -6.4343  -20.1325  -50.5244 C.2       16 UNK         0.5000 
     93 O          -6.8149  -19.0101  -50.8608 O.2       16 UNK        -0.5000 
     94 N          -5.5095  -20.3692  -49.5802 N.am      17 UNK        -0.5000 
     95 CA         -4.9386  -19.4742  -48.5685 C.3       17 UNK         0.1400 
     96 CB         -6.0264  -18.9947  -47.5926 C.3       17 UNK        -0.1800 
     97 C          -4.1024  -18.2953  -49.0919 C.2       17 UNK         0.5000 
     98 O          -2.9831  -18.1115  -48.6223 O.2       17 UNK        -0.5000 
     99 N          -4.6532  -17.5267  -50.0310 N.am      18 UNK        -0.5000 
    100 CA        -4.0133  -16.3820  -50.6770 C.3       18 UNK         0.1400 
    101 CB        -4.6324  -15.0919  -50.1137 C.3       18 UNK        -0.1800 
    102 C         -4.1535  -16.4338  -52.2098 C.2       18 UNK         0.5000 
    103 O         -3.4652  -15.6798  -52.8991 O.2       18 UNK        -0.5000 
    104 N         -5.0403  -17.2965  -52.7258 N.am      19 UNK        -0.5000 
    105 CA        -5.2818  -17.4808  -54.1527 C.3       19 UNK         0.1400 
    106 CB        -6.7864  -17.7078  -54.3672 C.3       19 UNK        -0.1800 
    107 C         -4.4855  -18.6814  -54.6855 C.2       19 UNK         0.5000 
    108 O         -4.3419  -19.6836  -53.9810 O.2       19 UNK        -0.5000 
    109 N         -4.0451  -18.5760  -55.9471 N.am      20 UNK        -0.5000 
    110 CA        -3.3886  -19.6173  -56.7437 C.3       20 UNK         0.1400 
    111 CB        -4.4339  -20.6690  -57.1832 C.3       20 UNK        -0.1800 
    112 C         -2.1477  -20.2138  -56.0416 C.2       20 UNK         0.5000 
    113 O         -1.2176  -19.4707  -55.7248 O.2       20 UNK        -0.5000 
    114 N         -2.1542  -21.5336  -55.8157 N.am      21 UNK        -0.5000 
    115 CA        -1.0988  -22.2809  -55.1314 C.3       21 UNK         0.1400 
    116 CB        -1.1953  -23.7560  -55.5531 C.3       21 UNK        -0.1800 
    117 C         -1.1527  -22.1589  -53.5955 C.2       21 UNK         0.5000 
    118 O         -0.2168  -22.6097  -52.9321 O.2       21 UNK        -0.5000 
    119 N         -2.2319  -21.5764  -53.0524 N.am      22 UNK        -0.5000 
    120 CA        -2.5215  -21.3575  -51.6235 C.3       22 UNK         0.1400 
    121 C         -2.7485  -22.6673  -50.8190 C.2       22 UNK         0.5000 
    122 N         -1.8321  -23.6237  -50.8867 N.am      22 UNK        -0.7600 
    123 O         -3.7609  -22.8156  -50.1365 O.2       22 UNK        -0.5000 
    124 C124       -1.4894  -20.4439  -50.9123 C.3       23 UNK        -0.0398 
    125 S125       -1.3233  -18.8159  -51.7212 S.3       23 UNK        -0.2404 
    126 C126        0.3371  -18.9220  -52.4575 C.3       23 UNK        -0.0205 
    127 H127        1.1365  -15.0772  -53.2555 H         1 UNK         0.0600 
    128 H128        0.9572  -13.6692  -54.3038 H         1 UNK         0.0600 
    129 H129       -0.4731  -14.5552  -53.7611 H         1 UNK         0.0600 
    130 H130        1.2904  -14.6690  -51.0587 H         1 UNK         0.3000 
    131 H131        0.9087  -11.9967  -49.9698 H         1 UNK         0.0600 
    132 H132        2.8801  -13.2544  -49.2477 H         1 UNK         0.0800 
    133 H133        1.8455  -12.9453  -47.8992 H         1 UNK         0.0800 
    134 H134        4.1221  -15.9690  -48.9922 H         1 UNK         0.0800 
    135 H135        3.2950  -15.3113  -50.3818 H         1 UNK         0.0800 
    136 H136        1.2514  -16.6466  -51.3191 H         1 UNK         0.1150 
    137 H137        1.8480  -20.8831  -51.2910 H         1 UNK         0.1150 
    138 H138        4.2464  -18.3676  -48.7766 H         1 UNK         0.1150 
    139 H139        3.5331  -21.8893  -49.9697 H         1 UNK         0.0800 
    140 H140        4.9277  -20.8745  -49.7022 H         1 UNK         0.0800 
    141 H141        1.4940  -21.7352  -48.4537 H         1 UNK         0.0800 
    142 H142        1.4632  -20.5362  -47.1813 H         1 UNK         0.0800 
    143 H143        1.9173  -23.5516  -46.8605 H         1 UNK         0.0600 
    144 H144        2.0710  -21.4263  -44.7914 H         1 UNK         0.3000 
    145 H145        2.2986  -22.8486  -42.3539 H         1 UNK         0.0600 
    146 H146        4.5333  -23.3275  -41.3153 H         1 UNK         0.0600 
    147 H147        3.8631  -24.7162  -42.1549 H         1 UNK         0.0600 
    148 H148        5.1590  -23.7929  -42.8976 H         1 UNK         0.0600 
    149 H149        2.9583  -20.7660  -42.4947 H         1 UNK         0.3000 
    150 H150        5.8202  -19.1047  -43.0279 H         1 UNK         0.0600 
    151 H151        5.5681  -19.1059  -45.5058 H         1 UNK         0.0600 
    152 H152        4.9585  -17.6071  -44.8228 H         1 UNK         0.0600 
    153 H153        3.8359  -18.8583  -45.3515 H         1 UNK         0.0600 
    154 H154        3.0911  -18.1590  -43.1174 H         1 UNK         0.3000 
    155 H155        2.4529  -18.5002  -39.6321 H         1 UNK         0.0600 
    156 H156        3.6786  -16.3338  -39.7973 H         1 UNK         0.0600 
    157 H157        1.9396  -16.0850  -39.8342 H         1 UNK         0.0600 
    158 H158        2.8773  -15.9806  -41.3226 H         1 UNK         0.0600 
    159 H159        0.8623  -17.4137  -41.7156 H         1 UNK         0.3000 
    160 H160       -0.6034  -20.5156  -42.8206 H         1 UNK         0.0600 
    161 H161       -1.6939  -18.0479  -41.3682 H         1 UNK         0.0600 
    162 H162       -1.8622  -19.7096  -40.8143 H         1 UNK         0.0600 
    163 H163       -2.6314  -19.2044  -42.3109 H         1 UNK         0.0600 
    164 H164       -1.0107  -17.8872  -43.7739 H         1 UNK         0.3000 
    165 H165        1.6371  -17.8824  -46.2337 H         1 UNK         0.0600 
    166 H166       -0.3458  -17.2800  -47.6011 H         1 UNK         0.0600 
    167 H167       -0.3789  -18.9908  -47.2104 H         1 UNK         0.0600 
    168 H168       -1.4237  -17.8754  -46.3448 H         1 UNK         0.0600 
    169 H169       -0.1888  -15.8417  -45.5289 H         1 UNK         0.3000 
    170 H170        1.7262  -14.3249  -42.9053 H         1 UNK         0.0600 
    171 H171        2.5808  -13.4266  -45.0704 H         1 UNK         0.0600 
    172 H172        0.9537  -13.4369  -45.7329 H         1 UNK         0.0600 
    173 H173        1.3499  -12.3765  -44.3828 H         1 UNK         0.0600 
    174 H174       -0.8623  -13.8631  -44.1220 H         1 UNK         0.3000 
    175 H175       -2.7482  -15.6710  -41.7025 H         1 UNK         0.0600 
    176 H176       -2.2155  -13.5139  -40.5615 H         1 UNK         0.0600 
    177 H177       -2.3844  -12.6497  -42.0850 H         1 UNK         0.0600 
    178 H178       -3.7802  -13.4447  -41.3561 H         1 UNK         0.0600 
    179 H179       -3.4662  -13.9538  -43.8900 H         1 UNK         0.3000 
    180 H180       -3.5175  -16.4747  -46.4065 H         1 UNK         0.0600 
    181 H181       -5.6671  -16.7313  -45.0967 H         1 UNK         0.0600 
    182 H182       -5.8111  -14.9818  -45.0266 H         1 UNK         0.0600 
    183 H183       -5.8738  -15.8136  -46.5813 H         1 UNK         0.0600 
    184 H184       -4.3277  -13.8215  -46.6343 H         1 UNK         0.3000 
    185 H185       -3.0277  -12.5141  -48.0710 H         1 UNK         0.0600 
    186 H186       -3.1570  -11.5158  -45.7717 H         1 UNK         0.0600 
    187 H187       -1.4025  -11.5506  -45.6440 H         1 UNK         0.0600 
    188 H188       -2.1865  -10.5109  -46.8336 H         1 UNK         0.0600 
    189 H189       -0.2596  -11.8613  -47.7897 H         1 UNK         0.3000 
    190 H190       -0.4060  -21.9022  -47.9791 H         1 UNK         0.3000 
    191 H191       -2.6026  -21.8428  -48.0159 H         1 UNK         0.0600 
    192 H192       -2.5324  -21.8643  -44.9594 H         1 UNK         0.0600 
    193 H193       -3.8744  -21.3467  -45.9613 H         1 UNK         0.0600 
    194 H194       -2.3725  -20.4383  -45.9819 H         1 UNK         0.0600 
    195 H195       -1.1742  -24.5258  -47.7373 H         1 UNK         0.3000 
    196 H196       -2.7539  -26.3471  -46.3216 H         1 UNK         0.0600 
    197 H197       -1.3223  -28.0446  -47.4703 H         1 UNK         0.0600 
    198 H198       -0.3674  -26.6902  -46.8924 H         1 UNK         0.0600 
    199 H199       -0.7662  -26.8217  -48.6063 H         1 UNK         0.0600 
    200 H200       -3.5166  -25.0142  -49.4121 H         1 UNK         0.3000 
    201 H201       -5.1759  -27.3514  -50.2363 H         1 UNK         0.0600 
    202 H202       -5.3080  -26.2401  -52.3959 H         1 UNK         0.0600 
    203 H203       -4.5362  -24.7892  -51.7848 H         1 UNK         0.0600 
    204 H204       -3.6173  -26.2876  -51.9268 H         1 UNK         0.0600 
    205 H205       -5.4405  -24.6653  -48.2898 H         1 UNK         0.3000 
    206 H206       -7.0117  -23.4612  -47.3783 H         1 UNK         0.0600 
    207 H207       -8.3424  -25.5867  -47.2082 H         1 UNK         0.0600 
    208 H208       -9.3555  -24.1582  -47.3266 H         1 UNK         0.0600 
    209 H209       -9.1459  -25.1931  -48.7285 H         1 UNK         0.0600 
    210 H210       -6.1990  -23.1570  -50.4199 H         1 UNK         0.3000 
    211 H211       -8.1321  -21.1505  -51.3417 H         1 UNK         0.0600 
    212 H212       -6.5460  -20.8988  -53.2181 H         1 UNK         0.0600 
    213 H213       -6.9206  -22.5929  -52.9670 H         1 UNK         0.0600 
    214 H214       -5.3770  -21.9476  -52.4220 H         1 UNK         0.0600 
    215 H215       -5.2209  -21.3355  -49.4853 H         1 UNK         0.3000 
    216 H216       -4.2534  -20.0987  -47.9975 H         1 UNK         0.0600 
    217 H217       -6.7452  -18.3319  -48.0757 H         1 UNK         0.0600 
    218 H218       -5.5817  -18.4509  -46.7601 H         1 UNK         0.0600 
    219 H219       -6.5767  -19.8361  -47.1711 H         1 UNK         0.0600 
    220 H220       -5.5828  -17.7858  -50.3509 H         1 UNK         0.3000 
    221 H221       -2.9425  -16.3758  -50.4613 H         1 UNK         0.0600 
    222 H222       -5.7039  -15.0403  -50.3094 H         1 UNK         0.0600 
    223 H223       -4.4825  -15.0259  -49.0366 H         1 UNK         0.0600 
    224 H224       -4.1702  -14.2099  -50.5590 H         1 UNK         0.0600 
    225 H225       -5.5350  -17.9332  -52.1153 H         1 UNK         0.3000 
    226 H226       -4.9900  -16.5848  -54.7047 H         1 UNK         0.0600 
    227 H227       -7.3656  -16.8492  -54.0270 H         1 UNK         0.0600 
    228 H228       -7.0145  -17.8561  -55.4235 H         1 UNK         0.0600 
    229 H229       -7.1438  -18.5854  -53.8272 H         1 UNK         0.0600 
    230 H230       -4.1890  -17.6995  -56.4282 H         1 UNK         0.3000 
    231 H231       -3.0163  -19.1284  -57.6451 H         1 UNK         0.0600 
    232 H232       -5.2512  -20.1971  -57.7289 H         1 UNK         0.0600 
    233 H233       -4.8710  -21.1954  -56.3335 H         1 UNK         0.0600 
    234 H234       -3.9955  -21.4109  -57.8520 H         1 UNK         0.0600 
    235 H235       -2.9655  -22.0629  -56.1006 H         1 UNK         0.3000 
    236 H236       -0.1292  -21.8958  -55.4538 H         1 UNK         0.0600 
    237 H237       -1.1038  -23.8646  -56.6340 H         1 UNK         0.0600 
    238 H238       -0.3970  -24.3463  -55.1012 H         1 UNK         0.0600 
    239 H239       -2.1438  -24.2003  -55.2487 H         1 UNK         0.0600 
    240 H240       -2.9304  -21.1895  -53.6773 H         1 UNK         0.3000 
    241 H241       -3.4714  -20.8235  -51.6071 H         1 UNK         0.0600 
    242 H242       -1.0428  -23.4758  -51.5117 H         1 UNK         0.3800 
    243 H243       -1.9362  -24.5058  -50.4215 H         1 UNK         0.3800 
    244 H244       -1.7929  -20.2604  -49.8809 H         1 UNK         0.0800 
    245 H245       -0.5177  -20.9324  -50.8534 H         1 UNK         0.0800 
    246 H246        0.4465  -19.8569  -53.0060 H         1 UNK         0.0800 
    247 H247        0.4382  -18.1279  -53.1987 H         1 UNK         0.0800 
@<TRIPOS>BOND
     1    1    2 1    
     2    1  127 1    
     3    1  128 1    
     4    1  129 1    
     5    2    3 2    
     6    2    4 am   BACKBONE|DICT|INTERRES
     7    4    5 1    
     8    4  130 1    
     9    5    6 1    
    10    5   65 1    
    11    5  131 1    
    12    6    7 1    
    13    6  132 1    
    14    6  133 1    
    15    7    8 1    
    16    8    9 1    
    17    8  134 1    
    18    8  135 1    
    19    9   10 ar   
    20    9   14 ar   
    21   10   11 ar   
    22   10  136 1    
    23   11   12 ar   
    24   11  126 1    
    25   12   13 ar   
    26   12  137 1    
    27   13   14 ar   
    28   13   15 1    
    29   14  138 1    
    30   15   16 1    
    31   15  139 1    
    32   15  140 1    
    33   16   17 1    
    34   17   18 1    
    35   17  141 1    
    36   17  142 1    
    37   18   19 1    
    38   18   67 1    
    39   18  143 1    
    40   19   20 am   BACKBONE|DICT|INTERRES
    41   19  144 1    
    42   20   21 2    
    43   20   22 1    
    44   22   23 1    
    45   22   24 1    
    46   22  145 1    
    47   23  146 1    
    48   23  147 1    
    49   23  148 1    
    50   24   25 am   BACKBONE|DICT|INTERRES
    51   24  149 1    
    52   25   26 2    
    53   25   27 1    
    54   27   28 1    
    55   27   29 1    
    56   27  150 1    
    57   28  151 1    
    58   28  152 1    
    59   28  153 1    
    60   29   30 am   BACKBONE|DICT|INTERRES
    61   29  154 1    
    62   30   31 2    
    63   30   32 1    
    64   32   33 1    
    65   32   34 1    
    66   32  155 1    
    67   33  156 1    
    68   33  157 1    
    69   33  158 1    
    70   34   35 am   BACKBONE|DICT|INTERRES
    71   34  159 1    
    72   35   36 2    
    73   35   37 1    
    74   37   38 1    
    75   37   39 1    
    76   37  160 1    
    77   38  161 1    
    78   38  162 1    
    79   38  163 1    
    80   39   40 am   BACKBONE|DICT|INTERRES
    81   39  164 1    
    82   40   41 2    
    83   40   42 1    
    84   42   43 1    
    85   42   44 1    
    86   42  165 1    
    87   43  166 1    
    88   43  167 1    
    89   43  168 1    
    90   44   45 am   BACKBONE|DICT|INTERRES
    91   44  169 1    
    92   45   46 2    
    93   45   47 1    
    94   47   48 1    
    95   47   49 1    
    96   47  170 1    
    97   48  171 1    
    98   48  172 1    
    99   48  173 1    
   100   49   50 am   BACKBONE|DICT|INTERRES
   101   49  174 1    
   102   50   51 2    
   103   50   52 1    
   104   52   53 1    
   105   52   54 1    
   106   52  175 1    
   107   53  176 1    
   108   53  177 1    
   109   53  178 1    
   110   54   55 am   BACKBONE|DICT|INTERRES
   111   54  179 1    
   112   55   56 2    
   113   55   57 1    
   114   57   58 1    
   115   57   59 1    
   116   57  180 1    
   117   58  181 1    
   118   58  182 1    
   119   58  183 1    
   120   59   60 am   BACKBONE|DICT|INTERRES
   121   59  184 1    
   122   60   61 2    
   123   60   62 1    
   124   62   63 1    
   125   62   64 1    
   126   62  185 1    
   127   63  186 1    
   128   63  187 1    
   129   63  188 1    
   130   64   65 am   BACKBONE|DICT|INTERRES
   131   64  189 1    
   132   65   66 2    
   133   67   68 2    
   134   67   69 am   BACKBONE|DICT|INTERRES
   135   69   70 1    
   136   69  190 1    
   137   70   71 1    
   138   70   72 1    
   139   70  191 1    
   140   71  192 1    
   141   71  193 1    
   142   71  194 1    
   143   72   73 2    
   144   72   74 am   BACKBONE|DICT|INTERRES
   145   74   75 1    
   146   74  195 1    
   147   75   76 1    
   148   75   77 1    
   149   75  196 1    
   150   76  197 1    
   151   76  198 1    
   152   76  199 1    
   153   77   78 2    
   154   77   79 am   BACKBONE|DICT|INTERRES
   155   79   80 1    
   156   79  200 1    
   157   80   81 1    
   158   80   82 1    
   159   80  201 1    
   160   81  202 1    
   161   81  203 1    
   162   81  204 1    
   163   82   83 2    
   164   82   84 am   BACKBONE|DICT|INTERRES
   165   84   85 1    
   166   84  205 1    
   167   85   86 1    
   168   85   87 1    
   169   85  206 1    
   170   86  207 1    
   171   86  208 1    
   172   86  209 1    
   173   87   88 2    
   174   87   89 am   BACKBONE|DICT|INTERRES
   175   89   90 1    
   176   89  210 1    
   177   90   91 1    
   178   90   92 1    
   179   90  211 1    
   180   91  212 1    
   181   91  213 1    
   182   91  214 1    
   183   92   93 2    
   184   92   94 am   BACKBONE|DICT|INTERRES
   185   94   95 1    
   186   94  215 1    
   187   95   96 1    
   188   95   97 1    
   189   95  216 1    
   190   96  217 1    
   191   96  218 1    
   192   96  219 1    
   193   97   98 2    
   194   97   99 am   BACKBONE|DICT|INTERRES
   195   99  100 1    
   196   99  220 1    
   197  100  101 1    
   198  100  102 1    
   199  100  221 1    
   200  101  222 1    
   201  101  223 1    
   202  101  224 1    
   203  102  103 2    
   204  102  104 am   BACKBONE|DICT|INTERRES
   205  104  105 1    
   206  104  225 1    
   207  105  106 1    
   208  105  107 1    
   209  105  226 1    
   210  106  227 1    
   211  106  228 1    
   212  106  229 1    
   213  107  108 2    
   214  107  109 am   BACKBONE|DICT|INTERRES
   215  109  110 1    
   216  109  230 1    
   217  110  111 1    
   218  110  112 1    
   219  110  231 1    
   220  111  232 1    
   221  111  233 1    
   222  111  234 1    
   223  112  113 2    
   224  112  114 am   BACKBONE|DICT|INTERRES
   225  114  115 1    
   226  114  235 1    
   227  115  116 1    
   228  115  117 1    
   229  115  236 1    
   230  116  237 1    
   231  116  238 1    
   232  116  239 1    
   233  117  118 2    
   234  117  119 am   BACKBONE|DICT|INTERRES
   235  119  120 1    
   236  119  240 1    
   237  120  121 1    
   238  120  124 1    
   239  120  241 1    
   240  121  122 am   BACKBONE|DICT|INTERRES
   241  121  123 2    
   242  122  242 1    
   243  122  243 1    
   244  124  125 1    
   245  124  244 1    
   246  124  245 1    
   247  125  126 1    
   248  126  246 1    
   249  126  247 1    
@<TRIPOS>SUBSTRUCTURE
     1 UNK         1 GROUP             0       ****    0 ROOT    
