@<TRIPOS>MOLECULE
3R540
247   249    1
SMALL
USER_CHARGES


@<TRIPOS>ATOM
      1 CA          3.1424   -6.9654  -47.5730 C.3       0 UNK        -0.1800 
      2 C           3.5840   -8.3541  -48.0134 C.2       0 UNK         0.5000 
      3 O           4.6204   -8.4900  -48.6643 O.2       0 UNK        -0.5000 
      4 N           2.8003   -9.3831  -47.6680 N.am      1 UNK        -0.5000 
      5 CA          3.0938  -10.7903  -47.9424 C.3       1 UNK         0.1400 
      6 C6          1.8165  -11.6602  -47.8245 C.3       23 UNK        -0.0398 
      7 S7          2.0205  -13.3227  -48.5478 S.3       23 UNK        -0.2404 
      8 C8          0.7964  -14.2851  -47.6029 C.3       23 UNK        -0.0205 
      9 C9          0.3643  -15.5136  -48.3869 C.ar      23 UNK        -0.0193 
     10 C10        -0.7354  -15.4394  -49.2458 C.ar      23 UNK        -0.1150 
     11 C11        -1.1083  -16.5414  -50.0193 C.ar      23 UNK        -0.0193 
     12 C12        -0.3734  -17.7267  -49.9203 C.ar      23 UNK        -0.1150 
     13 C13         0.7201  -17.8251  -49.0549 C.ar      23 UNK        -0.0193 
     14 C14         1.0800  -16.7104  -48.2864 C.ar      23 UNK        -0.1150 
     15 C15         1.5142  -19.1314  -49.0252 C.3       23 UNK        -0.0205 
     16 S16         2.3170  -19.5420  -47.4367 S.3       23 UNK        -0.2404 
     17 C17         0.9151  -19.5484  -46.2746 C.3       23 UNK        -0.0398 
     18 CA          0.2442  -20.9354  -46.1180 C.3       11 UNK         0.1400 
     19 N          -0.3121  -21.1059  -44.7754 N.am      11 UNK        -0.5000 
     20 C          -0.8829  -22.2186  -44.2965 C.2       10 UNK         0.5000 
     21 O          -0.9487  -23.2794  -44.9148 O.2       10 UNK        -0.5000 
     22 CA         -1.5419  -22.1050  -42.9118 C.3       10 UNK         0.1400 
     23 CB         -0.5083  -22.3098  -41.7948 C.3       10 UNK        -0.1800 
     24 N          -2.2131  -20.8152  -42.7401 N.am      10 UNK        -0.5000 
     25 C          -3.3380  -20.4626  -43.3791 C.2       9 UNK         0.5000 
     26 O          -3.9516  -21.2091  -44.1417 O.2       9 UNK        -0.5000 
     27 CA         -3.8359  -19.0212  -43.1620 C.3       9 UNK         0.1400 
     28 CB         -4.6089  -18.9065  -41.8397 C.3       9 UNK        -0.1800 
     29 N          -2.7496  -18.0394  -43.1779 N.am      9 UNK        -0.5000 
     30 C          -2.0110  -17.7485  -44.2581 C.2       8 UNK         0.5000 
     31 O          -2.1936  -18.2527  -45.3642 O.2       8 UNK        -0.5000 
     32 CA         -0.8352  -16.7721  -44.0622 C.3       8 UNK         0.1400 
     33 CB         -1.2953  -15.3240  -44.2844 C.3       8 UNK        -0.1800 
     34 N          -0.1689  -16.8846  -42.7588 N.am      8 UNK        -0.5000 
     35 C           0.3922  -18.0044  -42.2810 C.2       7 UNK         0.5000 
     36 O           0.3375  -19.0891  -42.8601 O.2       7 UNK        -0.5000 
     37 CA          1.1420  -17.8837  -40.9458 C.3       7 UNK         0.1400 
     38 CB          0.5978  -18.8473  -39.8728 C.3       7 UNK        -0.1800 
     39 N           2.5828  -18.0228  -41.1688 N.am      7 UNK        -0.5000 
     40 C           3.3014  -19.1198  -41.4620 C.2       6 UNK         0.5000 
     41 O           2.8666  -20.2699  -41.4008 O.2       6 UNK        -0.5000 
     42 CA          4.7629  -18.9039  -41.9183 C.3       6 UNK         0.1400 
     43 CB          5.0377  -19.6403  -43.2414 C.3       6 UNK        -0.1800 
     44 N           5.0980  -17.4891  -42.0992 N.am      6 UNK        -0.5000 
     45 C           5.5519  -16.6720  -41.1368 C.2       5 UNK         0.5000 
     46 O           5.8256  -17.0496  -39.9976 O.2       5 UNK        -0.5000 
     47 CA          5.6845  -15.1735  -41.4882 C.3       5 UNK         0.1400 
     48 CB          7.1397  -14.8311  -41.8403 C.3       5 UNK        -0.1800 
     49 N           4.8191  -14.7518  -42.5929 N.am      5 UNK        -0.5000 
     50 C           3.4780  -14.8009  -42.5906 C.2       4 UNK         0.5000 
     51 O           2.8144  -15.1087  -41.6013 O.2       4 UNK        -0.5000 
     52 CA          2.7506  -14.5221  -43.9208 C.3       4 UNK         0.1400 
     53 CB          2.0438  -13.1611  -43.8641 C.3       4 UNK        -0.1800 
     54 N           3.6256  -14.5895  -45.0971 N.am      4 UNK        -0.5000 
     55 C           4.2284  -15.7110  -45.5282 C.2       3 UNK         0.5000 
     56 O           4.0558  -16.8068  -44.9948 O.2       3 UNK        -0.5000 
     57 CA          5.2307  -15.5993  -46.6966 C.3       3 UNK         0.1400 
     58 CB          4.7020  -16.2867  -47.9633 C.3       3 UNK        -0.1800 
     59 N           5.6038  -14.2251  -47.0286 N.am      3 UNK        -0.5000 
     60 C           6.3828  -13.4321  -46.2806 C.2       2 UNK         0.5000 
     61 O           6.8920  -13.7828  -45.2158 O.2       2 UNK        -0.5000 
     62 CA          6.5801  -11.9912  -46.7919 C.3       2 UNK         0.1400 
     63 CB          7.8327  -11.8989  -47.6757 C.3       2 UNK        -0.1800 
     64 N           5.4223  -11.4854  -47.5389 N.am      2 UNK        -0.5000 
     65 C           4.2135  -11.2760  -47.0006 C.2       1 UNK         0.5000 
     66 O           3.9634  -11.4597  -45.8091 O.2       1 UNK        -0.5000 
     67 C          -0.8240  -21.1807  -47.2057 C.2       11 UNK         0.5000 
     68 O          -0.5959  -21.9750  -48.1175 O.2       11 UNK        -0.5000 
     69 N          -1.9905  -20.5367  -47.0572 N.am      12 UNK        -0.5000 
     70 CA         -3.1552  -20.6978  -47.9262 C.3       12 UNK         0.1400 
     71 CB         -4.2269  -19.6718  -47.5308 C.3       12 UNK        -0.1800 
     72 C          -3.7262  -22.1276  -47.9024 C.2       12 UNK         0.5000 
     73 O          -4.0777  -22.6556  -48.9578 O.2       12 UNK        -0.5000 
     74 N          -3.7757  -22.7469  -46.7140 N.am      13 UNK        -0.5000 
     75 CA         -4.1879  -24.1395  -46.5307 C.3       13 UNK         0.1400 
     76 CB         -4.3357  -24.4524  -45.0345 C.3       13 UNK        -0.1800 
     77 C          -3.2297  -25.1333  -47.2132 C.2       13 UNK         0.5000 
     78 O          -3.6949  -26.0421  -47.9007 O.2       13 UNK        -0.5000 
     79 N          -1.9154  -24.9162  -47.0588 N.am      14 UNK        -0.5000 
     80 CA         -0.8555  -25.6925  -47.7087 C.3       14 UNK         0.1400 
     81 CB          0.5071  -25.2916  -47.1236 C.3       14 UNK        -0.1800 
     82 C          -0.8559  -25.5450  -49.2425 C.2       14 UNK         0.5000 
     83 O          -0.5998  -26.5215  -49.9476 O.2       14 UNK        -0.5000 
     84 N          -1.1829  -24.3406  -49.7299 N.am      15 UNK        -0.5000 
     85 CA         -1.3770  -24.0280  -51.1474 C.3       15 UNK         0.1400 
     86 CB         -1.3277  -22.5012  -51.3290 C.3       15 UNK        -0.1800 
     87 C          -2.6875  -24.5959  -51.7345 C.2       15 UNK         0.5000 
     88 O          -2.8475  -24.5753  -52.9550 O.2       15 UNK        -0.5000 
     89 N          -3.5977  -25.0710  -50.8685 N.am      16 UNK        -0.5000 
     90 CA         -4.9501  -25.5562  -51.1626 C.3       16 UNK         0.1400 
     91 CB         -4.9088  -26.8407  -52.0159 C.3       16 UNK        -0.1800 
     92 C          -5.8421  -24.4566  -51.7722 C.2       16 UNK         0.5000 
     93 O          -6.6284  -24.7259  -52.6839 O.2       16 UNK        -0.5000 
     94 N          -5.7022  -23.2272  -51.2541 N.am      17 UNK        -0.5000 
     95 CA         -6.2959  -21.9968  -51.7828 C.3       17 UNK         0.1400 
     96 CB         -5.8344  -20.8091  -50.9296 C.3       17 UNK        -0.1800 
     97 C          -7.8308  -21.9991  -51.8949 C.2       17 UNK         0.5000 
     98 O          -8.3712  -21.2756  -52.7301 O.2       17 UNK        -0.5000 
     99 N          -8.5022  -22.8297  -51.0874 N.am      18 UNK        -0.5000 
    100 CA        -9.9480  -23.0526  -51.1309 C.3       18 UNK         0.1400 
    101 CB       -10.3522  -23.9111  -49.9225 C.3       18 UNK        -0.1800 
    102 C        -10.4401  -23.7028  -52.4417 C.2       18 UNK         0.5000 
    103 O        -11.6097  -23.5304  -52.7879 O.2       18 UNK        -0.5000 
    104 N         -9.5555  -24.4304  -53.1383 N.am      19 UNK        -0.5000 
    105 CA        -9.8424  -25.1054  -54.4037 C.3       19 UNK         0.1400 
    106 CB        -9.6293  -26.6171  -54.2229 C.3       19 UNK        -0.1800 
    107 C         -8.9603  -24.5736  -55.5447 C.2       19 UNK         0.5000 
    108 O         -9.4610  -24.3690  -56.6510 O.2       19 UNK        -0.5000 
    109 N         -7.6651  -24.3735  -55.2697 N.am      20 UNK        -0.5000 
    110 CA        -6.6496  -24.0349  -56.2688 C.3       20 UNK         0.1400 
    111 CB        -5.3059  -24.6191  -55.8017 C.3       20 UNK        -0.1800 
    112 C         -6.5047  -22.5238  -56.5317 C.2       20 UNK         0.5000 
    113 O         -5.8411  -22.1595  -57.5035 O.2       20 UNK        -0.5000 
    114 N         -7.0965  -21.6892  -55.6617 N.am      21 UNK        -0.5000 
    115 CA        -6.8899  -20.2419  -55.4989 C.3       21 UNK         0.1400 
    116 CB        -7.0891  -19.4607  -56.8131 C.3       21 UNK        -0.1800 
    117 C         -5.5255  -19.9304  -54.8486 C.2       21 UNK         0.5000 
    118 O         -4.5557  -20.6672  -55.0397 O.2       21 UNK        -0.5000 
    119 N         -5.4788  -18.8573  -54.0505 N.am      22 UNK        -0.5000 
    120 CA        -4.2679  -18.4240  -53.3366 C.3       22 UNK         0.1400 
    121 C         -3.1995  -17.8442  -54.3054 C.2       22 UNK         0.5000 
    122 N         -1.9598  -18.3098  -54.2350 N.am      22 UNK        -0.7600 
    123 O         -3.4842  -16.9496  -55.0984 O.2       22 UNK        -0.5000 
    124 C124       -4.6047  -17.4307  -52.1901 C.3       23 UNK        -0.0398 
    125 S125       -3.5467  -17.6849  -50.7249 S.3       23 UNK        -0.2404 
    126 C126       -2.2595  -16.4295  -51.0091 C.3       23 UNK        -0.0205 
    127 H127        2.2052   -6.9949  -47.0168 H         1 UNK         0.0600 
    128 H128        3.0016   -6.3232  -48.4424 H         1 UNK         0.0600 
    129 H129        3.9026   -6.5152  -46.9347 H         1 UNK         0.0600 
    130 H130        1.9786   -9.2080  -47.1072 H         1 UNK         0.3000 
    131 H131        3.4476  -10.8605  -48.9737 H         1 UNK         0.0600 
    132 H132        1.4870  -11.7378  -46.7878 H         1 UNK         0.0800 
    133 H133        0.9963  -11.1821  -48.3620 H         1 UNK         0.0800 
    134 H134        1.2208  -14.5803  -46.6432 H         1 UNK         0.0800 
    135 H135       -0.0737  -13.6651  -47.3808 H         1 UNK         0.0800 
    136 H136       -1.2820  -14.5109  -49.3333 H         1 UNK         0.1150 
    137 H137       -0.6501  -18.5733  -50.5331 H         1 UNK         0.1150 
    138 H138        1.9280  -16.7637  -47.6208 H         1 UNK         0.1150 
    139 H139        0.8730  -19.9659  -49.3116 H         1 UNK         0.0800 
    140 H140        2.2892  -19.0714  -49.7899 H         1 UNK         0.0800 
    141 H141        1.3391  -19.2337  -45.3202 H         1 UNK         0.0800 
    142 H142        0.1935  -18.7741  -46.5356 H         1 UNK         0.0800 
    143 H143        1.0088  -21.7073  -46.2281 H         1 UNK         0.0600 
    144 H144       -0.2459  -20.3047  -44.1524 H         1 UNK         0.3000 
    145 H145       -2.2916  -22.8942  -42.8273 H         1 UNK         0.0600 
    146 H146       -0.9647  -22.2180  -40.8092 H         1 UNK         0.0600 
    147 H147       -0.0641  -23.3038  -41.8573 H         1 UNK         0.0600 
    148 H148        0.3056  -21.5873  -41.8587 H         1 UNK         0.0600 
    149 H149       -1.7264  -20.1227  -42.1898 H         1 UNK         0.3000 
    150 H150       -4.5206  -18.7810  -43.9783 H         1 UNK         0.0600 
    151 H151       -5.4347  -19.6185  -41.8081 H         1 UNK         0.0600 
    152 H152       -5.0354  -17.9107  -41.7178 H         1 UNK         0.0600 
    153 H153       -3.9699  -19.1063  -40.9786 H         1 UNK         0.0600 
    154 H154       -2.5298  -17.5823  -42.3055 H         1 UNK         0.3000 
    155 H155       -0.0904  -17.0053  -44.8257 H         1 UNK         0.0600 
    156 H156       -0.4555  -14.6312  -44.2584 H         1 UNK         0.0600 
    157 H157       -2.0149  -15.0093  -43.5278 H         1 UNK         0.0600 
    158 H158       -1.7725  -15.2125  -45.2593 H         1 UNK         0.0600 
    159 H159       -0.0904  -16.0337  -42.2203 H         1 UNK         0.3000 
    160 H160        0.9975  -16.8719  -40.5643 H         1 UNK         0.0600 
    161 H161        0.6261  -19.8878  -40.1939 H         1 UNK         0.0600 
    162 H162       -0.4410  -18.6136  -39.6378 H         1 UNK         0.0600 
    163 H163        1.1673  -18.7672  -38.9469 H         1 UNK         0.0600 
    164 H164        3.0573  -17.1324  -41.2609 H         1 UNK         0.3000 
    165 H165        5.4101  -19.3351  -41.1519 H         1 UNK         0.0600 
    166 H166        4.3626  -19.3116  -44.0326 H         1 UNK         0.0600 
    167 H167        6.0601  -19.4756  -43.5819 H         1 UNK         0.0600 
    168 H168        4.9051  -20.7167  -43.1265 H         1 UNK         0.0600 
    169 H169        4.8800  -17.1009  -43.0100 H         1 UNK         0.3000 
    170 H170        5.3995  -14.6016  -40.6028 H         1 UNK         0.0600 
    171 H171        7.8142  -15.1023  -41.0271 H         1 UNK         0.0600 
    172 H172        7.4715  -15.3608  -42.7344 H         1 UNK         0.0600 
    173 H173        7.2615  -13.7629  -42.0208 H         1 UNK         0.0600 
    174 H174        5.2866  -14.4752  -43.4460 H         1 UNK         0.3000 
    175 H175        1.9882  -15.2945  -44.0370 H         1 UNK         0.0600 
    176 H176        2.7492  -12.3488  -43.6884 H         1 UNK         0.0600 
    177 H177        1.5059  -12.9515  -44.7870 H         1 UNK         0.0600 
    178 H178        1.3147  -13.1353  -43.0533 H         1 UNK         0.0600 
    179 H179        3.8382  -13.7100  -45.5506 H         1 UNK         0.3000 
    180 H180        6.1330  -16.1287  -46.3833 H         1 UNK         0.0600 
    181 H181        3.8581  -15.7479  -48.3926 H         1 UNK         0.0600 
    182 H182        4.3770  -17.3061  -47.7533 H         1 UNK         0.0600 
    183 H183        5.4774  -16.3484  -48.7269 H         1 UNK         0.0600 
    184 H184        5.2161  -13.8465  -47.8804 H         1 UNK         0.3000 
    185 H185        6.7275  -11.3495  -45.9206 H         1 UNK         0.0600 
    186 H186        8.0247  -10.8702  -47.9814 H         1 UNK         0.0600 
    187 H187        8.7159  -12.2473  -47.1385 H         1 UNK         0.0600 
    188 H188        7.7360  -12.5054  -48.5771 H         1 UNK         0.0600 
    189 H189        5.5690  -11.2732  -48.5158 H         1 UNK         0.3000 
    190 H190       -2.0857  -19.8571  -46.3061 H         1 UNK         0.3000 
    191 H191       -2.8393  -20.4814  -48.9486 H         1 UNK         0.0600 
    192 H192       -5.1047  -19.7488  -48.1713 H         1 UNK         0.0600 
    193 H193       -3.8475  -18.6541  -47.6264 H         1 UNK         0.0600 
    194 H194       -4.5569  -19.8096  -46.5009 H         1 UNK         0.0600 
    195 H195       -3.5228  -22.2301  -45.8787 H         1 UNK         0.3000 
    196 H196       -5.1694  -24.2561  -46.9949 H         1 UNK         0.0600 
    197 H197       -4.6835  -25.4749  -44.8833 H         1 UNK         0.0600 
    198 H198       -5.0609  -23.7891  -44.5629 H         1 UNK         0.0600 
    199 H199       -3.3905  -24.3468  -44.5031 H         1 UNK         0.0600 
    200 H200       -1.6119  -24.1705  -46.4367 H         1 UNK         0.3000 
    201 H201       -1.0267  -26.7460  -47.4787 H         1 UNK         0.0600 
    202 H202        0.5423  -25.4718  -46.0491 H         1 UNK         0.0600 
    203 H203        0.7230  -24.2361  -47.2918 H         1 UNK         0.0600 
    204 H204        1.3133  -25.8691  -47.5774 H         1 UNK         0.0600 
    205 H205       -1.2958  -23.5698  -49.0780 H         1 UNK         0.3000 
    206 H206       -0.5506  -24.4650  -51.7113 H         1 UNK         0.0600 
    207 H207       -0.3869  -22.0893  -50.9634 H         1 UNK         0.0600 
    208 H208       -1.4149  -22.2280  -52.3813 H         1 UNK         0.0600 
    209 H209       -2.1394  -22.0069  -50.7953 H         1 UNK         0.0600 
    210 H210       -3.3646  -25.0319  -49.8844 H         1 UNK         0.3000 
    211 H211       -5.3975  -25.8126  -50.2016 H         1 UNK         0.0600 
    212 H212       -4.5394  -26.6486  -53.0236 H         1 UNK         0.0600 
    213 H213       -5.9041  -27.2760  -52.1128 H         1 UNK         0.0600 
    214 H214       -4.2675  -27.5953  -51.5604 H         1 UNK         0.0600 
    215 H215       -5.0522  -23.1045  -50.4797 H         1 UNK         0.3000 
    216 H216       -5.9004  -21.8716  -52.7906 H         1 UNK         0.0600 
    217 H217       -6.2413  -19.8714  -51.3076 H         1 UNK         0.0600 
    218 H218       -4.7481  -20.7179  -50.9294 H         1 UNK         0.0600 
    219 H219       -6.1658  -20.9159  -49.8968 H         1 UNK         0.0600 
    220 H220       -7.9739  -23.3879  -50.4334 H         1 UNK         0.3000 
    221 H221      -10.4399  -22.0817  -51.0424 H         1 UNK         0.0600 
    222 H222       -9.8721  -24.8902  -49.9466 H         1 UNK         0.0600 
    223 H223      -10.0814  -23.4259  -48.9846 H         1 UNK         0.0600 
    224 H224      -11.4306  -24.0747  -49.9023 H         1 UNK         0.0600 
    225 H225       -8.6053  -24.5063  -52.7906 H         1 UNK         0.3000 
    226 H226      -10.8813  -24.9471  -54.7002 H         1 UNK         0.0600 
    227 H227      -10.3049  -27.0205  -53.4685 H         1 UNK         0.0600 
    228 H228       -9.8218  -27.1541  -55.1526 H         1 UNK         0.0600 
    229 H229       -8.6085  -26.8471  -53.9141 H         1 UNK         0.0600 
    230 H230       -7.3164  -24.5654  -54.3325 H         1 UNK         0.3000 
    231 H231       -6.9092  -24.5089  -57.2179 H         1 UNK         0.0600 
    232 H232       -4.5284  -24.4633  -56.5505 H         1 UNK         0.0600 
    233 H233       -5.3782  -25.6926  -55.6267 H         1 UNK         0.0600 
    234 H234       -4.9652  -24.1515  -54.8768 H         1 UNK         0.0600 
    235 H235       -7.6306  -22.1187  -54.9189 H         1 UNK         0.3000 
    236 H236       -7.6671  -19.9104  -54.8101 H         1 UNK         0.0600 
    237 H237       -8.0206  -19.7419  -57.3044 H         1 UNK         0.0600 
    238 H238       -7.1339  -18.3885  -56.6199 H         1 UNK         0.0600 
    239 H239       -6.2724  -19.6227  -57.5167 H         1 UNK         0.0600 
    240 H240       -6.2931  -18.2676  -53.9601 H         1 UNK         0.3000 
    241 H241       -3.8524  -19.3273  -52.8841 H         1 UNK         0.0600 
    242 H242       -1.7102  -19.0511  -53.5999 H         1 UNK         0.3800 
    243 H243       -1.2602  -17.9338  -54.8555 H         1 UNK         0.3800 
    244 H244       -4.5624  -16.3903  -52.5185 H         1 UNK         0.0800 
    245 H245       -5.6293  -17.5805  -51.8480 H         1 UNK         0.0800 
    246 H246       -2.7173  -15.4403  -50.9609 H         1 UNK         0.0800 
    247 H247       -1.8554  -16.5347  -52.0157 H         1 UNK         0.0800 
@<TRIPOS>BOND
     1    1    2 1    
     2    1  127 1    
     3    1  128 1    
     4    1  129 1    
     5    2    3 2    
     6    2    4 am   BACKBONE|DICT|INTERRES
     7    4    5 1    
     8    4  130 1    
     9    5    6 1    
    10    5   65 1    
    11    5  131 1    
    12    6    7 1    
    13    6  132 1    
    14    6  133 1    
    15    7    8 1    
    16    8    9 1    
    17    8  134 1    
    18    8  135 1    
    19    9   10 ar   
    20    9   14 ar   
    21   10   11 ar   
    22   10  136 1    
    23   11   12 ar   
    24   11  126 1    
    25   12   13 ar   
    26   12  137 1    
    27   13   14 ar   
    28   13   15 1    
    29   14  138 1    
    30   15   16 1    
    31   15  139 1    
    32   15  140 1    
    33   16   17 1    
    34   17   18 1    
    35   17  141 1    
    36   17  142 1    
    37   18   19 1    
    38   18   67 1    
    39   18  143 1    
    40   19   20 am   BACKBONE|DICT|INTERRES
    41   19  144 1    
    42   20   21 2    
    43   20   22 1    
    44   22   23 1    
    45   22   24 1    
    46   22  145 1    
    47   23  146 1    
    48   23  147 1    
    49   23  148 1    
    50   24   25 am   BACKBONE|DICT|INTERRES
    51   24  149 1    
    52   25   26 2    
    53   25   27 1    
    54   27   28 1    
    55   27   29 1    
    56   27  150 1    
    57   28  151 1    
    58   28  152 1    
    59   28  153 1    
    60   29   30 am   BACKBONE|DICT|INTERRES
    61   29  154 1    
    62   30   31 2    
    63   30   32 1    
    64   32   33 1    
    65   32   34 1    
    66   32  155 1    
    67   33  156 1    
    68   33  157 1    
    69   33  158 1    
    70   34   35 am   BACKBONE|DICT|INTERRES
    71   34  159 1    
    72   35   36 2    
    73   35   37 1    
    74   37   38 1    
    75   37   39 1    
    76   37  160 1    
    77   38  161 1    
    78   38  162 1    
    79   38  163 1    
    80   39   40 am   BACKBONE|DICT|INTERRES
    81   39  164 1    
    82   40   41 2    
    83   40   42 1    
    84   42   43 1    
    85   42   44 1    
    86   42  165 1    
    87   43  166 1    
    88   43  167 1    
    89   43  168 1    
    90   44   45 am   BACKBONE|DICT|INTERRES
    91   44  169 1    
    92   45   46 2    
    93   45   47 1    
    94   47   48 1    
    95   47   49 1    
    96   47  170 1    
    97   48  171 1    
    98   48  172 1    
    99   48  173 1    
   100   49   50 am   BACKBONE|DICT|INTERRES
   101   49  174 1    
   102   50   51 2    
   103   50   52 1    
   104   52   53 1    
   105   52   54 1    
   106   52  175 1    
   107   53  176 1    
   108   53  177 1    
   109   53  178 1    
   110   54   55 am   BACKBONE|DICT|INTERRES
   111   54  179 1    
   112   55   56 2    
   113   55   57 1    
   114   57   58 1    
   115   57   59 1    
   116   57  180 1    
   117   58  181 1    
   118   58  182 1    
   119   58  183 1    
   120   59   60 am   BACKBONE|DICT|INTERRES
   121   59  184 1    
   122   60   61 2    
   123   60   62 1    
   124   62   63 1    
   125   62   64 1    
   126   62  185 1    
   127   63  186 1    
   128   63  187 1    
   129   63  188 1    
   130   64   65 am   BACKBONE|DICT|INTERRES
   131   64  189 1    
   132   65   66 2    
   133   67   68 2    
   134   67   69 am   BACKBONE|DICT|INTERRES
   135   69   70 1    
   136   69  190 1    
   137   70   71 1    
   138   70   72 1    
   139   70  191 1    
   140   71  192 1    
   141   71  193 1    
   142   71  194 1    
   143   72   73 2    
   144   72   74 am   BACKBONE|DICT|INTERRES
   145   74   75 1    
   146   74  195 1    
   147   75   76 1    
   148   75   77 1    
   149   75  196 1    
   150   76  197 1    
   151   76  198 1    
   152   76  199 1    
   153   77   78 2    
   154   77   79 am   BACKBONE|DICT|INTERRES
   155   79   80 1    
   156   79  200 1    
   157   80   81 1    
   158   80   82 1    
   159   80  201 1    
   160   81  202 1    
   161   81  203 1    
   162   81  204 1    
   163   82   83 2    
   164   82   84 am   BACKBONE|DICT|INTERRES
   165   84   85 1    
   166   84  205 1    
   167   85   86 1    
   168   85   87 1    
   169   85  206 1    
   170   86  207 1    
   171   86  208 1    
   172   86  209 1    
   173   87   88 2    
   174   87   89 am   BACKBONE|DICT|INTERRES
   175   89   90 1    
   176   89  210 1    
   177   90   91 1    
   178   90   92 1    
   179   90  211 1    
   180   91  212 1    
   181   91  213 1    
   182   91  214 1    
   183   92   93 2    
   184   92   94 am   BACKBONE|DICT|INTERRES
   185   94   95 1    
   186   94  215 1    
   187   95   96 1    
   188   95   97 1    
   189   95  216 1    
   190   96  217 1    
   191   96  218 1    
   192   96  219 1    
   193   97   98 2    
   194   97   99 am   BACKBONE|DICT|INTERRES
   195   99  100 1    
   196   99  220 1    
   197  100  101 1    
   198  100  102 1    
   199  100  221 1    
   200  101  222 1    
   201  101  223 1    
   202  101  224 1    
   203  102  103 2    
   204  102  104 am   BACKBONE|DICT|INTERRES
   205  104  105 1    
   206  104  225 1    
   207  105  106 1    
   208  105  107 1    
   209  105  226 1    
   210  106  227 1    
   211  106  228 1    
   212  106  229 1    
   213  107  108 2    
   214  107  109 am   BACKBONE|DICT|INTERRES
   215  109  110 1    
   216  109  230 1    
   217  110  111 1    
   218  110  112 1    
   219  110  231 1    
   220  111  232 1    
   221  111  233 1    
   222  111  234 1    
   223  112  113 2    
   224  112  114 am   BACKBONE|DICT|INTERRES
   225  114  115 1    
   226  114  235 1    
   227  115  116 1    
   228  115  117 1    
   229  115  236 1    
   230  116  237 1    
   231  116  238 1    
   232  116  239 1    
   233  117  118 2    
   234  117  119 am   BACKBONE|DICT|INTERRES
   235  119  120 1    
   236  119  240 1    
   237  120  121 1    
   238  120  124 1    
   239  120  241 1    
   240  121  122 am   BACKBONE|DICT|INTERRES
   241  121  123 2    
   242  122  242 1    
   243  122  243 1    
   244  124  125 1    
   245  124  244 1    
   246  124  245 1    
   247  125  126 1    
   248  126  246 1    
   249  126  247 1    
@<TRIPOS>SUBSTRUCTURE
     1 UNK         1 GROUP             0       ****    0 ROOT    
