@<TRIPOS>MOLECULE
3R540
247   249    1
SMALL
USER_CHARGES


@<TRIPOS>ATOM
      1 CA          6.1363  -12.5196  -48.0611 C.3       0 UNK        -0.1800 
      2 C           4.6455  -12.6897  -48.3146 C.2       0 UNK         0.5000 
      3 O           4.0075  -13.5308  -47.6807 O.2       0 UNK        -0.5000 
      4 N           4.0847  -11.8995  -49.2388 N.am      1 UNK        -0.5000 
      5 CA          2.6586  -11.9075  -49.5729 C.3       1 UNK         0.1400 
      6 C6          2.3390  -11.1105  -50.8607 C.3       23 UNK        -0.0398 
      7 S7          2.9916  -11.9464  -52.3454 S.3       23 UNK        -0.2404 
      8 C8          1.5138  -12.8359  -52.9438 C.3       23 UNK        -0.0205 
      9 C9          0.9410  -13.7774  -51.8925 C.ar      23 UNK        -0.0193 
     10 C10        -0.2963  -13.5079  -51.2982 C.ar      23 UNK        -0.1150 
     11 C11        -0.8116  -14.3593  -50.3163 C.ar      23 UNK        -0.0193 
     12 C12        -0.0664  -15.4650  -49.9038 C.ar      23 UNK        -0.1150 
     13 C13         1.1570  -15.7601  -50.5091 C.ar      23 UNK        -0.0193 
     14 C14         1.6542  -14.9158  -51.5055 C.ar      23 UNK        -0.1150 
     15 C15         1.9308  -17.0037  -50.1068 C.3       23 UNK        -0.0205 
     16 S16         1.5724  -18.3879  -51.2300 S.3       23 UNK        -0.2404 
     17 C17        -0.1528  -18.8101  -50.7964 C.3       23 UNK        -0.0398 
     18 CA         -0.2868  -20.3011  -50.4153 C.3       11 UNK         0.1400 
     19 N           0.4387  -20.6238  -49.1814 N.am      11 UNK        -0.5000 
     20 C           1.3051  -21.6356  -49.0550 C.2       10 UNK         0.5000 
     21 O           1.6027  -22.4045  -49.9690 O.2       10 UNK        -0.5000 
     22 CA          1.9428  -21.8382  -47.6705 C.3       10 UNK         0.1400 
     23 CB          3.1943  -20.9581  -47.5331 C.3       10 UNK        -0.1800 
     24 N           1.0438  -21.5870  -46.5408 N.am      10 UNK        -0.5000 
     25 C          -0.0839  -22.2657  -46.2799 C.2       9 UNK         0.5000 
     26 O          -0.5823  -23.1043  -47.0325 O.2       9 UNK        -0.5000 
     27 CA         -0.7899  -21.9344  -44.9552 C.3       9 UNK         0.1400 
     28 CB          0.0439  -22.3906  -43.7476 C.3       9 UNK        -0.1800 
     29 N          -1.0856  -20.5113  -44.8419 N.am      9 UNK        -0.5000 
     30 C          -1.9939  -19.8727  -45.5885 C.2       8 UNK         0.5000 
     31 O          -2.7520  -20.4424  -46.3727 O.2       8 UNK        -0.5000 
     32 CA         -2.0508  -18.3404  -45.4662 C.3       8 UNK         0.1400 
     33 CB         -2.9478  -17.9255  -44.2926 C.3       8 UNK        -0.1800 
     34 N          -0.7282  -17.7314  -45.3293 N.am      8 UNK        -0.5000 
     35 C           0.2301  -17.8122  -46.2645 C.2       7 UNK         0.5000 
     36 O           0.0889  -18.3874  -47.3444 O.2       7 UNK        -0.5000 
     37 CA          1.5837  -17.1724  -45.9223 C.3       7 UNK         0.1400 
     38 CB          1.5476  -15.6670  -46.2032 C.3       7 UNK        -0.1800 
     39 N           1.9756  -17.4093  -44.5325 N.am      7 UNK        -0.5000 
     40 C           2.2967  -18.6166  -44.0458 C.2       6 UNK         0.5000 
     41 O           2.3196  -19.6455  -44.7217 O.2       6 UNK        -0.5000 
     42 CA          2.5792  -18.6968  -42.5367 C.3       6 UNK         0.1400 
     43 CB          3.9406  -18.0737  -42.1923 C.3       6 UNK        -0.1800 
     44 N           1.5285  -18.0557  -41.7473 N.am      6 UNK        -0.5000 
     45 C           0.2540  -18.4704  -41.7017 C.2       5 UNK         0.5000 
     46 O          -0.1650  -19.4585  -42.3016 O.2       5 UNK        -0.5000 
     47 CA         -0.7294  -17.6303  -40.8681 C.3       5 UNK         0.1400 
     48 CB         -0.8312  -18.1867  -39.4402 C.3       5 UNK        -0.1800 
     49 N          -0.3869  -16.2099  -40.8052 N.am      5 UNK        -0.5000 
     50 C          -0.3149  -15.3734  -41.8498 C.2       4 UNK         0.5000 
     51 O          -0.5248  -15.7187  -43.0167 O.2       4 UNK        -0.5000 
     52 CA          0.0335  -13.9034  -41.5235 C.3       4 UNK         0.1400 
     53 CB          0.7443  -13.7202  -40.1628 C.3       4 UNK        -0.1800 
     54 N           0.8082  -13.2374  -42.5711 N.am      4 UNK        -0.5000 
     55 C           1.9844  -13.6083  -43.0921 C.2       3 UNK         0.5000 
     56 O           2.5567  -14.6678  -42.8243 O.2       3 UNK        -0.5000 
     57 CA          2.6069  -12.6090  -44.0917 C.3       3 UNK         0.1400 
     58 CB          4.0699  -12.9448  -44.4297 C.3       3 UNK        -0.1800 
     59 N           1.8321  -12.5172  -45.3311 N.am      3 UNK        -0.5000 
     60 C           0.6444  -11.9078  -45.4687 C.2       2 UNK         0.5000 
     61 O           0.0958  -11.2904  -44.5532 O.2       2 UNK        -0.5000 
     62 CA         -0.0610  -12.0352  -46.8381 C.3       2 UNK         0.1400 
     63 CB         -1.0280  -10.8681  -47.1263 C.3       2 UNK        -0.1800 
     64 N           0.8568  -12.2396  -47.9633 N.am      2 UNK        -0.5000 
     65 C           1.8165  -11.4050  -48.3874 C.2       1 UNK         0.5000 
     66 O           2.0584  -10.3028  -47.8910 O.2       1 UNK        -0.5000 
     67 C          -1.7547  -20.7722  -50.3447 C.2       11 UNK         0.5000 
     68 O          -2.5638  -20.3675  -51.1804 O.2       11 UNK        -0.5000 
     69 N          -2.0662  -21.6560  -49.3853 N.am      12 UNK        -0.5000 
     70 CA         -3.2892  -22.4541  -49.2949 C.3       12 UNK         0.1400 
     71 CB         -3.3180  -23.4879  -50.4335 C.3       12 UNK        -0.1800 
     72 C          -4.6003  -21.6470  -49.1899 C.2       12 UNK         0.5000 
     73 O          -5.6509  -22.1269  -49.6149 O.2       12 UNK        -0.5000 
     74 N          -4.5403  -20.4739  -48.5487 N.am      13 UNK        -0.5000 
     75 CA         -5.7175  -19.7240  -48.1011 C.3       13 UNK         0.1400 
     76 CB         -5.3063  -18.2935  -47.7253 C.3       13 UNK        -0.1800 
     77 C          -6.3829  -20.4231  -46.8991 C.2       13 UNK         0.5000 
     78 O          -7.6096  -20.4750  -46.8165 O.2       13 UNK        -0.5000 
     79 N          -5.5457  -20.9917  -46.0187 N.am      14 UNK        -0.5000 
     80 CA         -5.9353  -21.8514  -44.8989 C.3       14 UNK         0.1400 
     81 CB         -4.8950  -21.6888  -43.7782 C.3       14 UNK        -0.1800 
     82 C          -6.0662  -23.3345  -45.3123 C.2       14 UNK         0.5000 
     83 O          -6.4266  -24.1635  -44.4768 O.2       14 UNK        -0.5000 
     84 N          -5.7573  -23.6395  -46.5828 N.am      15 UNK        -0.5000 
     85 CA         -5.8128  -24.9494  -47.2435 C.3       15 UNK         0.1400 
     86 CB         -7.2694  -25.4502  -47.3324 C.3       15 UNK        -0.1800 
     87 C          -4.8502  -26.0031  -46.6517 C.2       15 UNK         0.5000 
     88 O          -5.1211  -27.2010  -46.7539 O.2       15 UNK        -0.5000 
     89 N          -3.7416  -25.5493  -46.0470 N.am      16 UNK        -0.5000 
     90 CA         -2.6922  -26.4178  -45.5091 C.3       16 UNK         0.1400 
     91 CB         -1.8314  -25.6354  -44.5067 C.3       16 UNK        -0.1800 
     92 C          -1.8307  -27.0181  -46.6347 C.2       16 UNK         0.5000 
     93 O          -1.6433  -28.2350  -46.6784 O.2       16 UNK        -0.5000 
     94 N          -1.3461  -26.1533  -47.5359 N.am      17 UNK        -0.5000 
     95 CA         -0.6668  -26.5364  -48.7725 C.3       17 UNK         0.1400 
     96 CB          0.2314  -25.3705  -49.2174 C.3       17 UNK        -0.1800 
     97 C          -1.6741  -26.9192  -49.8768 C.2       17 UNK         0.5000 
     98 O          -2.8844  -26.7462  -49.7101 O.2       17 UNK        -0.5000 
     99 N          -1.1477  -27.4273  -50.9973 N.am      18 UNK        -0.5000 
    100 CA        -1.9088  -27.7428  -52.2071 C.3       18 UNK         0.1400 
    101 CB        -1.0322  -28.6136  -53.1220 C.3       18 UNK        -0.1800 
    102 C         -2.3765  -26.4763  -52.9540 C.2       18 UNK         0.5000 
    103 O         -1.7760  -25.4101  -52.7991 O.2       18 UNK        -0.5000 
    104 N         -3.4143  -26.6434  -53.7858 N.am      19 UNK        -0.5000 
    105 CA        -4.0938  -25.6090  -54.5747 C.3       19 UNK         0.1400 
    106 CB        -3.1359  -24.9678  -55.6066 C.3       19 UNK        -0.1800 
    107 C         -4.8380  -24.5938  -53.6787 C.2       19 UNK         0.5000 
    108 O         -5.3788  -24.9889  -52.6441 O.2       19 UNK        -0.5000 
    109 N         -4.8933  -23.3262  -54.1038 N.am      20 UNK        -0.5000 
    110 CA        -5.5712  -22.2230  -53.4228 C.3       20 UNK         0.1400 
    111 CB        -7.1023  -22.3527  -53.5693 C.3       20 UNK        -0.1800 
    112 C         -5.0292  -20.8902  -53.9667 C.2       20 UNK         0.5000 
    113 O         -5.8101  -20.0178  -54.3505 O.2       20 UNK        -0.5000 
    114 N         -3.6948  -20.7647  -54.0217 N.am      21 UNK        -0.5000 
    115 CA        -2.9595  -19.6411  -54.6184 C.3       21 UNK         0.1400 
    116 CB        -1.4507  -19.9180  -54.5257 C.3       21 UNK        -0.1800 
    117 C         -3.3043  -18.2487  -54.0468 C.2       21 UNK         0.5000 
    118 O         -3.2759  -17.2715  -54.7962 O.2       21 UNK        -0.5000 
    119 N         -3.6618  -18.1912  -52.7592 N.am      22 UNK        -0.5000 
    120 CA        -4.2466  -17.0182  -52.0881 C.3       22 UNK         0.1400 
    121 C         -5.6533  -17.3251  -51.4895 C.2       22 UNK         0.5000 
    122 N         -6.3782  -18.3195  -51.9893 N.am      22 UNK        -0.7600 
    123 O         -6.1159  -16.6501  -50.5753 O.2       22 UNK        -0.5000 
    124 C124       -3.2495  -16.3759  -51.0834 C.3       23 UNK        -0.0398 
    125 S125       -3.5130  -14.5758  -50.8837 S.3       23 UNK        -0.2404 
    126 C126       -2.1883  -14.1089  -49.7229 C.3       23 UNK        -0.0205 
    127 H127        6.3105  -12.2485  -47.0199 H         1 UNK         0.0600 
    128 H128        6.5691  -11.7434  -48.6926 H         1 UNK         0.0600 
    129 H129        6.6592  -13.4543  -48.2630 H         1 UNK         0.0600 
    130 H130        4.6487  -11.2177  -49.7249 H         1 UNK         0.3000 
    131 H131        2.3894  -12.9501  -49.7417 H         1 UNK         0.0600 
    132 H132        2.7636  -10.1067  -50.8063 H         1 UNK         0.0800 
    133 H133        1.2631  -10.9731  -50.9835 H         1 UNK         0.0800 
    134 H134        0.7647  -12.1102  -53.2643 H         1 UNK         0.0800 
    135 H135        1.7814  -13.4108  -53.8314 H         1 UNK         0.0800 
    136 H136       -0.8686  -12.6446  -51.6081 H         1 UNK         0.1150 
    137 H137       -0.4578  -16.1161  -49.1350 H         1 UNK         0.1150 
    138 H138        2.6036  -15.1373  -51.9728 H         1 UNK         0.1150 
    139 H139        3.0010  -16.7937  -50.1325 H         1 UNK         0.0800 
    140 H140        1.7032  -17.2921  -49.0815 H         1 UNK         0.0800 
    141 H141       -0.5125  -18.1903  -49.9776 H         1 UNK         0.0800 
    142 H142       -0.7684  -18.5607  -51.6613 H         1 UNK         0.0800 
    143 H143        0.1345  -20.8699  -51.2467 H         1 UNK         0.0600 
    144 H144        0.2806  -20.0008  -48.3930 H         1 UNK         0.3000 
    145 H145        2.2553  -22.8825  -47.6077 H         1 UNK         0.0600 
    146 H146        3.7247  -21.1684  -46.6043 H         1 UNK         0.0600 
    147 H147        2.9398  -19.8976  -47.5422 H         1 UNK         0.0600 
    148 H148        3.8918  -21.1360  -48.3526 H         1 UNK         0.0600 
    149 H149        1.3644  -20.8971  -45.8665 H         1 UNK         0.3000 
    150 H150       -1.7337  -22.4814  -44.9379 H         1 UNK         0.0600 
    151 H151        0.3208  -23.4420  -43.8300 H         1 UNK         0.0600 
    152 H152       -0.5171  -22.2737  -42.8202 H         1 UNK         0.0600 
    153 H153        0.9658  -21.8165  -43.6507 H         1 UNK         0.0600 
    154 H154       -0.5475  -19.9871  -44.1588 H         1 UNK         0.3000 
    155 H155       -2.4862  -17.9500  -46.3873 H         1 UNK         0.0600 
    156 H156       -3.9668  -18.2880  -44.4328 H         1 UNK         0.0600 
    157 H157       -2.9971  -16.8410  -44.1934 H         1 UNK         0.0600 
    158 H158       -2.5860  -18.3353  -43.3509 H         1 UNK         0.0600 
    159 H159       -0.5444  -17.2083  -44.4795 H         1 UNK         0.3000 
    160 H160        2.3397  -17.6209  -46.5699 H         1 UNK         0.0600 
    161 H161        0.8187  -15.1607  -45.5694 H         1 UNK         0.0600 
    162 H162        1.2828  -15.4646  -47.2411 H         1 UNK         0.0600 
    163 H163        2.5246  -15.2200  -46.0270 H         1 UNK         0.0600 
    164 H164        1.9610  -16.6138  -43.9052 H         1 UNK         0.3000 
    165 H165        2.6098  -19.7529  -42.2603 H         1 UNK         0.0600 
    166 H166        4.1775  -18.2047  -41.1364 H         1 UNK         0.0600 
    167 H167        4.7404  -18.5446  -42.7652 H         1 UNK         0.0600 
    168 H168        3.9656  -17.0056  -42.4109 H         1 UNK         0.0600 
    169 H169        1.7796  -17.2136  -41.2505 H         1 UNK         0.3000 
    170 H170       -1.7130  -17.7108  -41.3320 H         1 UNK         0.0600 
    171 H171       -1.1117  -19.2410  -39.4513 H         1 UNK         0.0600 
    172 H172        0.1169  -18.1049  -38.9072 H         1 UNK         0.0600 
    173 H173       -1.5891  -17.6572  -38.8626 H         1 UNK         0.0600 
    174 H174       -0.1977  -15.8384  -39.8857 H         1 UNK         0.3000 
    175 H175       -0.9195  -13.3753  -41.4740 H         1 UNK         0.0600 
    176 H176        1.6686  -14.2971  -40.1075 H         1 UNK         0.0600 
    177 H177        0.9998  -12.6738  -39.9946 H         1 UNK         0.0600 
    178 H178        0.1075  -14.0228  -39.3309 H         1 UNK         0.0600 
    179 H179        0.3901  -12.3963  -42.9579 H         1 UNK         0.3000 
    180 H180        2.6040  -11.6281  -43.6117 H         1 UNK         0.0600 
    181 H181        4.6803  -12.9790  -43.5265 H         1 UNK         0.0600 
    182 H182        4.5045  -12.1904  -45.0855 H         1 UNK         0.0600 
    183 H183        4.1634  -13.9121  -44.9233 H         1 UNK         0.0600 
    184 H184        2.2276  -12.9881  -46.1344 H         1 UNK         0.3000 
    185 H185       -0.6608  -12.9443  -46.7751 H         1 UNK         0.0600 
    186 H186       -1.8155  -10.8166  -46.3735 H         1 UNK         0.0600 
    187 H187       -0.5141   -9.9065  -47.1263 H         1 UNK         0.0600 
    188 H188       -1.5149  -10.9880  -48.0940 H         1 UNK         0.0600 
    189 H189        0.7578  -13.1237  -48.4426 H         1 UNK         0.3000 
    190 H190       -1.3423  -21.9050  -48.7216 H         1 UNK         0.3000 
    191 H191       -3.2098  -23.0073  -48.3583 H         1 UNK         0.0600 
    192 H192       -4.1596  -24.1736  -50.3333 H         1 UNK         0.0600 
    193 H193       -2.4137  -24.0922  -50.4356 H         1 UNK         0.0600 
    194 H194       -3.3886  -23.0139  -51.4108 H         1 UNK         0.0600 
    195 H195       -3.6487  -20.2027  -48.1493 H         1 UNK         0.3000 
    196 H196       -6.4347  -19.6740  -48.9233 H         1 UNK         0.0600 
    197 H197       -4.7277  -18.2669  -46.8039 H         1 UNK         0.0600 
    198 H198       -4.7101  -17.8308  -48.5097 H         1 UNK         0.0600 
    199 H199       -6.1865  -17.6678  -47.5738 H         1 UNK         0.0600 
    200 H200       -4.5460  -20.8687  -46.1631 H         1 UNK         0.3000 
    201 H201       -6.9057  -21.5296  -44.5155 H         1 UNK         0.0600 
    202 H202       -5.1771  -22.2621  -42.8943 H         1 UNK         0.0600 
    203 H203       -4.8036  -20.6466  -43.4718 H         1 UNK         0.0600 
    204 H204       -3.9095  -22.0331  -44.0905 H         1 UNK         0.0600 
    205 H205       -5.5252  -22.8638  -47.1841 H         1 UNK         0.3000 
    206 H206       -5.4687  -24.7833  -48.2652 H         1 UNK         0.0600 
    207 H207       -7.9190  -24.6939  -47.7732 H         1 UNK         0.0600 
    208 H208       -7.3412  -26.3400  -47.9588 H         1 UNK         0.0600 
    209 H209       -7.6700  -25.7077  -46.3516 H         1 UNK         0.0600 
    210 H210       -3.5954  -24.5540  -45.9851 H         1 UNK         0.3000 
    211 H211       -3.1662  -27.2403  -44.9689 H         1 UNK         0.0600 
    212 H212       -1.2744  -24.8388  -44.9953 H         1 UNK         0.0600 
    213 H213       -1.1048  -26.2914  -44.0259 H         1 UNK         0.0600 
    214 H214       -2.4406  -25.1906  -43.7195 H         1 UNK         0.0600 
    215 H215       -1.5231  -25.1651  -47.4168 H         1 UNK         0.3000 
    216 H216       -0.0327  -27.4039  -48.5781 H         1 UNK         0.0600 
    217 H217        0.9529  -25.1125  -48.4420 H         1 UNK         0.0600 
    218 H218       -0.3484  -24.4746  -49.4385 H         1 UNK         0.0600 
    219 H219        0.7998  -25.6196  -50.1138 H         1 UNK         0.0600 
    220 H220       -0.1444  -27.5049  -51.0726 H         1 UNK         0.3000 
    221 H221       -2.7906  -28.3183  -51.9171 H         1 UNK         0.0600 
    222 H222       -1.5733  -28.9082  -54.0221 H         1 UNK         0.0600 
    223 H223       -0.1330  -28.0840  -53.4396 H         1 UNK         0.0600 
    224 H224       -0.7227  -29.5294  -52.6180 H         1 UNK         0.0600 
    225 H225       -3.8445  -27.5566  -53.8261 H         1 UNK         0.3000 
    226 H226       -4.8704  -26.1296  -55.1367 H         1 UNK         0.0600 
    227 H227       -2.5983  -25.7325  -56.1673 H         1 UNK         0.0600 
    228 H228       -3.6822  -24.3684  -56.3355 H         1 UNK         0.0600 
    229 H229       -2.3947  -24.3220  -55.1347 H         1 UNK         0.0600 
    230 H230       -4.4279  -23.0829  -54.9677 H         1 UNK         0.3000 
    231 H231       -5.3288  -22.2521  -52.3601 H         1 UNK         0.0600 
    232 H232       -7.6144  -21.5314  -53.0665 H         1 UNK         0.0600 
    233 H233       -7.4706  -23.2760  -53.1226 H         1 UNK         0.0600 
    234 H234       -7.4069  -22.3421  -54.6163 H         1 UNK         0.0600 
    235 H235       -3.1289  -21.4996  -53.6227 H         1 UNK         0.3000 
    236 H236       -3.2271  -19.6172  -55.6767 H         1 UNK         0.0600 
    237 H237       -1.1811  -20.8160  -55.0817 H         1 UNK         0.0600 
    238 H238       -0.8726  -19.0927  -54.9437 H         1 UNK         0.0600 
    239 H239       -1.1277  -20.0558  -53.4948 H         1 UNK         0.0600 
    240 H240       -3.6002  -19.0410  -52.2047 H         1 UNK         0.3000 
    241 H241       -4.4586  -16.2675  -52.8511 H         1 UNK         0.0600 
    242 H242       -6.0675  -18.8366  -52.8048 H         1 UNK         0.3800 
    243 H243       -7.2923  -18.4969  -51.6060 H         1 UNK         0.3800 
    244 H244       -3.2818  -16.8718  -50.1130 H         1 UNK         0.0800 
    245 H245       -2.2331  -16.5061  -51.4554 H         1 UNK         0.0800 
    246 H246       -2.2898  -13.0514  -49.4755 H         1 UNK         0.0800 
    247 H247       -2.3172  -14.6569  -48.7880 H         1 UNK         0.0800 
@<TRIPOS>BOND
     1    1    2 1    
     2    1  127 1    
     3    1  128 1    
     4    1  129 1    
     5    2    3 2    
     6    2    4 am   BACKBONE|DICT|INTERRES
     7    4    5 1    
     8    4  130 1    
     9    5    6 1    
    10    5   65 1    
    11    5  131 1    
    12    6    7 1    
    13    6  132 1    
    14    6  133 1    
    15    7    8 1    
    16    8    9 1    
    17    8  134 1    
    18    8  135 1    
    19    9   10 ar   
    20    9   14 ar   
    21   10   11 ar   
    22   10  136 1    
    23   11   12 ar   
    24   11  126 1    
    25   12   13 ar   
    26   12  137 1    
    27   13   14 ar   
    28   13   15 1    
    29   14  138 1    
    30   15   16 1    
    31   15  139 1    
    32   15  140 1    
    33   16   17 1    
    34   17   18 1    
    35   17  141 1    
    36   17  142 1    
    37   18   19 1    
    38   18   67 1    
    39   18  143 1    
    40   19   20 am   BACKBONE|DICT|INTERRES
    41   19  144 1    
    42   20   21 2    
    43   20   22 1    
    44   22   23 1    
    45   22   24 1    
    46   22  145 1    
    47   23  146 1    
    48   23  147 1    
    49   23  148 1    
    50   24   25 am   BACKBONE|DICT|INTERRES
    51   24  149 1    
    52   25   26 2    
    53   25   27 1    
    54   27   28 1    
    55   27   29 1    
    56   27  150 1    
    57   28  151 1    
    58   28  152 1    
    59   28  153 1    
    60   29   30 am   BACKBONE|DICT|INTERRES
    61   29  154 1    
    62   30   31 2    
    63   30   32 1    
    64   32   33 1    
    65   32   34 1    
    66   32  155 1    
    67   33  156 1    
    68   33  157 1    
    69   33  158 1    
    70   34   35 am   BACKBONE|DICT|INTERRES
    71   34  159 1    
    72   35   36 2    
    73   35   37 1    
    74   37   38 1    
    75   37   39 1    
    76   37  160 1    
    77   38  161 1    
    78   38  162 1    
    79   38  163 1    
    80   39   40 am   BACKBONE|DICT|INTERRES
    81   39  164 1    
    82   40   41 2    
    83   40   42 1    
    84   42   43 1    
    85   42   44 1    
    86   42  165 1    
    87   43  166 1    
    88   43  167 1    
    89   43  168 1    
    90   44   45 am   BACKBONE|DICT|INTERRES
    91   44  169 1    
    92   45   46 2    
    93   45   47 1    
    94   47   48 1    
    95   47   49 1    
    96   47  170 1    
    97   48  171 1    
    98   48  172 1    
    99   48  173 1    
   100   49   50 am   BACKBONE|DICT|INTERRES
   101   49  174 1    
   102   50   51 2    
   103   50   52 1    
   104   52   53 1    
   105   52   54 1    
   106   52  175 1    
   107   53  176 1    
   108   53  177 1    
   109   53  178 1    
   110   54   55 am   BACKBONE|DICT|INTERRES
   111   54  179 1    
   112   55   56 2    
   113   55   57 1    
   114   57   58 1    
   115   57   59 1    
   116   57  180 1    
   117   58  181 1    
   118   58  182 1    
   119   58  183 1    
   120   59   60 am   BACKBONE|DICT|INTERRES
   121   59  184 1    
   122   60   61 2    
   123   60   62 1    
   124   62   63 1    
   125   62   64 1    
   126   62  185 1    
   127   63  186 1    
   128   63  187 1    
   129   63  188 1    
   130   64   65 am   BACKBONE|DICT|INTERRES
   131   64  189 1    
   132   65   66 2    
   133   67   68 2    
   134   67   69 am   BACKBONE|DICT|INTERRES
   135   69   70 1    
   136   69  190 1    
   137   70   71 1    
   138   70   72 1    
   139   70  191 1    
   140   71  192 1    
   141   71  193 1    
   142   71  194 1    
   143   72   73 2    
   144   72   74 am   BACKBONE|DICT|INTERRES
   145   74   75 1    
   146   74  195 1    
   147   75   76 1    
   148   75   77 1    
   149   75  196 1    
   150   76  197 1    
   151   76  198 1    
   152   76  199 1    
   153   77   78 2    
   154   77   79 am   BACKBONE|DICT|INTERRES
   155   79   80 1    
   156   79  200 1    
   157   80   81 1    
   158   80   82 1    
   159   80  201 1    
   160   81  202 1    
   161   81  203 1    
   162   81  204 1    
   163   82   83 2    
   164   82   84 am   BACKBONE|DICT|INTERRES
   165   84   85 1    
   166   84  205 1    
   167   85   86 1    
   168   85   87 1    
   169   85  206 1    
   170   86  207 1    
   171   86  208 1    
   172   86  209 1    
   173   87   88 2    
   174   87   89 am   BACKBONE|DICT|INTERRES
   175   89   90 1    
   176   89  210 1    
   177   90   91 1    
   178   90   92 1    
   179   90  211 1    
   180   91  212 1    
   181   91  213 1    
   182   91  214 1    
   183   92   93 2    
   184   92   94 am   BACKBONE|DICT|INTERRES
   185   94   95 1    
   186   94  215 1    
   187   95   96 1    
   188   95   97 1    
   189   95  216 1    
   190   96  217 1    
   191   96  218 1    
   192   96  219 1    
   193   97   98 2    
   194   97   99 am   BACKBONE|DICT|INTERRES
   195   99  100 1    
   196   99  220 1    
   197  100  101 1    
   198  100  102 1    
   199  100  221 1    
   200  101  222 1    
   201  101  223 1    
   202  101  224 1    
   203  102  103 2    
   204  102  104 am   BACKBONE|DICT|INTERRES
   205  104  105 1    
   206  104  225 1    
   207  105  106 1    
   208  105  107 1    
   209  105  226 1    
   210  106  227 1    
   211  106  228 1    
   212  106  229 1    
   213  107  108 2    
   214  107  109 am   BACKBONE|DICT|INTERRES
   215  109  110 1    
   216  109  230 1    
   217  110  111 1    
   218  110  112 1    
   219  110  231 1    
   220  111  232 1    
   221  111  233 1    
   222  111  234 1    
   223  112  113 2    
   224  112  114 am   BACKBONE|DICT|INTERRES
   225  114  115 1    
   226  114  235 1    
   227  115  116 1    
   228  115  117 1    
   229  115  236 1    
   230  116  237 1    
   231  116  238 1    
   232  116  239 1    
   233  117  118 2    
   234  117  119 am   BACKBONE|DICT|INTERRES
   235  119  120 1    
   236  119  240 1    
   237  120  121 1    
   238  120  124 1    
   239  120  241 1    
   240  121  122 am   BACKBONE|DICT|INTERRES
   241  121  123 2    
   242  122  242 1    
   243  122  243 1    
   244  124  125 1    
   245  124  244 1    
   246  124  245 1    
   247  125  126 1    
   248  126  246 1    
   249  126  247 1    
@<TRIPOS>SUBSTRUCTURE
     1 UNK         1 GROUP             0       ****    0 ROOT    
