@<TRIPOS>MOLECULE
3R540
247   249    1
SMALL
USER_CHARGES


@<TRIPOS>ATOM
      1 CA          4.1797  -10.8961  -49.0468 C.3       0 UNK        -0.1800 
      2 C           3.1417  -11.3607  -48.0368 C.2       0 UNK         0.5000 
      3 O           3.1829  -10.9381  -46.8818 O.2       0 UNK        -0.5000 
      4 N           2.1987  -12.2090  -48.4711 N.am      1 UNK        -0.5000 
      5 CA          1.1357  -12.8247  -47.6590 C.3       1 UNK         0.1400 
      6 C6          0.3358  -13.8539  -48.4989 C.3       23 UNK        -0.0398 
      7 S7         -0.5450  -15.0759  -47.4747 S.3       23 UNK        -0.2404 
      8 C8         -1.5304  -15.9595  -48.7269 C.3       23 UNK        -0.0205 
      9 C9         -0.6741  -16.8508  -49.6162 C.ar      23 UNK        -0.0193 
     10 C10        -0.6645  -16.6695  -51.0007 C.ar      23 UNK        -0.1150 
     11 C11         0.1344  -17.4748  -51.8176 C.ar      23 UNK        -0.0193 
     12 C12         0.9341  -18.4670  -51.2371 C.ar      23 UNK        -0.1150 
     13 C13         0.9259  -18.6656  -49.8521 C.ar      23 UNK        -0.0193 
     14 C14         0.1108  -17.8602  -49.0544 C.ar      23 UNK        -0.1150 
     15 C15         1.8354  -19.7036  -49.2043 C.3       23 UNK        -0.0205 
     16 S16         1.2977  -21.4192  -49.4908 S.3       23 UNK        -0.2404 
     17 C17        -0.3048  -21.5174  -48.6243 C.3       23 UNK        -0.0398 
     18 CA         -0.3701  -22.7105  -47.6373 C.3       11 UNK         0.1400 
     19 N           0.0844  -22.3458  -46.2928 N.am      11 UNK        -0.5000 
     20 C           0.4189  -23.2337  -45.3472 C.2       10 UNK         0.5000 
     21 O           0.3839  -24.4516  -45.5171 O.2       10 UNK        -0.5000 
     22 CA          0.8119  -22.6743  -43.9680 C.3       10 UNK         0.1400 
     23 CB          2.2185  -22.0577  -43.9985 C.3       10 UNK        -0.1800 
     24 N          -0.1511  -21.6938  -43.4664 N.am      10 UNK        -0.5000 
     25 C          -1.4288  -21.9735  -43.1706 C.2       9 UNK         0.5000 
     26 O          -1.9248  -23.0958  -43.2671 O.2       9 UNK        -0.5000 
     27 CA         -2.3140  -20.7927  -42.7350 C.3       9 UNK         0.1400 
     28 CB         -2.1155  -20.4760  -41.2452 C.3       9 UNK        -0.1800 
     29 N          -2.0668  -19.5902  -43.5283 N.am      9 UNK        -0.5000 
     30 C          -2.3175  -19.4825  -44.8407 C.2       8 UNK         0.5000 
     31 O          -2.8103  -20.3753  -45.5258 O.2       8 UNK        -0.5000 
     32 CA         -1.8777  -18.1760  -45.5137 C.3       8 UNK         0.1400 
     33 CB         -2.8918  -17.0576  -45.2278 C.3       8 UNK        -0.1800 
     34 N          -0.5366  -17.7728  -45.0887 N.am      8 UNK        -0.5000 
     35 C           0.5726  -18.4952  -45.3134 C.2       7 UNK         0.5000 
     36 O           0.5753  -19.5661  -45.9185 O.2       7 UNK        -0.5000 
     37 CA          1.8951  -17.9605  -44.7419 C.3       7 UNK         0.1400 
     38 CB          2.6016  -17.0685  -45.7736 C.3       7 UNK        -0.1800 
     39 N           1.7067  -17.2319  -43.4876 N.am      7 UNK        -0.5000 
     40 C           1.2869  -17.8023  -42.3463 C.2       6 UNK         0.5000 
     41 O           1.0610  -19.0089  -42.2373 O.2       6 UNK        -0.5000 
     42 CA          1.0425  -16.8791  -41.1344 C.3       6 UNK         0.1400 
     43 CB          2.2601  -16.8917  -40.1986 C.3       6 UNK        -0.1800 
     44 N           0.7387  -15.4944  -41.5016 N.am      6 UNK        -0.5000 
     45 C          -0.3369  -15.0999  -42.1978 C.2       5 UNK         0.5000 
     46 O          -1.2388  -15.8643  -42.5394 O.2       5 UNK        -0.5000 
     47 CA         -0.3931  -13.6188  -42.6265 C.3       5 UNK         0.1400 
     48 CB         -1.2802  -12.8126  -41.6669 C.3       5 UNK        -0.1800 
     49 N           0.9146  -12.9601  -42.7333 N.am      5 UNK        -0.5000 
     50 C           1.9178  -13.3463  -43.5325 C.2       4 UNK         0.5000 
     51 O           1.8798  -14.3637  -44.2241 O.2       4 UNK        -0.5000 
     52 CA          3.1635  -12.4423  -43.5536 C.3       4 UNK         0.1400 
     53 CB          4.3160  -13.0485  -44.3751 C.3       4 UNK        -0.1800 
     54 N           2.8402  -11.1277  -44.1009 N.am      4 UNK        -0.5000 
     55 C           2.3003  -10.1085  -43.4208 C.2       3 UNK         0.5000 
     56 O           1.9987  -10.1705  -42.2280 O.2       3 UNK        -0.5000 
     57 CA          2.0276   -8.8216  -44.2144 C.3       3 UNK         0.1400 
     58 CB          3.3417   -8.1065  -44.5681 C.3       3 UNK        -0.1800 
     59 N           1.3001   -9.1317  -45.4432 N.am      3 UNK        -0.5000 
     60 C          -0.0156   -8.9494  -45.6204 C.2       2 UNK         0.5000 
     61 O          -0.7518   -8.4150  -44.7900 O.2       2 UNK        -0.5000 
     62 CA         -0.6223   -9.4536  -46.9473 C.3       2 UNK         0.1400 
     63 CB         -0.6790   -8.3160  -47.9783 C.3       2 UNK        -0.1800 
     64 N           0.1021  -10.5859  -47.5286 N.am      2 UNK        -0.5000 
     65 C           0.2014  -11.8000  -46.9670 C.2       1 UNK         0.5000 
     66 O          -0.3804  -12.1067  -45.9267 O.2       1 UNK        -0.5000 
     67 C          -1.7598  -23.3926  -47.6222 C.2       11 UNK         0.5000 
     68 O          -1.9805  -24.3228  -48.4005 O.2       11 UNK        -0.5000 
     69 N          -2.6595  -22.9747  -46.7178 N.am      12 UNK        -0.5000 
     70 CA         -3.9528  -23.6265  -46.4872 C.3       12 UNK         0.1400 
     71 CB         -4.8272  -22.7765  -45.5551 C.3       12 UNK        -0.1800 
     72 C          -3.8154  -25.0614  -45.9485 C.2       12 UNK         0.5000 
     73 O          -4.5508  -25.9450  -46.3875 O.2       12 UNK        -0.5000 
     74 N          -2.8601  -25.2780  -45.0346 N.am      13 UNK        -0.5000 
     75 CA         -2.5060  -26.6024  -44.5250 C.3       13 UNK         0.1400 
     76 CB         -1.6074  -26.4551  -43.2877 C.3       13 UNK        -0.1800 
     77 C          -1.8303  -27.4826  -45.5939 C.2       13 UNK         0.5000 
     78 O          -2.0796  -28.6884  -45.6290 O.2       13 UNK        -0.5000 
     79 N          -0.9944  -26.8680  -46.4427 N.am      14 UNK        -0.5000 
     80 CA         -0.2646  -27.5355  -47.5184 C.3       14 UNK         0.1400 
     81 CB          0.8336  -26.6083  -48.0606 C.3       14 UNK        -0.1800 
     82 C          -1.1679  -28.0250  -48.6639 C.2       14 UNK         0.5000 
     83 O          -0.9679  -29.1467  -49.1338 O.2       14 UNK        -0.5000 
     84 N          -2.1256  -27.1952  -49.1048 N.am      15 UNK        -0.5000 
     85 CA         -2.9853  -27.5131  -50.2477 C.3       15 UNK         0.1400 
     86 CB         -2.2487  -27.2111  -51.5661 C.3       15 UNK        -0.1800 
     87 C          -4.3465  -26.8044  -50.2217 C.2       15 UNK         0.5000 
     88 O          -5.3489  -27.4408  -50.5504 O.2       15 UNK        -0.5000 
     89 N          -4.3653  -25.5032  -49.8998 N.am      16 UNK        -0.5000 
     90 CA         -5.4899  -24.5571  -50.0105 C.3       16 UNK         0.1400 
     91 CB         -6.7073  -24.9796  -49.1658 C.3       16 UNK        -0.1800 
     92 C          -5.8959  -24.2312  -51.4633 C.2       16 UNK         0.5000 
     93 O          -6.0257  -23.0532  -51.8023 O.2       16 UNK        -0.5000 
     94 N          -6.0509  -25.2609  -52.3035 N.am      17 UNK        -0.5000 
     95 CA         -6.1757  -25.1466  -53.7544 C.3       17 UNK         0.1400 
     96 CB         -6.6276  -26.4984  -54.3260 C.3       17 UNK        -0.1800 
     97 C          -4.8340  -24.7152  -54.3743 C.2       17 UNK         0.5000 
     98 O          -3.7843  -25.1971  -53.9443 O.2       17 UNK        -0.5000 
     99 N          -4.8931  -23.8125  -55.3624 N.am      18 UNK        -0.5000 
    100 CA        -3.7803  -23.1355  -56.0477 C.3       18 UNK         0.1400 
    101 CB        -2.8155  -24.1288  -56.7243 C.3       18 UNK        -0.1800 
    102 C         -3.0301  -22.1290  -55.1519 C.2       18 UNK         0.5000 
    103 O         -2.8973  -20.9695  -55.5379 O.2       18 UNK        -0.5000 
    104 N         -2.6107  -22.5633  -53.9612 N.am      19 UNK        -0.5000 
    105 CA        -2.0842  -21.7419  -52.8786 C.3       19 UNK         0.1400 
    106 CB        -0.5559  -21.8789  -52.8193 C.3       19 UNK        -0.1800 
    107 C         -2.7427  -22.2586  -51.5920 C.2       19 UNK         0.5000 
    108 O         -2.7561  -23.4717  -51.4024 O.2       19 UNK        -0.5000 
    109 N         -3.2955  -21.4225  -50.7013 N.am      20 UNK        -0.5000 
    110 CA        -3.2149  -19.9623  -50.6131 C.3       20 UNK         0.1400 
    111 CB        -3.4945  -19.5698  -49.1509 C.3       20 UNK        -0.1800 
    112 C         -4.1607  -19.1908  -51.5566 C.2       20 UNK         0.5000 
    113 O         -4.1911  -17.9626  -51.4806 O.2       20 UNK        -0.5000 
    114 N         -4.9025  -19.8909  -52.4306 N.am      21 UNK        -0.5000 
    115 CA        -5.8440  -19.3185  -53.4072 C.3       21 UNK         0.1400 
    116 CB        -6.4617  -20.4541  -54.2372 C.3       21 UNK        -0.1800 
    117 C         -5.2632  -18.2227  -54.3337 C.2       21 UNK         0.5000 
    118 O         -6.0150  -17.3623  -54.7931 O.2       21 UNK        -0.5000 
    119 N         -3.9438  -18.2490  -54.5580 N.am      22 UNK        -0.5000 
    120 CA        -3.1412  -17.1803  -55.1756 C.3       22 UNK         0.1400 
    121 C         -3.1198  -15.8223  -54.4093 C.2       22 UNK         0.5000 
    122 N         -3.5134  -15.7512  -53.1435 N.am      22 UNK        -0.7600 
    123 O         -2.7447  -14.8047  -54.9854 O.2       22 UNK        -0.5000 
    124 C124       -1.6984  -17.6612  -55.5014 C.3       23 UNK        -0.0398 
    125 S125       -0.8789  -18.5489  -54.1279 S.3       23 UNK        -0.2404 
    126 C126        0.1262  -17.2687  -53.3248 C.3       23 UNK        -0.0205 
    127 H127        4.1417   -9.8118  -49.1504 H         1 UNK         0.0600 
    128 H128        4.0174  -11.3390  -50.0297 H         1 UNK         0.0600 
    129 H129        5.1785  -11.1723  -48.7091 H         1 UNK         0.0600 
    130 H130        2.2223  -12.4963  -49.4392 H         1 UNK         0.3000 
    131 H131        1.6481  -13.3659  -46.8603 H         1 UNK         0.0600 
    132 H132       -0.3700  -13.3548  -49.1653 H         1 UNK         0.0800 
    133 H133        1.0130  -14.4181  -49.1421 H         1 UNK         0.0800 
    134 H134       -2.0930  -15.2366  -49.3195 H         1 UNK         0.0800 
    135 H135       -2.2706  -16.5748  -48.2174 H         1 UNK         0.0800 
    136 H136       -1.2785  -15.8993  -51.4449 H         1 UNK         0.1150 
    137 H137        1.5608  -19.0861  -51.8636 H         1 UNK         0.1150 
    138 H138        0.1064  -17.9958  -47.9858 H         1 UNK         0.1150 
    139 H139        2.8422  -19.5863  -49.6069 H         1 UNK         0.0800 
    140 H140        1.9230  -19.5320  -48.1319 H         1 UNK         0.0800 
    141 H141       -1.0446  -21.6219  -49.4113 H         1 UNK         0.0800 
    142 H142       -0.5306  -20.5769  -48.1218 H         1 UNK         0.0800 
    143 H143        0.3159  -23.4769  -48.0017 H         1 UNK         0.0600 
    144 H144        0.1662  -21.3513  -46.0898 H         1 UNK         0.3000 
    145 H145        0.8274  -23.5094  -43.2645 H         1 UNK         0.0600 
    146 H146        2.5051  -21.6777  -43.0176 H         1 UNK         0.0600 
    147 H147        2.9609  -22.8014  -44.2903 H         1 UNK         0.0600 
    148 H148        2.2865  -21.2347  -44.7091 H         1 UNK         0.0600 
    149 H149        0.1812  -20.7456  -43.3404 H         1 UNK         0.3000 
    150 H150       -3.3557  -21.0840  -42.8838 H         1 UNK         0.0600 
    151 H151       -2.3251  -21.3522  -40.6304 H         1 UNK         0.0600 
    152 H152       -2.7865  -19.6816  -40.9181 H         1 UNK         0.0600 
    153 H153       -1.0938  -20.1619  -41.0300 H         1 UNK         0.0600 
    154 H154       -1.6261  -18.8130  -43.0575 H         1 UNK         0.3000 
    155 H155       -1.8493  -18.3473  -46.5911 H         1 UNK         0.0600 
    156 H156       -3.8638  -17.3006  -45.6587 H         1 UNK         0.0600 
    157 H157       -2.5768  -16.1069  -45.6546 H         1 UNK         0.0600 
    158 H158       -3.0402  -16.9068  -44.1585 H         1 UNK         0.0600 
    159 H159       -0.4644  -16.9165  -44.5562 H         1 UNK         0.3000 
    160 H160        2.5420  -18.8154  -44.5365 H         1 UNK         0.0600 
    161 H161        1.9753  -16.2296  -46.0784 H         1 UNK         0.0600 
    162 H162        2.8451  -17.6334  -46.6740 H         1 UNK         0.0600 
    163 H163        3.5340  -16.6650  -45.3785 H         1 UNK         0.0600 
    164 H164        1.8303  -16.2247  -43.5313 H         1 UNK         0.3000 
    165 H165        0.1847  -17.2775  -40.5887 H         1 UNK         0.0600 
    166 H166        2.0713  -16.3092  -39.2967 H         1 UNK         0.0600 
    167 H167        2.4994  -17.9082  -39.8829 H         1 UNK         0.0600 
    168 H168        3.1459  -16.4820  -40.6855 H         1 UNK         0.0600 
    169 H169        1.4309  -14.7992  -41.2649 H         1 UNK         0.3000 
    170 H170       -0.8505  -13.5925  -43.6176 H         1 UNK         0.0600 
    171 H171       -2.2729  -13.2572  -41.5845 H         1 UNK         0.0600 
    172 H172       -0.8532  -12.7714  -40.6642 H         1 UNK         0.0600 
    173 H173       -1.4123  -11.7892  -42.0192 H         1 UNK         0.0600 
    174 H174        1.0300  -12.0910  -42.2253 H         1 UNK         0.3000 
    175 H175        3.5106  -12.3310  -42.5243 H         1 UNK         0.0600 
    176 H176        4.0348  -13.1946  -45.4189 H         1 UNK         0.0600 
    177 H177        5.1960  -12.4056  -44.3535 H         1 UNK         0.0600 
    178 H178        4.6122  -14.0194  -43.9761 H         1 UNK         0.0600 
    179 H179        3.0186  -11.0116  -45.0967 H         1 UNK         0.3000 
    180 H180        1.4431   -8.1527  -43.5793 H         1 UNK         0.0600 
    181 H181        3.9745   -8.7134  -45.2170 H         1 UNK         0.0600 
    182 H182        3.9154   -7.8772  -43.6692 H         1 UNK         0.0600 
    183 H183        3.1483   -7.1636  -45.0797 H         1 UNK         0.0600 
    184 H184        1.8227   -9.6248  -46.1587 H         1 UNK         0.3000 
    185 H185       -1.6437   -9.7790  -46.7393 H         1 UNK         0.0600 
    186 H186       -1.2360   -7.4630  -47.5883 H         1 UNK         0.0600 
    187 H187        0.3186   -7.9631  -48.2432 H         1 UNK         0.0600 
    188 H188       -1.1772   -8.6365  -48.8934 H         1 UNK         0.0600 
    189 H189        0.6151  -10.4090  -48.3798 H         1 UNK         0.3000 
    190 H190       -2.4570  -22.1611  -46.1432 H         1 UNK         0.3000 
    191 H191       -4.4644  -23.6891  -47.4456 H         1 UNK         0.0600 
    192 H192       -5.0360  -21.8005  -45.9931 H         1 UNK         0.0600 
    193 H193       -5.7878  -23.2595  -45.3718 H         1 UNK         0.0600 
    194 H194       -4.3494  -22.6181  -44.5885 H         1 UNK         0.0600 
    195 H195       -2.3346  -24.4902  -44.6686 H         1 UNK         0.3000 
    196 H196       -3.4254  -27.1037  -44.2149 H         1 UNK         0.0600 
    197 H197       -1.3462  -27.4307  -42.8761 H         1 UNK         0.0600 
    198 H198       -2.1110  -25.8936  -42.5006 H         1 UNK         0.0600 
    199 H199       -0.6771  -25.9376  -43.5226 H         1 UNK         0.0600 
    200 H200       -0.7849  -25.8871  -46.2901 H         1 UNK         0.3000 
    201 H201        0.2260  -28.4108  -47.0874 H         1 UNK         0.0600 
    202 H202        1.5032  -26.2773  -47.2668 H         1 UNK         0.0600 
    203 H203        0.4130  -25.7253  -48.5401 H         1 UNK         0.0600 
    204 H204        1.4422  -27.1225  -48.8053 H         1 UNK         0.0600 
    205 H205       -2.2262  -26.2773  -48.6815 H         1 UNK         0.3000 
    206 H206       -3.2089  -28.5821  -50.2257 H         1 UNK         0.0600 
    207 H207       -1.3502  -27.8188  -51.6712 H         1 UNK         0.0600 
    208 H208       -2.8840  -27.4226  -52.4273 H         1 UNK         0.0600 
    209 H209       -1.9540  -26.1627  -51.6281 H         1 UNK         0.0600 
    210 H210       -3.4701  -25.0555  -49.7286 H         1 UNK         0.3000 
    211 H211       -5.1180  -23.6217  -49.5942 H         1 UNK         0.0600 
    212 H212       -7.1819  -25.8827  -49.5490 H         1 UNK         0.0600 
    213 H213       -7.4647  -24.1950  -49.1635 H         1 UNK         0.0600 
    214 H214       -6.4288  -25.1629  -48.1292 H         1 UNK         0.0600 
    215 H215       -5.8919  -26.1902  -51.9280 H         1 UNK         0.3000 
    216 H216       -6.9370  -24.3967  -53.9795 H         1 UNK         0.0600 
    217 H217       -6.7461  -26.4450  -55.4089 H         1 UNK         0.0600 
    218 H218       -7.5874  -26.8023  -53.9079 H         1 UNK         0.0600 
    219 H219       -5.9042  -27.2867  -54.1124 H         1 UNK         0.0600 
    220 H220       -5.8091  -23.4860  -55.6371 H         1 UNK         0.3000 
    221 H221       -4.2457  -22.5527  -56.8444 H         1 UNK         0.0600 
    222 H222       -2.2569  -24.7218  -56.0001 H         1 UNK         0.0600 
    223 H223       -3.3519  -24.8157  -57.3788 H         1 UNK         0.0600 
    224 H224       -2.0852  -23.5988  -57.3368 H         1 UNK         0.0600 
    225 H225       -2.8144  -23.5280  -53.7047 H         1 UNK         0.3000 
    226 H226       -2.3439  -20.7011  -53.0478 H         1 UNK         0.0600 
    227 H227       -0.0993  -21.6167  -53.7737 H         1 UNK         0.0600 
    228 H228       -0.1414  -21.2074  -52.0682 H         1 UNK         0.0600 
    229 H229       -0.2468  -22.8940  -52.5668 H         1 UNK         0.0600 
    230 H230       -3.7735  -21.8497  -49.9243 H         1 UNK         0.3000 
    231 H231       -2.1952  -19.6547  -50.8553 H         1 UNK         0.0600 
    232 H232       -4.5125  -19.8259  -48.8545 H         1 UNK         0.0600 
    233 H233       -3.3732  -18.4975  -49.0006 H         1 UNK         0.0600 
    234 H234       -2.8162  -20.0669  -48.4593 H         1 UNK         0.0600 
    235 H235       -4.8838  -20.9003  -52.3729 H         1 UNK         0.3000 
    236 H236       -6.6448  -18.8502  -52.8318 H         1 UNK         0.0600 
    237 H237       -6.9623  -21.1842  -53.6012 H         1 UNK         0.0600 
    238 H238       -7.2070  -20.0679  -54.9336 H         1 UNK         0.0600 
    239 H239       -5.7082  -20.9772  -54.8237 H         1 UNK         0.0600 
    240 H240       -3.4095  -19.0291  -54.2036 H         1 UNK         0.3000 
    241 H241       -3.6222  -16.9564  -56.1294 H         1 UNK         0.0600 
    242 H242       -3.5111  -14.8589  -52.6780 H         1 UNK         0.3800 
    243 H243       -3.8023  -16.5825  -52.6320 H         1 UNK         0.3800 
    244 H244       -1.7473  -18.3604  -56.3372 H         1 UNK         0.0800 
    245 H245       -1.0657  -16.8429  -55.8498 H         1 UNK         0.0800 
    246 H246       -0.2594  -16.2777  -53.5680 H         1 UNK         0.0800 
    247 H247        1.1442  -17.3092  -53.7146 H         1 UNK         0.0800 
@<TRIPOS>BOND
     1    1    2 1    
     2    1  127 1    
     3    1  128 1    
     4    1  129 1    
     5    2    3 2    
     6    2    4 am   BACKBONE|DICT|INTERRES
     7    4    5 1    
     8    4  130 1    
     9    5    6 1    
    10    5   65 1    
    11    5  131 1    
    12    6    7 1    
    13    6  132 1    
    14    6  133 1    
    15    7    8 1    
    16    8    9 1    
    17    8  134 1    
    18    8  135 1    
    19    9   10 ar   
    20    9   14 ar   
    21   10   11 ar   
    22   10  136 1    
    23   11   12 ar   
    24   11  126 1    
    25   12   13 ar   
    26   12  137 1    
    27   13   14 ar   
    28   13   15 1    
    29   14  138 1    
    30   15   16 1    
    31   15  139 1    
    32   15  140 1    
    33   16   17 1    
    34   17   18 1    
    35   17  141 1    
    36   17  142 1    
    37   18   19 1    
    38   18   67 1    
    39   18  143 1    
    40   19   20 am   BACKBONE|DICT|INTERRES
    41   19  144 1    
    42   20   21 2    
    43   20   22 1    
    44   22   23 1    
    45   22   24 1    
    46   22  145 1    
    47   23  146 1    
    48   23  147 1    
    49   23  148 1    
    50   24   25 am   BACKBONE|DICT|INTERRES
    51   24  149 1    
    52   25   26 2    
    53   25   27 1    
    54   27   28 1    
    55   27   29 1    
    56   27  150 1    
    57   28  151 1    
    58   28  152 1    
    59   28  153 1    
    60   29   30 am   BACKBONE|DICT|INTERRES
    61   29  154 1    
    62   30   31 2    
    63   30   32 1    
    64   32   33 1    
    65   32   34 1    
    66   32  155 1    
    67   33  156 1    
    68   33  157 1    
    69   33  158 1    
    70   34   35 am   BACKBONE|DICT|INTERRES
    71   34  159 1    
    72   35   36 2    
    73   35   37 1    
    74   37   38 1    
    75   37   39 1    
    76   37  160 1    
    77   38  161 1    
    78   38  162 1    
    79   38  163 1    
    80   39   40 am   BACKBONE|DICT|INTERRES
    81   39  164 1    
    82   40   41 2    
    83   40   42 1    
    84   42   43 1    
    85   42   44 1    
    86   42  165 1    
    87   43  166 1    
    88   43  167 1    
    89   43  168 1    
    90   44   45 am   BACKBONE|DICT|INTERRES
    91   44  169 1    
    92   45   46 2    
    93   45   47 1    
    94   47   48 1    
    95   47   49 1    
    96   47  170 1    
    97   48  171 1    
    98   48  172 1    
    99   48  173 1    
   100   49   50 am   BACKBONE|DICT|INTERRES
   101   49  174 1    
   102   50   51 2    
   103   50   52 1    
   104   52   53 1    
   105   52   54 1    
   106   52  175 1    
   107   53  176 1    
   108   53  177 1    
   109   53  178 1    
   110   54   55 am   BACKBONE|DICT|INTERRES
   111   54  179 1    
   112   55   56 2    
   113   55   57 1    
   114   57   58 1    
   115   57   59 1    
   116   57  180 1    
   117   58  181 1    
   118   58  182 1    
   119   58  183 1    
   120   59   60 am   BACKBONE|DICT|INTERRES
   121   59  184 1    
   122   60   61 2    
   123   60   62 1    
   124   62   63 1    
   125   62   64 1    
   126   62  185 1    
   127   63  186 1    
   128   63  187 1    
   129   63  188 1    
   130   64   65 am   BACKBONE|DICT|INTERRES
   131   64  189 1    
   132   65   66 2    
   133   67   68 2    
   134   67   69 am   BACKBONE|DICT|INTERRES
   135   69   70 1    
   136   69  190 1    
   137   70   71 1    
   138   70   72 1    
   139   70  191 1    
   140   71  192 1    
   141   71  193 1    
   142   71  194 1    
   143   72   73 2    
   144   72   74 am   BACKBONE|DICT|INTERRES
   145   74   75 1    
   146   74  195 1    
   147   75   76 1    
   148   75   77 1    
   149   75  196 1    
   150   76  197 1    
   151   76  198 1    
   152   76  199 1    
   153   77   78 2    
   154   77   79 am   BACKBONE|DICT|INTERRES
   155   79   80 1    
   156   79  200 1    
   157   80   81 1    
   158   80   82 1    
   159   80  201 1    
   160   81  202 1    
   161   81  203 1    
   162   81  204 1    
   163   82   83 2    
   164   82   84 am   BACKBONE|DICT|INTERRES
   165   84   85 1    
   166   84  205 1    
   167   85   86 1    
   168   85   87 1    
   169   85  206 1    
   170   86  207 1    
   171   86  208 1    
   172   86  209 1    
   173   87   88 2    
   174   87   89 am   BACKBONE|DICT|INTERRES
   175   89   90 1    
   176   89  210 1    
   177   90   91 1    
   178   90   92 1    
   179   90  211 1    
   180   91  212 1    
   181   91  213 1    
   182   91  214 1    
   183   92   93 2    
   184   92   94 am   BACKBONE|DICT|INTERRES
   185   94   95 1    
   186   94  215 1    
   187   95   96 1    
   188   95   97 1    
   189   95  216 1    
   190   96  217 1    
   191   96  218 1    
   192   96  219 1    
   193   97   98 2    
   194   97   99 am   BACKBONE|DICT|INTERRES
   195   99  100 1    
   196   99  220 1    
   197  100  101 1    
   198  100  102 1    
   199  100  221 1    
   200  101  222 1    
   201  101  223 1    
   202  101  224 1    
   203  102  103 2    
   204  102  104 am   BACKBONE|DICT|INTERRES
   205  104  105 1    
   206  104  225 1    
   207  105  106 1    
   208  105  107 1    
   209  105  226 1    
   210  106  227 1    
   211  106  228 1    
   212  106  229 1    
   213  107  108 2    
   214  107  109 am   BACKBONE|DICT|INTERRES
   215  109  110 1    
   216  109  230 1    
   217  110  111 1    
   218  110  112 1    
   219  110  231 1    
   220  111  232 1    
   221  111  233 1    
   222  111  234 1    
   223  112  113 2    
   224  112  114 am   BACKBONE|DICT|INTERRES
   225  114  115 1    
   226  114  235 1    
   227  115  116 1    
   228  115  117 1    
   229  115  236 1    
   230  116  237 1    
   231  116  238 1    
   232  116  239 1    
   233  117  118 2    
   234  117  119 am   BACKBONE|DICT|INTERRES
   235  119  120 1    
   236  119  240 1    
   237  120  121 1    
   238  120  124 1    
   239  120  241 1    
   240  121  122 am   BACKBONE|DICT|INTERRES
   241  121  123 2    
   242  122  242 1    
   243  122  243 1    
   244  124  125 1    
   245  124  244 1    
   246  124  245 1    
   247  125  126 1    
   248  126  246 1    
   249  126  247 1    
@<TRIPOS>SUBSTRUCTURE
     1 UNK         1 GROUP             0       ****    0 ROOT    
