@<TRIPOS>MOLECULE
3R540
247   249    1
SMALL
USER_CHARGES


@<TRIPOS>ATOM
      1 CA         -1.9283   -9.9048  -47.6852 C.3       0 UNK        -0.1800 
      2 C          -2.0473  -11.4161  -47.5493 C.2       0 UNK         0.5000 
      3 O          -3.0156  -11.9022  -46.9642 O.2       0 UNK        -0.5000 
      4 N          -1.0639  -12.1563  -48.0798 N.am      1 UNK        -0.5000 
      5 CA         -0.9704  -13.6229  -48.0644 C.3       1 UNK         0.1400 
      6 C6         -2.0396  -14.3173  -48.9532 C.3       23 UNK        -0.0398 
      7 S7         -1.9553  -13.8010  -50.7025 S.3       23 UNK        -0.2404 
      8 C8         -0.9577  -15.1356  -51.4503 C.3       23 UNK        -0.0205 
      9 C9         -1.5512  -16.5301  -51.2724 C.ar      23 UNK        -0.0193 
     10 C10        -2.9130  -16.7687  -51.4876 C.ar      23 UNK        -0.1150 
     11 C11        -3.4470  -18.0490  -51.3199 C.ar      23 UNK        -0.0193 
     12 C12        -2.6086  -19.0967  -50.9313 C.ar      23 UNK        -0.1150 
     13 C13        -1.2417  -18.8814  -50.7403 C.ar      23 UNK        -0.0193 
     14 C14        -0.7209  -17.5950  -50.9083 C.ar      23 UNK        -0.1150 
     15 C15        -0.3189  -20.0425  -50.3965 C.3       23 UNK        -0.0205 
     16 S16         0.3575  -19.9127  -48.7119 S.3       23 UNK        -0.2404 
     17 C17        -1.0721  -20.4161  -47.6955 C.3       23 UNK        -0.0398 
     18 CA         -0.8891  -21.8215  -47.0690 C.3       11 UNK         0.1400 
     19 N           0.3219  -21.9157  -46.2508 N.am      11 UNK        -0.5000 
     20 C           0.8366  -23.0372  -45.7310 C.2       10 UNK         0.5000 
     21 O           0.2451  -24.1156  -45.7012 O.2       10 UNK        -0.5000 
     22 CA          2.2562  -22.9350  -45.1525 C.3       10 UNK         0.1400 
     23 CB          3.2485  -22.3417  -46.1688 C.3       10 UNK        -0.1800 
     24 N           2.2354  -22.1041  -43.9568 N.am      10 UNK        -0.5000 
     25 C           2.3976  -22.5540  -42.7064 C.2       9 UNK         0.5000 
     26 O           2.7270  -23.7093  -42.4351 O.2       9 UNK        -0.5000 
     27 CA          2.1437  -21.5633  -41.5492 C.3       9 UNK         0.1400 
     28 CB          3.4681  -21.1824  -40.8688 C.3       9 UNK        -0.1800 
     29 N           1.4416  -20.3356  -41.9309 N.am      9 UNK        -0.5000 
     30 C           0.2111  -20.2631  -42.4566 C.2       8 UNK         0.5000 
     31 O          -0.5031  -21.2408  -42.6768 O.2       8 UNK        -0.5000 
     32 CA         -0.2651  -18.8646  -42.8869 C.3       8 UNK         0.1400 
     33 CB         -0.8322  -18.1057  -41.6808 C.3       8 UNK        -0.1800 
     34 N           0.7912  -18.0704  -43.5228 N.am      8 UNK        -0.5000 
     35 C           1.4642  -18.4325  -44.6268 C.2       7 UNK         0.5000 
     36 O           1.2551  -19.4773  -45.2407 O.2       7 UNK        -0.5000 
     37 CA          2.5892  -17.5007  -45.0986 C.3       7 UNK         0.1400 
     38 CB          2.0207  -16.3127  -45.8821 C.3       7 UNK        -0.1800 
     39 N           3.3788  -17.0159  -43.9694 N.am      7 UNK        -0.5000 
     40 C           4.3292  -17.7349  -43.3563 C.2       6 UNK         0.5000 
     41 O           4.6967  -18.8477  -43.7332 O.2       6 UNK        -0.5000 
     42 CA          4.9620  -17.1156  -42.0957 C.3       6 UNK         0.1400 
     43 CB          6.1848  -16.2642  -42.4689 C.3       6 UNK        -0.1800 
     44 N           4.0240  -16.2973  -41.3246 N.am      6 UNK        -0.5000 
     45 C           2.9468  -16.7739  -40.6850 C.2       5 UNK         0.5000 
     46 O           2.6336  -17.9637  -40.6664 O.2       5 UNK        -0.5000 
     47 CA          2.0442  -15.7394  -39.9875 C.3       5 UNK         0.1400 
     48 CB          2.5329  -15.4771  -38.5554 C.3       5 UNK        -0.1800 
     49 N           1.9446  -14.4664  -40.7083 N.am      5 UNK        -0.5000 
     50 C           1.4316  -14.3272  -41.9373 C.2       4 UNK         0.5000 
     51 O           1.0414  -15.2735  -42.6269 O.2       4 UNK        -0.5000 
     52 CA          1.3834  -12.9007  -42.5068 C.3       4 UNK         0.1400 
     53 CB          2.4397  -12.7278  -43.6090 C.3       4 UNK        -0.1800 
     54 N           0.0591  -12.6470  -43.0636 N.am      4 UNK        -0.5000 
     55 C          -0.9998  -12.2358  -42.3488 C.2       3 UNK         0.5000 
     56 O          -0.9287  -11.8654  -41.1763 O.2       3 UNK        -0.5000 
     57 CA         -2.3773  -12.2730  -43.0478 C.3       3 UNK         0.1400 
     58 CB         -2.6765  -10.9236  -43.7167 C.3       3 UNK        -0.1800 
     59 N          -2.4563  -13.3383  -44.0485 N.am      3 UNK        -0.5000 
     60 C          -2.3767  -14.6447  -43.7573 C.2       2 UNK         0.5000 
     61 O          -2.5404  -15.0808  -42.6182 O.2       2 UNK        -0.5000 
     62 CA         -2.0141  -15.6258  -44.8971 C.3       2 UNK         0.1400 
     63 CB         -3.0159  -16.7893  -44.9844 C.3       2 UNK        -0.1800 
     64 N          -1.8711  -15.0233  -46.2275 N.am      2 UNK        -0.5000 
     65 C          -0.9332  -14.1419  -46.6081 C.2       1 UNK         0.5000 
     66 O          -0.0782  -13.6952  -45.8417 O.2       1 UNK        -0.5000 
     67 C          -2.1527  -22.2400  -46.3005 C.2       11 UNK         0.5000 
     68 O          -2.8587  -23.1460  -46.7421 O.2       11 UNK        -0.5000 
     69 N          -2.4085  -21.5878  -45.1587 N.am      12 UNK        -0.5000 
     70 CA         -3.5923  -21.8372  -44.3344 C.3       12 UNK         0.1400 
     71 CB         -3.8241  -20.6564  -43.3788 C.3       12 UNK        -0.1800 
     72 C          -3.4984  -23.1668  -43.5676 C.2       12 UNK         0.5000 
     73 O          -4.5118  -23.8486  -43.4163 O.2       12 UNK        -0.5000 
     74 N          -2.2833  -23.5216  -43.1278 N.am      13 UNK        -0.5000 
     75 CA         -1.9738  -24.7646  -42.4225 C.3       13 UNK         0.1400 
     76 CB         -0.5235  -24.7162  -41.9235 C.3       13 UNK        -0.1800 
     77 C          -2.2117  -26.0201  -43.2812 C.2       13 UNK         0.5000 
     78 O          -2.8247  -26.9742  -42.8005 O.2       13 UNK        -0.5000 
     79 N          -1.7424  -25.9935  -44.5367 N.am      14 UNK        -0.5000 
     80 CA         -1.9365  -27.0780  -45.5024 C.3       14 UNK         0.1400 
     81 CB         -0.8209  -27.0137  -46.5574 C.3       14 UNK        -0.1800 
     82 C          -3.3131  -27.0325  -46.1922 C.2       14 UNK         0.5000 
     83 O          -3.7148  -28.0343  -46.7854 O.2       14 UNK        -0.5000 
     84 N          -3.9842  -25.8712  -46.1346 N.am      15 UNK        -0.5000 
     85 CA         -5.1815  -25.4940  -46.8956 C.3       15 UNK         0.1400 
     86 CB         -6.4022  -26.3397  -46.4777 C.3       15 UNK        -0.1800 
     87 C          -4.9031  -25.5143  -48.4145 C.2       15 UNK         0.5000 
     88 O          -5.6915  -26.0542  -49.1932 O.2       15 UNK        -0.5000 
     89 N          -3.7489  -24.9526  -48.7900 N.am      16 UNK        -0.5000 
     90 CA         -3.2103  -24.9322  -50.1435 C.3       16 UNK         0.1400 
     91 CB         -1.7122  -25.2692  -50.0763 C.3       16 UNK        -0.1800 
     92 C          -3.4137  -23.5486  -50.7739 C.2       16 UNK         0.5000 
     93 O          -3.2721  -22.5327  -50.0895 O.2       16 UNK        -0.5000 
     94 N          -3.7069  -23.5409  -52.0779 N.am      17 UNK        -0.5000 
     95 CA         -3.7898  -22.3397  -52.9050 C.3       17 UNK         0.1400 
     96 CB         -4.7151  -22.6301  -54.0979 C.3       17 UNK        -0.1800 
     97 C          -2.3967  -21.9083  -53.3999 C.2       17 UNK         0.5000 
     98 O          -1.4517  -22.7021  -53.3745 O.2       17 UNK        -0.5000 
     99 N          -2.3073  -20.6618  -53.8753 N.am      18 UNK        -0.5000 
    100 CA        -1.1304  -20.1090  -54.5451 C.3       18 UNK         0.1400 
    101 CB        -1.3067  -18.5861  -54.6572 C.3       18 UNK        -0.1800 
    102 C         -0.9413  -20.7066  -55.9523 C.2       18 UNK         0.5000 
    103 O         -1.8753  -21.2859  -56.5118 O.2       18 UNK        -0.5000 
    104 N          0.2348  -20.4679  -56.5487 N.am      19 UNK        -0.5000 
    105 CA         0.5396  -20.7999  -57.9477 C.3       19 UNK         0.1400 
    106 CB         2.0266  -20.5250  -58.2175 C.3       19 UNK        -0.1800 
    107 C         -0.3446  -20.0416  -58.9633 C.2       19 UNK         0.5000 
    108 O         -0.5847  -20.5441  -60.0611 O.2       19 UNK        -0.5000 
    109 N         -0.8431  -18.8659  -58.5562 N.am      20 UNK        -0.5000 
    110 CA        -1.8195  -18.0494  -59.2796 C.3       20 UNK         0.1400 
    111 CB        -1.6245  -16.5837  -58.8550 C.3       20 UNK        -0.1800 
    112 C         -3.2820  -18.4949  -59.0468 C.2       20 UNK         0.5000 
    113 O         -4.1923  -17.8316  -59.5425 O.2       20 UNK        -0.5000 
    114 N         -3.4917  -19.5677  -58.2670 N.am      21 UNK        -0.5000 
    115 CA        -4.7591  -20.1932  -57.8599 C.3       21 UNK         0.1400 
    116 CB        -5.6325  -20.5635  -59.0753 C.3       21 UNK        -0.1800 
    117 C         -5.5619  -19.4149  -56.7970 C.2       21 UNK         0.5000 
    118 O         -6.4700  -20.0009  -56.2086 O.2       21 UNK        -0.5000 
    119 N         -5.2140  -18.1411  -56.5665 N.am      22 UNK        -0.5000 
    120 CA        -5.7063  -17.1681  -55.5653 C.3       22 UNK         0.1400 
    121 C         -7.2435  -16.9419  -55.4051 C.2       22 UNK         0.5000 
    122 N         -8.1138  -17.7723  -55.9572 N.am      22 UNK        -0.7600 
    123 O         -7.6545  -15.9567  -54.7976 O.2       22 UNK        -0.5000 
    124 C124       -4.9728  -17.2725  -54.1986 C.3       23 UNK        -0.0398 
    125 S125       -5.2395  -18.8302  -53.2819 S.3       23 UNK        -0.2404 
    126 C126       -4.9257  -18.3048  -51.5670 C.3       23 UNK        -0.0205 
    127 H127       -1.9170   -9.4382  -46.7004 H         1 UNK         0.0600 
    128 H128       -2.7800   -9.5112  -48.2399 H         1 UNK         0.0600 
    129 H129       -1.0175   -9.6150  -48.2096 H         1 UNK         0.0600 
    130 H130       -0.2874  -11.6864  -48.5227 H         1 UNK         0.3000 
    131 H131        0.0075  -13.8680  -48.4814 H         1 UNK         0.0600 
    132 H132       -1.9360  -15.4014  -48.8996 H         1 UNK         0.0800 
    133 H133       -3.0456  -14.0907  -48.5967 H         1 UNK         0.0800 
    134 H134       -0.8526  -14.9380  -52.5177 H         1 UNK         0.0800 
    135 H135        0.0474  -15.0902  -51.0280 H         1 UNK         0.0800 
    136 H136       -3.5588  -15.9556  -51.7867 H         1 UNK         0.1150 
    137 H137       -3.0183  -20.0870  -50.8023 H         1 UNK         0.1150 
    138 H138        0.3368  -17.4286  -50.7593 H         1 UNK         0.1150 
    139 H139       -0.8308  -20.9996  -50.5125 H         1 UNK         0.0800 
    140 H140        0.5089  -20.0542  -51.1066 H         1 UNK         0.0800 
    141 H141       -1.9768  -20.3855  -48.3055 H         1 UNK         0.0800 
    142 H142       -1.2040  -19.6613  -46.9184 H         1 UNK         0.0800 
    143 H143       -0.7709  -22.5321  -47.8900 H         1 UNK         0.0600 
    144 H144        0.8372  -21.0458  -46.1392 H         1 UNK         0.3000 
    145 H145        2.5868  -23.9491  -44.9187 H         1 UNK         0.0600 
    146 H146        4.2665  -22.3727  -45.7804 H         1 UNK         0.0600 
    147 H147        3.0210  -21.3030  -46.4112 H         1 UNK         0.0600 
    148 H148        3.2385  -22.9080  -47.1009 H         1 UNK         0.0600 
    149 H149        1.9398  -21.1446  -44.0898 H         1 UNK         0.3000 
    150 H150        1.5207  -22.0818  -40.8180 H         1 UNK         0.0600 
    151 H151        4.0193  -22.0689  -40.5526 H         1 UNK         0.0600 
    152 H152        3.2945  -20.5766  -39.9793 H         1 UNK         0.0600 
    153 H153        4.1134  -20.6149  -41.5403 H         1 UNK         0.0600 
    154 H154        1.9324  -19.4663  -41.7425 H         1 UNK         0.3000 
    155 H155       -1.0634  -18.9890  -43.6206 H         1 UNK         0.0600 
    156 H156       -1.7221  -18.6020  -41.2922 H         1 UNK         0.0600 
    157 H157       -1.1148  -17.0902  -41.9490 H         1 UNK         0.0600 
    158 H158       -0.1107  -18.0440  -40.8666 H         1 UNK         0.0600 
    159 H159        1.0023  -17.1723  -43.0972 H         1 UNK         0.3000 
    160 H160        3.2358  -18.0684  -45.7715 H         1 UNK         0.0600 
    161 H161        1.3952  -15.6895  -45.2461 H         1 UNK         0.0600 
    162 H162        1.4093  -16.6495  -46.7205 H         1 UNK         0.0600 
    163 H163        2.8161  -15.6864  -46.2860 H         1 UNK         0.0600 
    164 H164        3.1022  -16.1316  -43.5679 H         1 UNK         0.3000 
    165 H165        5.2973  -17.9363  -41.4578 H         1 UNK         0.0600 
    166 H166        6.6880  -15.8849  -41.5792 H         1 UNK         0.0600 
    167 H167        6.9143  -16.8525  -43.0272 H         1 UNK         0.0600 
    168 H168        5.9078  -15.4105  -43.0888 H         1 UNK         0.0600 
    169 H169        4.2048  -15.3050  -41.2886 H         1 UNK         0.3000 
    170 H170        1.0405  -16.1641  -39.9296 H         1 UNK         0.0600 
    171 H171        3.5221  -15.0177  -38.5441 H         1 UNK         0.0600 
    172 H172        1.8496  -14.8180  -38.0197 H         1 UNK         0.0600 
    173 H173        2.5962  -16.4069  -37.9883 H         1 UNK         0.0600 
    174 H174        2.2501  -13.6435  -40.2087 H         1 UNK         0.3000 
    175 H175        1.5928  -12.1802  -41.7134 H         1 UNK         0.0600 
    176 H176        2.2889  -13.4309  -44.4290 H         1 UNK         0.0600 
    177 H177        2.4116  -11.7208  -44.0255 H         1 UNK         0.0600 
    178 H178        3.4443  -12.8908  -43.2172 H         1 UNK         0.0600 
    179 H179       -0.0878  -12.9834  -44.0113 H         1 UNK         0.3000 
    180 H180       -3.1386  -12.4586  -42.2873 H         1 UNK         0.0600 
    181 H181       -3.6525  -10.9298  -44.2025 H         1 UNK         0.0600 
    182 H182       -1.9279  -10.6756  -44.4697 H         1 UNK         0.0600 
    183 H183       -2.6827  -10.1173  -42.9822 H         1 UNK         0.0600 
    184 H184       -2.3586  -13.0552  -45.0149 H         1 UNK         0.3000 
    185 H185       -1.0433  -16.0468  -44.6286 H         1 UNK         0.0600 
    186 H186       -2.6926  -17.5356  -45.7105 H         1 UNK         0.0600 
    187 H187       -3.1132  -17.2980  -44.0245 H         1 UNK         0.0600 
    188 H188       -4.0084  -16.4426  -45.2740 H         1 UNK         0.0600 
    189 H189       -2.5716  -15.2974  -46.8998 H         1 UNK         0.3000 
    190 H190       -1.7328  -20.9262  -44.8066 H         1 UNK         0.3000 
    191 H191       -4.4589  -21.9004  -44.9966 H         1 UNK         0.0600 
    192 H192       -3.0197  -20.5526  -42.6518 H         1 UNK         0.0600 
    193 H193       -4.7501  -20.7900  -42.8185 H         1 UNK         0.0600 
    194 H194       -3.9092  -19.7171  -43.9251 H         1 UNK         0.0600 
    195 H195       -1.5240  -22.8564  -43.2361 H         1 UNK         0.3000 
    196 H196       -2.6309  -24.8246  -41.5525 H         1 UNK         0.0600 
    197 H197       -0.3571  -23.8572  -41.2734 H         1 UNK         0.0600 
    198 H198        0.1795  -24.6507  -42.7543 H         1 UNK         0.0600 
    199 H199       -0.2750  -25.6115  -41.3526 H         1 UNK         0.0600 
    200 H200       -1.2059  -25.1921  -44.8574 H         1 UNK         0.3000 
    201 H201       -1.8557  -28.0361  -44.9848 H         1 UNK         0.0600 
    202 H202        0.1651  -27.0584  -46.0945 H         1 UNK         0.0600 
    203 H203       -0.8759  -26.0947  -47.1423 H         1 UNK         0.0600 
    204 H204       -0.8921  -27.8493  -47.2546 H         1 UNK         0.0600 
    205 H205       -3.5365  -25.1085  -45.6446 H         1 UNK         0.3000 
    206 H206       -5.3957  -24.4564  -46.6352 H         1 UNK         0.0600 
    207 H207       -6.5577  -26.2980  -45.3996 H         1 UNK         0.0600 
    208 H208       -7.3115  -25.9685  -46.9518 H         1 UNK         0.0600 
    209 H209       -6.2919  -27.3865  -46.7612 H         1 UNK         0.0600 
    210 H210       -3.2366  -24.4145  -48.0955 H         1 UNK         0.3000 
    211 H211       -3.7067  -25.6856  -50.7589 H         1 UNK         0.0600 
    212 H212       -1.1660  -24.5574  -49.4558 H         1 UNK         0.0600 
    213 H213       -1.2621  -25.2523  -51.0699 H         1 UNK         0.0600 
    214 H214       -1.5520  -26.2652  -49.6629 H         1 UNK         0.0600 
    215 H215       -3.7524  -24.4200  -52.5722 H         1 UNK         0.3000 
    216 H216       -4.2227  -21.5277  -52.3180 H         1 UNK         0.0600 
    217 H217       -4.8358  -21.7460  -54.7244 H         1 UNK         0.0600 
    218 H218       -5.7100  -22.9247  -53.7637 H         1 UNK         0.0600 
    219 H219       -4.3212  -23.4267  -54.7305 H         1 UNK         0.0600 
    220 H220       -3.1336  -20.0800  -53.8720 H         1 UNK         0.3000 
    221 H221       -0.2470  -20.3270  -53.9414 H         1 UNK         0.0600 
    222 H222       -2.1177  -18.3258  -55.3382 H         1 UNK         0.0600 
    223 H223       -1.5270  -18.1403  -53.6893 H         1 UNK         0.0600 
    224 H224       -0.3998  -18.1084  -55.0290 H         1 UNK         0.0600 
    225 H225        0.9575  -19.9831  -56.0357 H         1 UNK         0.3000 
    226 H226        0.3569  -21.8675  -58.0873 H         1 UNK         0.0600 
    227 H227        2.6633  -21.1153  -57.5581 H         1 UNK         0.0600 
    228 H228        2.2924  -20.7864  -59.2427 H         1 UNK         0.0600 
    229 H229        2.2747  -19.4728  -58.0723 H         1 UNK         0.0600 
    230 H230       -0.5714  -18.5309  -57.6441 H         1 UNK         0.3000 
    231 H231       -1.6243  -18.1240  -60.3513 H         1 UNK         0.0600 
    232 H232       -2.2883  -15.9198  -59.4103 H         1 UNK         0.0600 
    233 H233       -0.6044  -16.2504  -59.0473 H         1 UNK         0.0600 
    234 H234       -1.8297  -16.4409  -57.7932 H         1 UNK         0.0600 
    235 H235       -2.6771  -20.0314  -57.8793 H         1 UNK         0.3000 
    236 H236       -4.4713  -21.1293  -57.3790 H         1 UNK         0.0600 
    237 H237       -6.0378  -19.6823  -59.5729 H         1 UNK         0.0600 
    238 H238       -5.0657  -21.1359  -59.8096 H         1 UNK         0.0600 
    239 H239       -6.4802  -21.1781  -58.7699 H         1 UNK         0.0600 
    240 H240       -4.5086  -17.7723  -57.1871 H         1 UNK         0.3000 
    241 H241       -5.3770  -16.2189  -55.9901 H         1 UNK         0.0600 
    242 H242       -9.1034  -17.6109  -55.8595 H         1 UNK         0.3800 
    243 H243       -7.7675  -18.6534  -56.3240 H         1 UNK         0.3800 
    244 H244       -5.2617  -16.4351  -53.5614 H         1 UNK         0.0800 
    245 H245       -3.9010  -17.1545  -54.3525 H         1 UNK         0.0800 
    246 H246       -5.2799  -19.0851  -50.8916 H         1 UNK         0.0800 
    247 H247       -5.5140  -17.4154  -51.3363 H         1 UNK         0.0800 
@<TRIPOS>BOND
     1    1    2 1    
     2    1  127 1    
     3    1  128 1    
     4    1  129 1    
     5    2    3 2    
     6    2    4 am   BACKBONE|DICT|INTERRES
     7    4    5 1    
     8    4  130 1    
     9    5    6 1    
    10    5   65 1    
    11    5  131 1    
    12    6    7 1    
    13    6  132 1    
    14    6  133 1    
    15    7    8 1    
    16    8    9 1    
    17    8  134 1    
    18    8  135 1    
    19    9   10 ar   
    20    9   14 ar   
    21   10   11 ar   
    22   10  136 1    
    23   11   12 ar   
    24   11  126 1    
    25   12   13 ar   
    26   12  137 1    
    27   13   14 ar   
    28   13   15 1    
    29   14  138 1    
    30   15   16 1    
    31   15  139 1    
    32   15  140 1    
    33   16   17 1    
    34   17   18 1    
    35   17  141 1    
    36   17  142 1    
    37   18   19 1    
    38   18   67 1    
    39   18  143 1    
    40   19   20 am   BACKBONE|DICT|INTERRES
    41   19  144 1    
    42   20   21 2    
    43   20   22 1    
    44   22   23 1    
    45   22   24 1    
    46   22  145 1    
    47   23  146 1    
    48   23  147 1    
    49   23  148 1    
    50   24   25 am   BACKBONE|DICT|INTERRES
    51   24  149 1    
    52   25   26 2    
    53   25   27 1    
    54   27   28 1    
    55   27   29 1    
    56   27  150 1    
    57   28  151 1    
    58   28  152 1    
    59   28  153 1    
    60   29   30 am   BACKBONE|DICT|INTERRES
    61   29  154 1    
    62   30   31 2    
    63   30   32 1    
    64   32   33 1    
    65   32   34 1    
    66   32  155 1    
    67   33  156 1    
    68   33  157 1    
    69   33  158 1    
    70   34   35 am   BACKBONE|DICT|INTERRES
    71   34  159 1    
    72   35   36 2    
    73   35   37 1    
    74   37   38 1    
    75   37   39 1    
    76   37  160 1    
    77   38  161 1    
    78   38  162 1    
    79   38  163 1    
    80   39   40 am   BACKBONE|DICT|INTERRES
    81   39  164 1    
    82   40   41 2    
    83   40   42 1    
    84   42   43 1    
    85   42   44 1    
    86   42  165 1    
    87   43  166 1    
    88   43  167 1    
    89   43  168 1    
    90   44   45 am   BACKBONE|DICT|INTERRES
    91   44  169 1    
    92   45   46 2    
    93   45   47 1    
    94   47   48 1    
    95   47   49 1    
    96   47  170 1    
    97   48  171 1    
    98   48  172 1    
    99   48  173 1    
   100   49   50 am   BACKBONE|DICT|INTERRES
   101   49  174 1    
   102   50   51 2    
   103   50   52 1    
   104   52   53 1    
   105   52   54 1    
   106   52  175 1    
   107   53  176 1    
   108   53  177 1    
   109   53  178 1    
   110   54   55 am   BACKBONE|DICT|INTERRES
   111   54  179 1    
   112   55   56 2    
   113   55   57 1    
   114   57   58 1    
   115   57   59 1    
   116   57  180 1    
   117   58  181 1    
   118   58  182 1    
   119   58  183 1    
   120   59   60 am   BACKBONE|DICT|INTERRES
   121   59  184 1    
   122   60   61 2    
   123   60   62 1    
   124   62   63 1    
   125   62   64 1    
   126   62  185 1    
   127   63  186 1    
   128   63  187 1    
   129   63  188 1    
   130   64   65 am   BACKBONE|DICT|INTERRES
   131   64  189 1    
   132   65   66 2    
   133   67   68 2    
   134   67   69 am   BACKBONE|DICT|INTERRES
   135   69   70 1    
   136   69  190 1    
   137   70   71 1    
   138   70   72 1    
   139   70  191 1    
   140   71  192 1    
   141   71  193 1    
   142   71  194 1    
   143   72   73 2    
   144   72   74 am   BACKBONE|DICT|INTERRES
   145   74   75 1    
   146   74  195 1    
   147   75   76 1    
   148   75   77 1    
   149   75  196 1    
   150   76  197 1    
   151   76  198 1    
   152   76  199 1    
   153   77   78 2    
   154   77   79 am   BACKBONE|DICT|INTERRES
   155   79   80 1    
   156   79  200 1    
   157   80   81 1    
   158   80   82 1    
   159   80  201 1    
   160   81  202 1    
   161   81  203 1    
   162   81  204 1    
   163   82   83 2    
   164   82   84 am   BACKBONE|DICT|INTERRES
   165   84   85 1    
   166   84  205 1    
   167   85   86 1    
   168   85   87 1    
   169   85  206 1    
   170   86  207 1    
   171   86  208 1    
   172   86  209 1    
   173   87   88 2    
   174   87   89 am   BACKBONE|DICT|INTERRES
   175   89   90 1    
   176   89  210 1    
   177   90   91 1    
   178   90   92 1    
   179   90  211 1    
   180   91  212 1    
   181   91  213 1    
   182   91  214 1    
   183   92   93 2    
   184   92   94 am   BACKBONE|DICT|INTERRES
   185   94   95 1    
   186   94  215 1    
   187   95   96 1    
   188   95   97 1    
   189   95  216 1    
   190   96  217 1    
   191   96  218 1    
   192   96  219 1    
   193   97   98 2    
   194   97   99 am   BACKBONE|DICT|INTERRES
   195   99  100 1    
   196   99  220 1    
   197  100  101 1    
   198  100  102 1    
   199  100  221 1    
   200  101  222 1    
   201  101  223 1    
   202  101  224 1    
   203  102  103 2    
   204  102  104 am   BACKBONE|DICT|INTERRES
   205  104  105 1    
   206  104  225 1    
   207  105  106 1    
   208  105  107 1    
   209  105  226 1    
   210  106  227 1    
   211  106  228 1    
   212  106  229 1    
   213  107  108 2    
   214  107  109 am   BACKBONE|DICT|INTERRES
   215  109  110 1    
   216  109  230 1    
   217  110  111 1    
   218  110  112 1    
   219  110  231 1    
   220  111  232 1    
   221  111  233 1    
   222  111  234 1    
   223  112  113 2    
   224  112  114 am   BACKBONE|DICT|INTERRES
   225  114  115 1    
   226  114  235 1    
   227  115  116 1    
   228  115  117 1    
   229  115  236 1    
   230  116  237 1    
   231  116  238 1    
   232  116  239 1    
   233  117  118 2    
   234  117  119 am   BACKBONE|DICT|INTERRES
   235  119  120 1    
   236  119  240 1    
   237  120  121 1    
   238  120  124 1    
   239  120  241 1    
   240  121  122 am   BACKBONE|DICT|INTERRES
   241  121  123 2    
   242  122  242 1    
   243  122  243 1    
   244  124  125 1    
   245  124  244 1    
   246  124  245 1    
   247  125  126 1    
   248  126  246 1    
   249  126  247 1    
@<TRIPOS>SUBSTRUCTURE
     1 UNK         1 GROUP             0       ****    0 ROOT    
