@<TRIPOS>MOLECULE
3R540
247   249    1
SMALL
USER_CHARGES


@<TRIPOS>ATOM
      1 CA          2.1897  -11.5218  -53.3368 C.3       0 UNK        -0.1800 
      2 C           1.4753  -11.9043  -52.0486 C.2       0 UNK         0.5000 
      3 O           0.2945  -11.5935  -51.8901 O.2       0 UNK        -0.5000 
      4 N           2.1914  -12.5618  -51.1262 N.am      1 UNK        -0.5000 
      5 CA          1.7480  -13.0775  -49.8204 C.3       1 UNK         0.1400 
      6 C6          0.5862  -14.1006  -49.9086 C.3       23 UNK        -0.0398 
      7 S7          1.1101  -15.6777  -50.6554 S.3       23 UNK        -0.2404 
      8 C8          0.8433  -16.8243  -49.2655 C.3       23 UNK        -0.0205 
      9 C9          1.6709  -18.0861  -49.4307 C.ar      23 UNK        -0.0193 
     10 C10         1.3013  -19.0601  -50.3616 C.ar      23 UNK        -0.1150 
     11 C11         2.0819  -20.2071  -50.5353 C.ar      23 UNK        -0.0193 
     12 C12         3.2244  -20.3875  -49.7498 C.ar      23 UNK        -0.1150 
     13 C13         3.5956  -19.4245  -48.8063 C.ar      23 UNK        -0.0193 
     14 C14         2.8171  -18.2750  -48.6549 C.ar      23 UNK        -0.1150 
     15 C15         4.8432  -19.6103  -47.9564 C.3       23 UNK        -0.0205 
     16 S16         4.4417  -20.2584  -46.3039 S.3       23 UNK        -0.2404 
     17 C17         3.9653  -21.9669  -46.7224 C.3       23 UNK        -0.0398 
     18 CA          3.9156  -22.8966  -45.4847 C.3       11 UNK         0.1400 
     19 N           2.9304  -22.4352  -44.5012 N.am      11 UNK        -0.5000 
     20 C           3.0450  -22.5447  -43.1710 C.2       10 UNK         0.5000 
     21 O           4.0457  -22.9847  -42.6048 O.2       10 UNK        -0.5000 
     22 CA          1.8188  -22.1289  -42.3311 C.3       10 UNK         0.1400 
     23 CB          1.9875  -20.6934  -41.8119 C.3       10 UNK        -0.1800 
     24 N           0.5553  -22.2345  -43.0696 N.am      10 UNK        -0.5000 
     25 C           0.0041  -23.3943  -43.4646 C.2       9 UNK         0.5000 
     26 O           0.4773  -24.4950  -43.1848 O.2       9 UNK        -0.5000 
     27 CA         -1.2338  -23.3304  -44.3842 C.3       9 UNK         0.1400 
     28 CB         -2.5257  -23.4940  -43.5713 C.3       9 UNK        -0.1800 
     29 N          -1.3170  -22.0995  -45.1694 N.am      9 UNK        -0.5000 
     30 C          -0.4054  -21.6778  -46.0564 C.2       8 UNK         0.5000 
     31 O           0.5653  -22.3570  -46.3934 O.2       8 UNK        -0.5000 
     32 CA         -0.5806  -20.2473  -46.6103 C.3       8 UNK         0.1400 
     33 CB         -1.1118  -20.2973  -48.0477 C.3       8 UNK        -0.1800 
     34 N          -1.4606  -19.3965  -45.7924 N.am      8 UNK        -0.5000 
     35 C          -1.1984  -19.0277  -44.5270 C.2       7 UNK         0.5000 
     36 O          -0.1931  -19.4011  -43.9216 O.2       7 UNK        -0.5000 
     37 CA         -2.2363  -18.1572  -43.7937 C.3       7 UNK         0.1400 
     38 CB         -1.5929  -17.2309  -42.7448 C.3       7 UNK        -0.1800 
     39 N          -3.0450  -17.3688  -44.7203 N.am      7 UNK        -0.5000 
     40 C          -4.3377  -17.0604  -44.5399 C.2       6 UNK         0.5000 
     41 O          -4.9855  -17.4183  -43.5550 O.2       6 UNK        -0.5000 
     42 CA         -5.0106  -16.1884  -45.6196 C.3       6 UNK         0.1400 
     43 CB         -6.1486  -15.3174  -45.0577 C.3       6 UNK        -0.1800 
     44 N          -4.0216  -15.3262  -46.2622 N.am      6 UNK        -0.5000 
     45 C          -3.8279  -15.2141  -47.5797 C.2       5 UNK         0.5000 
     46 O          -4.5649  -15.7170  -48.4267 O.2       5 UNK        -0.5000 
     47 CA         -2.5973  -14.4124  -48.0471 C.3       5 UNK         0.1400 
     48 CB         -3.0253  -13.1577  -48.8229 C.3       5 UNK        -0.1800 
     49 N          -1.6501  -14.0334  -46.9908 N.am      5 UNK        -0.5000 
     50 C          -0.8876  -14.8972  -46.3015 C.2       4 UNK         0.5000 
     51 O          -0.9861  -16.1173  -46.4280 O.2       4 UNK        -0.5000 
     52 CA          0.1644  -14.3308  -45.3272 C.3       4 UNK         0.1400 
     53 CB          1.5672  -14.8544  -45.6778 C.3       4 UNK        -0.1800 
     54 N           0.1918  -12.8673  -45.2899 N.am      4 UNK        -0.5000 
     55 C          -0.6120  -12.1127  -44.5263 C.2       3 UNK         0.5000 
     56 O          -1.4621  -12.5821  -43.7692 O.2       3 UNK        -0.5000 
     57 CA         -0.4630  -10.5803  -44.6330 C.3       3 UNK         0.1400 
     58 CB          0.4136  -10.0466  -43.4900 C.3       3 UNK        -0.1800 
     59 N           0.0922  -10.1235  -45.9094 N.am      3 UNK        -0.5000 
     60 C          -0.5048  -10.2632  -47.1003 C.2       2 UNK         0.5000 
     61 O          -1.6113  -10.7828  -47.2426 O.2       2 UNK        -0.5000 
     62 CA          0.2722   -9.7942  -48.3491 C.3       2 UNK         0.1400 
     63 CB          1.4710   -8.8711  -48.0358 C.3       2 UNK        -0.1800 
     64 N           0.7067  -10.9302  -49.1684 N.am      2 UNK        -0.5000 
     65 C           1.4425  -11.9796  -48.7772 C.2       1 UNK         0.5000 
     66 O           1.8815  -12.1108  -47.6337 O.2       1 UNK        -0.5000 
     67 C           3.6330  -24.3523  -45.9232 C.2       11 UNK         0.5000 
     68 O           4.3613  -24.8727  -46.7691 O.2       11 UNK        -0.5000 
     69 N           2.5789  -24.9746  -45.3686 N.am      12 UNK        -0.5000 
     70 CA          2.0436  -26.2971  -45.7037 C.3       12 UNK         0.1400 
     71 CB          3.0510  -27.4114  -45.3503 C.3       12 UNK        -0.1800 
     72 C           1.5233  -26.3794  -47.1546 C.2       12 UNK         0.5000 
     73 O           1.6476  -27.4249  -47.7949 O.2       12 UNK        -0.5000 
     74 N           0.9422  -25.2738  -47.6492 N.am      13 UNK        -0.5000 
     75 CA          0.3987  -25.1601  -49.0062 C.3       13 UNK         0.1400 
     76 CB          0.0534  -23.6899  -49.2857 C.3       13 UNK        -0.1800 
     77 C          -0.8422  -26.0400  -49.2506 C.2       13 UNK         0.5000 
     78 O          -1.0801  -26.4412  -50.3900 O.2       13 UNK        -0.5000 
     79 N          -1.6131  -26.2976  -48.1804 N.am      14 UNK        -0.5000 
     80 CA         -2.8712  -27.0581  -48.1502 C.3       14 UNK         0.1400 
     81 CB         -2.6194  -28.5447  -48.4779 C.3       14 UNK        -0.1800 
     82 C          -3.9882  -26.4320  -49.0166 C.2       14 UNK         0.5000 
     83 O          -4.8655  -27.1434  -49.5103 O.2       14 UNK        -0.5000 
     84 N          -3.9282  -25.1053  -49.1880 N.am      15 UNK        -0.5000 
     85 CA         -4.8818  -24.3064  -49.9503 C.3       15 UNK         0.1400 
     86 CB         -4.2676  -22.9196  -50.1872 C.3       15 UNK        -0.1800 
     87 C          -6.2263  -24.1744  -49.2165 C.2       15 UNK         0.5000 
     88 O          -6.2500  -24.1245  -47.9828 O.2       15 UNK        -0.5000 
     89 N          -7.3150  -24.0686  -49.9895 N.am      16 UNK        -0.5000 
     90 CA         -8.6708  -23.8202  -49.4966 C.3       16 UNK         0.1400 
     91 CB         -9.6536  -23.8406  -50.6773 C.3       16 UNK        -0.1800 
     92 C          -8.7414  -22.4797  -48.7451 C.2       16 UNK         0.5000 
     93 O          -8.3652  -21.4514  -49.3100 O.2       16 UNK        -0.5000 
     94 N          -9.1482  -22.5334  -47.4691 N.am      17 UNK        -0.5000 
     95 CA         -9.1781  -21.4209  -46.5085 C.3       17 UNK         0.1400 
     96 CB        -10.2488  -20.3860  -46.9143 C.3       17 UNK        -0.1800 
     97 C          -7.7953  -20.7721  -46.2561 C.2       17 UNK         0.5000 
     98 O          -7.7351  -19.6147  -45.8384 O.2       17 UNK        -0.5000 
     99 N          -6.7135  -21.5247  -46.5227 N.am      18 UNK        -0.5000 
    100 CA        -5.3066  -21.1160  -46.4538 C.3       18 UNK         0.1400 
    101 CB        -4.8929  -20.8513  -44.9916 C.3       18 UNK        -0.1800 
    102 C         -4.9565  -19.9499  -47.4072 C.2       18 UNK         0.5000 
    103 O         -4.0693  -19.1539  -47.0944 O.2       18 UNK        -0.5000 
    104 N         -5.6632  -19.8724  -48.5451 N.am      19 UNK        -0.5000 
    105 CA        -5.5194  -18.8400  -49.5722 C.3       19 UNK         0.1400 
    106 CB        -6.6170  -19.0446  -50.6279 C.3       19 UNK        -0.1800 
    107 C         -4.1354  -18.8143  -50.2511 C.2       19 UNK         0.5000 
    108 O         -3.4237  -19.8208  -50.2584 O.2       19 UNK        -0.5000 
    109 N         -3.8076  -17.6702  -50.8659 N.am      20 UNK        -0.5000 
    110 CA        -2.5791  -17.3941  -51.6167 C.3       20 UNK         0.1400 
    111 CB        -2.4768  -15.8742  -51.8421 C.3       20 UNK        -0.1800 
    112 C         -2.4686  -18.1783  -52.9454 C.2       20 UNK         0.5000 
    113 O         -2.3429  -17.5767  -54.0140 O.2       20 UNK        -0.5000 
    114 N         -2.4928  -19.5142  -52.8624 N.am      21 UNK        -0.5000 
    115 CA        -2.4081  -20.4523  -53.9884 C.3       21 UNK         0.1400 
    116 CB        -2.5996  -21.8806  -53.4570 C.3       21 UNK        -0.1800 
    117 C         -1.1028  -20.3489  -54.8048 C.2       21 UNK         0.5000 
    118 O         -1.0915  -20.7071  -55.9830 O.2       21 UNK        -0.5000 
    119 N         -0.0418  -19.8407  -54.1684 N.am      22 UNK        -0.5000 
    120 CA         1.2455  -19.5030  -54.7912 C.3       22 UNK         0.1400 
    121 C          1.2323  -18.1607  -55.5848 C.2       22 UNK         0.5000 
    122 N          0.1721  -17.3602  -55.5524 N.am      22 UNK        -0.7600 
    123 O          2.2072  -17.8417  -56.2599 O.2       22 UNK        -0.5000 
    124 C124        2.3939  -19.5212  -53.7497 C.3       23 UNK        -0.0398 
    125 S125        2.7184  -21.1871  -53.0708 S.3       23 UNK        -0.2404 
    126 C126        1.6884  -21.2527  -51.5678 C.3       23 UNK        -0.0205 
    127 H127        2.1767  -10.4395  -53.4658 H         1 UNK         0.0600 
    128 H128        1.6872  -11.9743  -54.1917 H         1 UNK         0.0600 
    129 H129        3.2286  -11.8525  -53.3390 H         1 UNK         0.0600 
    130 H130        3.1622  -12.7514  -51.3328 H         1 UNK         0.3000 
    131 H131        2.6140  -13.6097  -49.4222 H         1 UNK         0.0600 
    132 H132        0.2003  -14.3093  -48.9145 H         1 UNK         0.0800 
    133 H133       -0.2564  -13.7054  -50.4761 H         1 UNK         0.0800 
    134 H134        1.1100  -16.3373  -48.3273 H         1 UNK         0.0800 
    135 H135       -0.2153  -17.0752  -49.1885 H         1 UNK         0.0800 
    136 H136        0.4151  -18.9137  -50.9608 H         1 UNK         0.1150 
    137 H137        3.8271  -21.2754  -49.8796 H         1 UNK         0.1150 
    138 H138        3.1073  -17.5267  -47.9306 H         1 UNK         0.1150 
    139 H139        5.5543  -20.2725  -48.4527 H         1 UNK         0.0800 
    140 H140        5.3517  -18.6516  -47.8435 H         1 UNK         0.0800 
    141 H141        3.0009  -21.9444  -47.2317 H         1 UNK         0.0800 
    142 H142        4.6864  -22.3431  -47.4503 H         1 UNK         0.0800 
    143 H143        4.9076  -22.8966  -45.0283 H         1 UNK         0.0600 
    144 H144        2.0659  -22.0814  -44.8915 H         1 UNK         0.3000 
    145 H145        1.7639  -22.7984  -41.4701 H         1 UNK         0.0600 
    146 H146        1.1316  -20.3854  -41.2111 H         1 UNK         0.0600 
    147 H147        2.0978  -19.9806  -42.6300 H         1 UNK         0.0600 
    148 H148        2.8749  -20.6085  -41.1834 H         1 UNK         0.0600 
    149 H149        0.1352  -21.3575  -43.3600 H         1 UNK         0.3000 
    150 H150       -1.1616  -24.1655  -45.0839 H         1 UNK         0.0600 
    151 H151       -2.4994  -24.4063  -42.9738 H         1 UNK         0.0600 
    152 H152       -3.3957  -23.5623  -44.2246 H         1 UNK         0.0600 
    153 H153       -2.6809  -22.6580  -42.8881 H         1 UNK         0.0600 
    154 H154       -2.0729  -21.4721  -44.9455 H         1 UNK         0.3000 
    155 H155        0.4071  -19.7815  -46.6295 H         1 UNK         0.0600 
    156 H156       -0.4084  -20.8073  -48.7058 H         1 UNK         0.0600 
    157 H157       -1.2632  -19.2957  -48.4501 H         1 UNK         0.0600 
    158 H158       -2.0611  -20.8298  -48.1081 H         1 UNK         0.0600 
    159 H159       -2.3309  -19.1001  -46.2282 H         1 UNK         0.3000 
    160 H160       -2.8838  -18.8616  -43.2679 H         1 UNK         0.0600 
    161 H161       -0.8720  -16.5546  -43.2017 H         1 UNK         0.0600 
    162 H162       -1.0656  -17.8056  -41.9825 H         1 UNK         0.0600 
    163 H163       -2.3426  -16.6284  -42.2318 H         1 UNK         0.0600 
    164 H164       -2.5622  -17.0430  -45.5528 H         1 UNK         0.3000 
    165 H165       -5.4392  -16.8815  -46.3463 H         1 UNK         0.0600 
    166 H166       -6.6066  -14.7158  -45.8430 H         1 UNK         0.0600 
    167 H167       -6.9367  -15.9331  -44.6225 H         1 UNK         0.0600 
    168 H168       -5.7895  -14.6403  -44.2819 H         1 UNK         0.0600 
    169 H169       -3.3677  -14.8655  -45.6453 H         1 UNK         0.3000 
    170 H170       -2.0594  -15.0688  -48.7313 H         1 UNK         0.0600 
    171 H171       -3.5676  -12.4602  -48.1838 H         1 UNK         0.0600 
    172 H172       -2.1646  -12.6337  -49.2384 H         1 UNK         0.0600 
    173 H173       -3.6799  -13.4127  -49.6572 H         1 UNK         0.0600 
    174 H174       -1.5377  -13.0407  -46.8250 H         1 UNK         0.3000 
    175 H175       -0.0855  -14.7020  -44.3325 H         1 UNK         0.0600 
    176 H176        1.8638  -14.5769  -46.6890 H         1 UNK         0.0600 
    177 H177        2.3174  -14.4650  -44.9896 H         1 UNK         0.0600 
    178 H178        1.6059  -15.9429  -45.6147 H         1 UNK         0.0600 
    179 H179        0.8464  -12.4132  -45.9201 H         1 UNK         0.3000 
    180 H180       -1.4606  -10.1485  -44.5287 H         1 UNK         0.0600 
    181 H181        0.4589   -8.9574  -43.5023 H         1 UNK         0.0600 
    182 H182        1.4338  -10.4270  -43.5547 H         1 UNK         0.0600 
    183 H183        0.0137  -10.3426  -42.5192 H         1 UNK         0.0600 
    184 H184        1.0171   -9.7195  -45.8820 H         1 UNK         0.3000 
    185 H185       -0.4352   -9.2251  -48.9537 H         1 UNK         0.0600 
    186 H186        1.9186   -8.4951  -48.9558 H         1 UNK         0.0600 
    187 H187        1.1579   -8.0023  -47.4553 H         1 UNK         0.0600 
    188 H188        2.2556   -9.3822  -47.4770 H         1 UNK         0.0600 
    189 H189        0.3743  -10.9414  -50.1297 H         1 UNK         0.3000 
    190 H190        2.0584  -24.4751  -44.6588 H         1 UNK         0.3000 
    191 H191        1.1695  -26.4386  -45.0668 H         1 UNK         0.0600 
    192 H192        2.5948  -28.3966  -45.4533 H         1 UNK         0.0600 
    193 H193        3.3930  -27.3204  -44.3194 H         1 UNK         0.0600 
    194 H194        3.9274  -27.3898  -45.9984 H         1 UNK         0.0600 
    195 H195        0.9095  -24.4362  -47.0801 H         1 UNK         0.3000 
    196 H196        1.1756  -25.4713  -49.7077 H         1 UNK         0.0600 
    197 H197       -0.2465  -23.5485  -50.3248 H         1 UNK         0.0600 
    198 H198        0.9081  -23.0403  -49.0971 H         1 UNK         0.0600 
    199 H199       -0.7706  -23.3456  -48.6603 H         1 UNK         0.0600 
    200 H200       -1.3123  -25.9175  -47.2951 H         1 UNK         0.3000 
    201 H201       -3.2306  -27.0076  -47.1214 H         1 UNK         0.0600 
    202 H202       -2.3278  -28.6867  -49.5188 H         1 UNK         0.0600 
    203 H203       -3.5159  -29.1414  -48.3059 H         1 UNK         0.0600 
    204 H204       -1.8305  -28.9584  -47.8496 H         1 UNK         0.0600 
    205 H205       -3.1901  -24.6008  -48.7231 H         1 UNK         0.3000 
    206 H206       -5.0463  -24.7900  -50.9155 H         1 UNK         0.0600 
    207 H207       -3.3213  -22.9926  -50.7227 H         1 UNK         0.0600 
    208 H208       -4.9310  -22.2891  -50.7806 H         1 UNK         0.0600 
    209 H209       -4.0751  -22.3975  -49.2496 H         1 UNK         0.0600 
    210 H210       -7.2048  -24.0835  -50.9927 H         1 UNK         0.3000 
    211 H211       -8.9351  -24.6312  -48.8146 H         1 UNK         0.0600 
    212 H212       -9.4196  -23.0672  -51.4102 H         1 UNK         0.0600 
    213 H213      -10.6755  -23.6706  -50.3360 H         1 UNK         0.0600 
    214 H214       -9.6379  -24.8036  -51.1880 H         1 UNK         0.0600 
    215 H215       -9.4046  -23.4344  -47.0890 H         1 UNK         0.3000 
    216 H216       -9.4831  -21.8522  -45.5541 H         1 UNK         0.0600 
    217 H217      -10.3906  -19.6401  -46.1314 H         1 UNK         0.0600 
    218 H218      -11.2143  -20.8626  -47.0834 H         1 UNK         0.0600 
    219 H219       -9.9729  -19.8538  -47.8251 H         1 UNK         0.0600 
    220 H220       -6.8633  -22.4626  -46.8802 H         1 UNK         0.3000 
    221 H221       -4.7267  -21.9703  -46.8055 H         1 UNK         0.0600 
    222 H222       -3.8217  -20.6822  -44.9086 H         1 UNK         0.0600 
    223 H223       -5.3932  -19.9741  -44.5823 H         1 UNK         0.0600 
    224 H224       -5.1365  -21.7005  -44.3536 H         1 UNK         0.0600 
    225 H225       -6.3906  -20.5567  -48.7090 H         1 UNK         0.3000 
    226 H226       -5.6855  -17.8789  -49.0871 H         1 UNK         0.0600 
    227 H227       -7.6091  -18.9694  -50.1824 H         1 UNK         0.0600 
    228 H228       -6.5607  -18.2899  -51.4132 H         1 UNK         0.0600 
    229 H229       -6.5365  -20.0225  -51.1046 H         1 UNK         0.0600 
    230 H230       -4.4572  -16.8996  -50.7979 H         1 UNK         0.3000 
    231 H231       -1.7343  -17.6972  -50.9966 H         1 UNK         0.0600 
    232 H232       -1.5430  -15.6124  -52.3417 H         1 UNK         0.0600 
    233 H233       -2.4999  -15.3280  -50.9029 H         1 UNK         0.0600 
    234 H234       -3.2952  -15.5033  -52.4604 H         1 UNK         0.0600 
    235 H235       -2.6620  -19.9137  -51.9413 H         1 UNK         0.3000 
    236 H236       -3.2318  -20.2261  -54.6682 H         1 UNK         0.0600 
    237 H237       -1.8410  -22.1398  -52.7173 H         1 UNK         0.0600 
    238 H238       -3.5786  -21.9956  -52.9924 H         1 UNK         0.0600 
    239 H239       -2.5373  -22.6124  -54.2635 H         1 UNK         0.0600 
    240 H240       -0.1582  -19.5635  -53.2074 H         1 UNK         0.3000 
    241 H241        1.4669  -20.2732  -55.5326 H         1 UNK         0.0600 
    242 H242        0.1920  -16.5033  -56.0817 H         1 UNK         0.3800 
    243 H243       -0.6582  -17.5904  -55.0161 H         1 UNK         0.3800 
    244 H244        2.2033  -18.8079  -52.9483 H         1 UNK         0.0800 
    245 H245        3.3275  -19.1963  -54.2122 H         1 UNK         0.0800 
    246 H246        0.6345  -21.1632  -51.8316 H         1 UNK         0.0800 
    247 H247        1.8037  -22.2442  -51.1308 H         1 UNK         0.0800 
@<TRIPOS>BOND
     1    1    2 1    
     2    1  127 1    
     3    1  128 1    
     4    1  129 1    
     5    2    3 2    
     6    2    4 am   BACKBONE|DICT|INTERRES
     7    4    5 1    
     8    4  130 1    
     9    5    6 1    
    10    5   65 1    
    11    5  131 1    
    12    6    7 1    
    13    6  132 1    
    14    6  133 1    
    15    7    8 1    
    16    8    9 1    
    17    8  134 1    
    18    8  135 1    
    19    9   10 ar   
    20    9   14 ar   
    21   10   11 ar   
    22   10  136 1    
    23   11   12 ar   
    24   11  126 1    
    25   12   13 ar   
    26   12  137 1    
    27   13   14 ar   
    28   13   15 1    
    29   14  138 1    
    30   15   16 1    
    31   15  139 1    
    32   15  140 1    
    33   16   17 1    
    34   17   18 1    
    35   17  141 1    
    36   17  142 1    
    37   18   19 1    
    38   18   67 1    
    39   18  143 1    
    40   19   20 am   BACKBONE|DICT|INTERRES
    41   19  144 1    
    42   20   21 2    
    43   20   22 1    
    44   22   23 1    
    45   22   24 1    
    46   22  145 1    
    47   23  146 1    
    48   23  147 1    
    49   23  148 1    
    50   24   25 am   BACKBONE|DICT|INTERRES
    51   24  149 1    
    52   25   26 2    
    53   25   27 1    
    54   27   28 1    
    55   27   29 1    
    56   27  150 1    
    57   28  151 1    
    58   28  152 1    
    59   28  153 1    
    60   29   30 am   BACKBONE|DICT|INTERRES
    61   29  154 1    
    62   30   31 2    
    63   30   32 1    
    64   32   33 1    
    65   32   34 1    
    66   32  155 1    
    67   33  156 1    
    68   33  157 1    
    69   33  158 1    
    70   34   35 am   BACKBONE|DICT|INTERRES
    71   34  159 1    
    72   35   36 2    
    73   35   37 1    
    74   37   38 1    
    75   37   39 1    
    76   37  160 1    
    77   38  161 1    
    78   38  162 1    
    79   38  163 1    
    80   39   40 am   BACKBONE|DICT|INTERRES
    81   39  164 1    
    82   40   41 2    
    83   40   42 1    
    84   42   43 1    
    85   42   44 1    
    86   42  165 1    
    87   43  166 1    
    88   43  167 1    
    89   43  168 1    
    90   44   45 am   BACKBONE|DICT|INTERRES
    91   44  169 1    
    92   45   46 2    
    93   45   47 1    
    94   47   48 1    
    95   47   49 1    
    96   47  170 1    
    97   48  171 1    
    98   48  172 1    
    99   48  173 1    
   100   49   50 am   BACKBONE|DICT|INTERRES
   101   49  174 1    
   102   50   51 2    
   103   50   52 1    
   104   52   53 1    
   105   52   54 1    
   106   52  175 1    
   107   53  176 1    
   108   53  177 1    
   109   53  178 1    
   110   54   55 am   BACKBONE|DICT|INTERRES
   111   54  179 1    
   112   55   56 2    
   113   55   57 1    
   114   57   58 1    
   115   57   59 1    
   116   57  180 1    
   117   58  181 1    
   118   58  182 1    
   119   58  183 1    
   120   59   60 am   BACKBONE|DICT|INTERRES
   121   59  184 1    
   122   60   61 2    
   123   60   62 1    
   124   62   63 1    
   125   62   64 1    
   126   62  185 1    
   127   63  186 1    
   128   63  187 1    
   129   63  188 1    
   130   64   65 am   BACKBONE|DICT|INTERRES
   131   64  189 1    
   132   65   66 2    
   133   67   68 2    
   134   67   69 am   BACKBONE|DICT|INTERRES
   135   69   70 1    
   136   69  190 1    
   137   70   71 1    
   138   70   72 1    
   139   70  191 1    
   140   71  192 1    
   141   71  193 1    
   142   71  194 1    
   143   72   73 2    
   144   72   74 am   BACKBONE|DICT|INTERRES
   145   74   75 1    
   146   74  195 1    
   147   75   76 1    
   148   75   77 1    
   149   75  196 1    
   150   76  197 1    
   151   76  198 1    
   152   76  199 1    
   153   77   78 2    
   154   77   79 am   BACKBONE|DICT|INTERRES
   155   79   80 1    
   156   79  200 1    
   157   80   81 1    
   158   80   82 1    
   159   80  201 1    
   160   81  202 1    
   161   81  203 1    
   162   81  204 1    
   163   82   83 2    
   164   82   84 am   BACKBONE|DICT|INTERRES
   165   84   85 1    
   166   84  205 1    
   167   85   86 1    
   168   85   87 1    
   169   85  206 1    
   170   86  207 1    
   171   86  208 1    
   172   86  209 1    
   173   87   88 2    
   174   87   89 am   BACKBONE|DICT|INTERRES
   175   89   90 1    
   176   89  210 1    
   177   90   91 1    
   178   90   92 1    
   179   90  211 1    
   180   91  212 1    
   181   91  213 1    
   182   91  214 1    
   183   92   93 2    
   184   92   94 am   BACKBONE|DICT|INTERRES
   185   94   95 1    
   186   94  215 1    
   187   95   96 1    
   188   95   97 1    
   189   95  216 1    
   190   96  217 1    
   191   96  218 1    
   192   96  219 1    
   193   97   98 2    
   194   97   99 am   BACKBONE|DICT|INTERRES
   195   99  100 1    
   196   99  220 1    
   197  100  101 1    
   198  100  102 1    
   199  100  221 1    
   200  101  222 1    
   201  101  223 1    
   202  101  224 1    
   203  102  103 2    
   204  102  104 am   BACKBONE|DICT|INTERRES
   205  104  105 1    
   206  104  225 1    
   207  105  106 1    
   208  105  107 1    
   209  105  226 1    
   210  106  227 1    
   211  106  228 1    
   212  106  229 1    
   213  107  108 2    
   214  107  109 am   BACKBONE|DICT|INTERRES
   215  109  110 1    
   216  109  230 1    
   217  110  111 1    
   218  110  112 1    
   219  110  231 1    
   220  111  232 1    
   221  111  233 1    
   222  111  234 1    
   223  112  113 2    
   224  112  114 am   BACKBONE|DICT|INTERRES
   225  114  115 1    
   226  114  235 1    
   227  115  116 1    
   228  115  117 1    
   229  115  236 1    
   230  116  237 1    
   231  116  238 1    
   232  116  239 1    
   233  117  118 2    
   234  117  119 am   BACKBONE|DICT|INTERRES
   235  119  120 1    
   236  119  240 1    
   237  120  121 1    
   238  120  124 1    
   239  120  241 1    
   240  121  122 am   BACKBONE|DICT|INTERRES
   241  121  123 2    
   242  122  242 1    
   243  122  243 1    
   244  124  125 1    
   245  124  244 1    
   246  124  245 1    
   247  125  126 1    
   248  126  246 1    
   249  126  247 1    
@<TRIPOS>SUBSTRUCTURE
     1 UNK         1 GROUP             0       ****    0 ROOT    
