@<TRIPOS>MOLECULE
3R540
247   249    1
SMALL
USER_CHARGES


@<TRIPOS>ATOM
      1 CA          0.4119  -11.5211  -50.2899 C.3       0 UNK        -0.1800 
      2 C           0.6020  -12.2591  -48.9726 C.2       0 UNK         0.5000 
      3 O           0.3752  -11.6857  -47.9082 O.2       0 UNK        -0.5000 
      4 N           1.0009  -13.5348  -49.0409 N.am      1 UNK        -0.5000 
      5 CA          1.2430  -14.4216  -47.8938 C.3       1 UNK         0.1400 
      6 C6          2.3638  -15.4517  -48.2032 C.3       23 UNK        -0.0398 
      7 S7          2.1335  -16.4426  -49.7292 S.3       23 UNK        -0.2404 
      8 C8          1.3737  -17.9475  -49.0524 C.3       23 UNK        -0.0205 
      9 C9          1.4530  -19.1394  -49.9947 C.ar      23 UNK        -0.0193 
     10 C10         0.6034  -19.2179  -51.1010 C.ar      23 UNK        -0.1150 
     11 C11         0.6079  -20.3449  -51.9265 C.ar      23 UNK        -0.0193 
     12 C12         1.4947  -21.3903  -51.6535 C.ar      23 UNK        -0.1150 
     13 C13         2.3552  -21.3251  -50.5533 C.ar      23 UNK        -0.0193 
     14 C14         2.3311  -20.1959  -49.7276 C.ar      23 UNK        -0.1150 
     15 C15         3.3087  -22.4777  -50.2679 C.3       23 UNK        -0.0205 
     16 S16         2.4851  -23.8442  -49.3845 S.3       23 UNK        -0.2404 
     17 C17         2.3695  -23.1814  -47.6891 C.3       23 UNK        -0.0398 
     18 CA          2.7236  -24.2193  -46.5895 C.3       11 UNK         0.1400 
     19 N           3.2225  -23.5436  -45.3881 N.am      11 UNK        -0.5000 
     20 C           3.8190  -24.1287  -44.3410 C.2       10 UNK         0.5000 
     21 O           4.0851  -25.3292  -44.2827 O.2       10 UNK        -0.5000 
     22 CA          4.1397  -23.2128  -43.1462 C.3       10 UNK         0.1400 
     23 CB          5.4724  -22.4791  -43.3627 C.3       10 UNK        -0.1800 
     24 N           3.0776  -22.2312  -42.9117 N.am      10 UNK        -0.5000 
     25 C           1.9032  -22.5043  -42.3252 C.2       9 UNK         0.5000 
     26 O           1.5998  -23.6127  -41.8847 O.2       9 UNK        -0.5000 
     27 CA          0.8839  -21.3518  -42.2447 C.3       9 UNK         0.1400 
     28 CB          1.1513  -20.4711  -41.0152 C.3       9 UNK        -0.1800 
     29 N           0.8950  -20.5161  -43.4439 N.am      9 UNK        -0.5000 
     30 C           0.4264  -20.9044  -44.6385 C.2       8 UNK         0.5000 
     31 O          -0.1136  -21.9910  -44.8511 O.2       8 UNK        -0.5000 
     32 CA          0.6157  -19.9242  -45.8075 C.3       8 UNK         0.1400 
     33 CB         -0.6059  -19.0092  -45.9139 C.3       8 UNK        -0.1800 
     34 N           1.8191  -19.0979  -45.7046 N.am      8 UNK        -0.5000 
     35 C           3.0731  -19.5617  -45.6172 C.2       7 UNK         0.5000 
     36 O           3.3526  -20.7578  -45.6456 O.2       7 UNK        -0.5000 
     37 CA          4.2087  -18.5397  -45.4287 C.3       7 UNK         0.1400 
     38 CB          4.9457  -18.3237  -46.7594 C.3       7 UNK        -0.1800 
     39 N           3.8119  -17.2360  -44.8849 N.am      7 UNK        -0.5000 
     40 C           3.1379  -17.0090  -43.7477 C.2       6 UNK         0.5000 
     41 O           2.6482  -17.9017  -43.0514 O.2       6 UNK        -0.5000 
     42 CA          2.9647  -15.5424  -43.3210 C.3       6 UNK         0.1400 
     43 CB          3.5202  -14.5053  -44.3213 C.3       6 UNK        -0.1800 
     44 N           1.5493  -15.2905  -43.0855 N.am      6 UNK        -0.5000 
     45 C           1.0596  -14.4457  -42.1721 C.2       5 UNK         0.5000 
     46 O           1.7610  -13.7549  -41.4313 O.2       5 UNK        -0.5000 
     47 CA         -0.4726  -14.3451  -42.0684 C.3       5 UNK         0.1400 
     48 CB         -0.9742  -13.1016  -42.8176 C.3       5 UNK        -0.1800 
     49 N          -1.1670  -15.5302  -42.5794 N.am      5 UNK        -0.5000 
     50 C          -1.2559  -16.6956  -41.9183 C.2       4 UNK         0.5000 
     51 O          -0.7044  -16.8947  -40.8350 O.2       4 UNK        -0.5000 
     52 CA         -2.0893  -17.8288  -42.5639 C.3       4 UNK         0.1400 
     53 CB         -2.8070  -18.7071  -41.5184 C.3       4 UNK        -0.1800 
     54 N          -3.0383  -17.3741  -43.5891 N.am      4 UNK        -0.5000 
     55 C          -4.0555  -16.5142  -43.4305 C.2       3 UNK         0.5000 
     56 O          -4.3515  -15.9914  -42.3545 O.2       3 UNK        -0.5000 
     57 CA         -4.8624  -16.1760  -44.7017 C.3       3 UNK         0.1400 
     58 CB         -5.7263  -14.9084  -44.5402 C.3       3 UNK        -0.1800 
     59 N          -4.0554  -16.0724  -45.9261 N.am      3 UNK        -0.5000 
     60 C          -3.0052  -15.2682  -46.1457 C.2       2 UNK         0.5000 
     61 O          -2.4672  -14.5761  -45.2801 O.2       2 UNK        -0.5000 
     62 CA         -2.5540  -15.1839  -47.6169 C.3       2 UNK         0.1400 
     63 CB         -3.5419  -14.2990  -48.3982 C.3       2 UNK        -0.1800 
     64 N          -1.2079  -14.6590  -47.8485 N.am      2 UNK        -0.5000 
     65 C          -0.0428  -15.0900  -47.3448 C.2       1 UNK         0.5000 
     66 O           0.0590  -15.9908  -46.5112 O.2       1 UNK        -0.5000 
     67 C           1.5191  -25.1421  -46.2851 C.2       11 UNK         0.5000 
     68 O           1.2838  -26.0966  -47.0265 O.2       11 UNK        -0.5000 
     69 N           0.7782  -24.8257  -45.2091 N.am      12 UNK        -0.5000 
     70 CA         -0.5032  -25.4099  -44.7965 C.3       12 UNK         0.1400 
     71 CB         -0.3464  -26.8947  -44.4090 C.3       12 UNK        -0.1800 
     72 C          -1.6042  -25.1592  -45.8489 C.2       12 UNK         0.5000 
     73 O          -2.4407  -26.0272  -46.1039 O.2       12 UNK        -0.5000 
     74 N          -1.5566  -23.9658  -46.4539 N.am      13 UNK        -0.5000 
     75 CA         -2.4099  -23.5419  -47.5626 C.3       13 UNK         0.1400 
     76 CB         -1.5358  -22.7889  -48.5793 C.3       13 UNK        -0.1800 
     77 C          -3.6120  -22.6953  -47.0983 C.2       13 UNK         0.5000 
     78 O          -4.4986  -22.4252  -47.9103 O.2       13 UNK        -0.5000 
     79 N          -3.6326  -22.3100  -45.8110 N.am      14 UNK        -0.5000 
     80 CA         -4.6865  -21.5623  -45.1153 C.3       14 UNK         0.1400 
     81 CB         -5.9522  -22.4333  -44.9553 C.3       14 UNK        -0.1800 
     82 C          -4.9510  -20.1925  -45.7702 C.2       14 UNK         0.5000 
     83 O          -4.1394  -19.2839  -45.5924 O.2       14 UNK        -0.5000 
     84 N          -6.0537  -20.0707  -46.5269 N.am      15 UNK        -0.5000 
     85 CA         -6.4035  -18.9001  -47.3394 C.3       15 UNK         0.1400 
     86 CB         -7.7482  -19.1445  -48.0396 C.3       15 UNK        -0.1800 
     87 C          -5.3115  -18.5496  -48.3661 C.2       15 UNK         0.5000 
     88 O          -4.9790  -17.3730  -48.5215 O.2       15 UNK        -0.5000 
     89 N          -4.7259  -19.5950  -48.9673 N.am      16 UNK        -0.5000 
     90 CA         -3.5078  -19.5901  -49.7715 C.3       16 UNK         0.1400 
     91 CB         -2.3043  -19.3934  -48.8348 C.3       16 UNK        -0.1800 
     92 C          -3.5657  -18.5902  -50.9403 C.2       16 UNK         0.5000 
     93 O          -4.3997  -18.7632  -51.8258 O.2       16 UNK        -0.5000 
     94 N          -2.7133  -17.5543  -50.9176 N.am      17 UNK        -0.5000 
     95 CA         -2.5722  -16.5254  -51.9537 C.3       17 UNK         0.1400 
     96 CB         -1.4010  -15.5969  -51.5902 C.3       17 UNK        -0.1800 
     97 C          -3.8503  -15.7165  -52.2706 C.2       17 UNK         0.5000 
     98 O          -3.8963  -15.0648  -53.3140 O.2       17 UNK        -0.5000 
     99 N          -4.8755  -15.7964  -51.4081 N.am      18 UNK        -0.5000 
    100 CA        -6.2234  -15.2813  -51.6672 C.3       18 UNK         0.1400 
    101 CB        -7.0518  -15.3777  -50.3770 C.3       18 UNK        -0.1800 
    102 C         -6.9476  -16.0083  -52.8236 C.2       18 UNK         0.5000 
    103 O         -7.8266  -15.4172  -53.4518 O.2       18 UNK        -0.5000 
    104 N         -6.5618  -17.2613  -53.0925 N.am      19 UNK        -0.5000 
    105 CA        -7.0436  -18.0969  -54.1867 C.3       19 UNK         0.1400 
    106 CB        -8.3008  -18.8672  -53.7407 C.3       19 UNK        -0.1800 
    107 C         -5.8762  -19.0093  -54.5915 C.2       19 UNK         0.5000 
    108 O         -5.9198  -20.2148  -54.3472 O.2       19 UNK        -0.5000 
    109 N         -4.8222  -18.3794  -55.1315 N.am      20 UNK        -0.5000 
    110 CA        -3.4362  -18.8523  -55.2736 C.3       20 UNK         0.1400 
    111 CB        -2.5957  -17.6919  -55.8366 C.3       20 UNK        -0.1800 
    112 C         -3.1638  -20.1584  -56.0592 C.2       20 UNK         0.5000 
    113 O         -1.9990  -20.4651  -56.3211 O.2       20 UNK        -0.5000 
    114 N         -4.1967  -20.9363  -56.3951 N.am      21 UNK        -0.5000 
    115 CA        -4.1011  -22.2834  -56.9585 C.3       21 UNK         0.1400 
    116 CB        -5.3901  -22.5791  -57.7460 C.3       21 UNK        -0.1800 
    117 C         -3.8309  -23.3139  -55.8395 C.2       21 UNK         0.5000 
    118 O         -4.6468  -24.2067  -55.6021 O.2       21 UNK        -0.5000 
    119 N         -2.7037  -23.1371  -55.1401 N.am      22 UNK        -0.5000 
    120 CA        -2.3176  -23.8922  -53.9351 C.3       22 UNK         0.1400 
    121 C         -1.8276  -25.3470  -54.1980 C.2       22 UNK         0.5000 
    122 N         -1.5841  -25.7569  -55.4369 N.am      22 UNK        -0.7600 
    123 O         -1.6711  -26.1217  -53.2585 O.2       22 UNK        -0.5000 
    124 C124       -1.2885  -23.1160  -53.0698 C.3       23 UNK        -0.0398 
    125 S125       -1.8306  -21.4172  -52.6650 S.3       23 UNK        -0.2404 
    126 C126       -0.3599  -20.4331  -53.0971 C.3       23 UNK        -0.0205 
    127 H127        0.6257  -12.1600  -51.1472 H         1 UNK         0.0600 
    128 H128        1.0756  -10.6576  -50.3352 H         1 UNK         0.0600 
    129 H129       -0.6155  -11.1679  -50.3776 H         1 UNK         0.0600 
    130 H130        1.1690  -13.9564  -49.9443 H         1 UNK         0.3000 
    131 H131        1.6088  -13.8042  -47.0712 H         1 UNK         0.0600 
    132 H132        2.5335  -16.1110  -47.3517 H         1 UNK         0.0800 
    133 H133        3.3032  -14.9108  -48.3242 H         1 UNK         0.0800 
    134 H134        0.3310  -17.7380  -48.8175 H         1 UNK         0.0800 
    135 H135        1.8624  -18.1958  -48.1152 H         1 UNK         0.0800 
    136 H136       -0.0822  -18.4103  -51.3049 H         1 UNK         0.1150 
    137 H137        1.5068  -22.2650  -52.2874 H         1 UNK         0.1150 
    138 H138        2.9873  -20.1456  -48.8702 H         1 UNK         0.1150 
    139 H139        3.7002  -22.8608  -51.2114 H         1 UNK         0.0800 
    140 H140        4.1762  -22.1335  -49.7026 H         1 UNK         0.0800 
    141 H141        3.0632  -22.3438  -47.6304 H         1 UNK         0.0800 
    142 H142        1.3785  -22.7520  -47.5361 H         1 UNK         0.0800 
    143 H143        3.5361  -24.8513  -46.9543 H         1 UNK         0.0600 
    144 H144        3.1296  -22.5299  -45.3762 H         1 UNK         0.3000 
    145 H145        4.2386  -23.8407  -42.2580 H         1 UNK         0.0600 
    146 H146        5.7288  -21.8653  -42.4991 H         1 UNK         0.0600 
    147 H147        5.4417  -21.8297  -44.2382 H         1 UNK         0.0600 
    148 H148        6.2874  -23.1888  -43.5102 H         1 UNK         0.0600 
    149 H149        3.2264  -21.3060  -43.2872 H         1 UNK         0.3000 
    150 H150       -0.1111  -21.7901  -42.1402 H         1 UNK         0.0600 
    151 H151        1.1197  -21.0601  -40.0978 H         1 UNK         0.0600 
    152 H152        0.4027  -19.6841  -40.9229 H         1 UNK         0.0600 
    153 H153        2.1305  -19.9932  -41.0669 H         1 UNK         0.0600 
    154 H154        1.3542  -19.6151  -43.3664 H         1 UNK         0.3000 
    155 H155        0.6875  -20.5141  -46.7231 H         1 UNK         0.0600 
    156 H156       -1.5361  -19.5724  -45.8405 H         1 UNK         0.0600 
    157 H157       -0.6109  -18.4868  -46.8652 H         1 UNK         0.0600 
    158 H158       -0.6099  -18.2496  -45.1350 H         1 UNK         0.0600 
    159 H159        1.6742  -18.1002  -45.6513 H         1 UNK         0.3000 
    160 H160        4.9113  -18.9808  -44.7191 H         1 UNK         0.0600 
    161 H161        4.3056  -17.8545  -47.5068 H         1 UNK         0.0600 
    162 H162        5.2903  -19.2719  -47.1749 H         1 UNK         0.0600 
    163 H163        5.8251  -17.6933  -46.6268 H         1 UNK         0.0600 
    164 H164        4.1742  -16.4321  -45.3758 H         1 UNK         0.3000 
    165 H165        3.5112  -15.4396  -42.3813 H         1 UNK         0.0600 
    166 H166        3.3876  -13.4910  -43.9442 H         1 UNK         0.0600 
    167 H167        4.5897  -14.6414  -44.4861 H         1 UNK         0.0600 
    168 H168        3.0166  -14.5630  -45.2857 H         1 UNK         0.0600 
    169 H169        0.8994  -15.8433  -43.6267 H         1 UNK         0.3000 
    170 H170       -0.7259  -14.2269  -41.0127 H         1 UNK         0.0600 
    171 H171       -0.5471  -12.1919  -42.3938 H         1 UNK         0.0600 
    172 H172       -0.6991  -13.1306  -43.8727 H         1 UNK         0.0600 
    173 H173       -2.0591  -13.0123  -42.7556 H         1 UNK         0.0600 
    174 H174       -1.6536  -15.4211  -43.4631 H         1 UNK         0.3000 
    175 H175       -1.3706  -18.4734  -43.0668 H         1 UNK         0.0600 
    176 H176       -3.5013  -18.1273  -40.9098 H         1 UNK         0.0600 
    177 H177       -3.3687  -19.5087  -41.9981 H         1 UNK         0.0600 
    178 H178       -2.0929  -19.1761  -40.8408 H         1 UNK         0.0600 
    179 H179       -2.9389  -17.7922  -44.5069 H         1 UNK         0.3000 
    180 H180       -5.5415  -17.0154  -44.8467 H         1 UNK         0.0600 
    181 H181       -6.3136  -14.7152  -45.4380 H         1 UNK         0.0600 
    182 H182       -5.1141  -14.0273  -44.3440 H         1 UNK         0.0600 
    183 H183       -6.4283  -15.0122  -43.7120 H         1 UNK         0.0600 
    184 H184       -4.4028  -16.6040  -46.7174 H         1 UNK         0.3000 
    185 H185       -2.5794  -16.1896  -48.0334 H         1 UNK         0.0600 
    186 H186       -3.5276  -13.2707  -48.0348 H         1 UNK         0.0600 
    187 H187       -3.3164  -14.2773  -49.4626 H         1 UNK         0.0600 
    188 H188       -4.5647  -14.6626  -48.2982 H         1 UNK         0.0600 
    189 H189       -1.1528  -13.8746  -48.4796 H         1 UNK         0.3000 
    190 H190        1.0552  -24.0052  -44.6873 H         1 UNK         0.3000 
    191 H191       -0.8085  -24.8669  -43.9008 H         1 UNK         0.0600 
    192 H192       -1.2650  -27.2795  -43.9648 H         1 UNK         0.0600 
    193 H193        0.4490  -27.0273  -43.6756 H         1 UNK         0.0600 
    194 H194       -0.1158  -27.5201  -45.2717 H         1 UNK         0.0600 
    195 H195       -0.8751  -23.2933  -46.1164 H         1 UNK         0.3000 
    196 H196       -2.8211  -24.4183  -48.0677 H         1 UNK         0.0600 
    197 H197       -1.0208  -21.9433  -48.1244 H         1 UNK         0.0600 
    198 H198       -2.1285  -22.4150  -49.4141 H         1 UNK         0.0600 
    199 H199       -0.7749  -23.4465  -49.0002 H         1 UNK         0.0600 
    200 H200       -2.8324  -22.5571  -45.2464 H         1 UNK         0.3000 
    201 H201       -4.3067  -21.3499  -44.1147 H         1 UNK         0.0600 
    202 H202       -6.3624  -22.7544  -45.9132 H         1 UNK         0.0600 
    203 H203       -6.7355  -21.8940  -44.4210 H         1 UNK         0.0600 
    204 H204       -5.7319  -23.3313  -44.3781 H         1 UNK         0.0600 
    205 H205       -6.6454  -20.8821  -46.6299 H         1 UNK         0.3000 
    206 H206       -6.5204  -18.0470  -46.6706 H         1 UNK         0.0600 
    207 H207       -8.5427  -19.3245  -47.3152 H         1 UNK         0.0600 
    208 H208       -8.0426  -18.2786  -48.6336 H         1 UNK         0.0600 
    209 H209       -7.7044  -20.0035  -48.7105 H         1 UNK         0.0600 
    210 H210       -5.0644  -20.5197  -48.7270 H         1 UNK         0.3000 
    211 H211       -3.4332  -20.5829  -50.2154 H         1 UNK         0.0600 
    212 H212       -2.2637  -18.3870  -48.4243 H         1 UNK         0.0600 
    213 H213       -1.3674  -19.6020  -49.3452 H         1 UNK         0.0600 
    214 H214       -2.3670  -20.0756  -47.9896 H         1 UNK         0.0600 
    215 H215       -2.0922  -17.4774  -50.1278 H         1 UNK         0.3000 
    216 H216       -2.3046  -17.0453  -52.8745 H         1 UNK         0.0600 
    217 H217       -0.4565  -16.1390  -51.5664 H         1 UNK         0.0600 
    218 H218       -1.5381  -15.1290  -50.6179 H         1 UNK         0.0600 
    219 H219       -1.2885  -14.7980  -52.3244 H         1 UNK         0.0600 
    220 H220       -4.7612  -16.3563  -50.5721 H         1 UNK         0.3000 
    221 H221       -6.1362  -14.2281  -51.9418 H         1 UNK         0.0600 
    222 H222       -8.0559  -14.9788  -50.5260 H         1 UNK         0.0600 
    223 H223       -7.1552  -16.4109  -50.0447 H         1 UNK         0.0600 
    224 H224       -6.5947  -14.8087  -49.5682 H         1 UNK         0.0600 
    225 H225       -5.8101  -17.6761  -52.5445 H         1 UNK         0.3000 
    226 H226       -7.2966  -17.4772  -55.0495 H         1 UNK         0.0600 
    227 H227       -9.1146  -18.1848  -53.4956 H         1 UNK         0.0600 
    228 H228       -8.6560  -19.5266  -54.5333 H         1 UNK         0.0600 
    229 H229       -8.1044  -19.4820  -52.8613 H         1 UNK         0.0600 
    230 H230       -4.9376  -17.3909  -55.3024 H         1 UNK         0.3000 
    231 H231       -3.0842  -19.0491  -54.2601 H         1 UNK         0.0600 
    232 H232       -1.5310  -17.9291  -55.8264 H         1 UNK         0.0600 
    233 H233       -2.7231  -16.7818  -55.2511 H         1 UNK         0.0600 
    234 H234       -2.8722  -17.4656  -56.8670 H         1 UNK         0.0600 
    235 H235       -5.0941  -20.6840  -55.9939 H         1 UNK         0.3000 
    236 H236       -3.2643  -22.3278  -57.6587 H         1 UNK         0.0600 
    237 H237       -6.2718  -22.5403  -57.1048 H         1 UNK         0.0600 
    238 H238       -5.5316  -21.8596  -58.5526 H         1 UNK         0.0600 
    239 H239       -5.3536  -23.5707  -58.1987 H         1 UNK         0.0600 
    240 H240       -2.1094  -22.3556  -55.3906 H         1 UNK         0.3000 
    241 H241       -3.2205  -23.9974  -53.3304 H         1 UNK         0.0600 
    242 H242       -1.2722  -26.7022  -55.5961 H         1 UNK         0.3800 
    243 H243       -1.7141  -25.1331  -56.2171 H         1 UNK         0.3800 
    244 H244       -0.3275  -23.0837  -53.5840 H         1 UNK         0.0800 
    245 H245       -1.1101  -23.6366  -52.1271 H         1 UNK         0.0800 
    246 H246       -0.6873  -19.4327  -53.3835 H         1 UNK         0.0800 
    247 H247        0.1369  -20.8458  -53.9762 H         1 UNK         0.0800 
@<TRIPOS>BOND
     1    1    2 1    
     2    1  127 1    
     3    1  128 1    
     4    1  129 1    
     5    2    3 2    
     6    2    4 am   BACKBONE|DICT|INTERRES
     7    4    5 1    
     8    4  130 1    
     9    5    6 1    
    10    5   65 1    
    11    5  131 1    
    12    6    7 1    
    13    6  132 1    
    14    6  133 1    
    15    7    8 1    
    16    8    9 1    
    17    8  134 1    
    18    8  135 1    
    19    9   10 ar   
    20    9   14 ar   
    21   10   11 ar   
    22   10  136 1    
    23   11   12 ar   
    24   11  126 1    
    25   12   13 ar   
    26   12  137 1    
    27   13   14 ar   
    28   13   15 1    
    29   14  138 1    
    30   15   16 1    
    31   15  139 1    
    32   15  140 1    
    33   16   17 1    
    34   17   18 1    
    35   17  141 1    
    36   17  142 1    
    37   18   19 1    
    38   18   67 1    
    39   18  143 1    
    40   19   20 am   BACKBONE|DICT|INTERRES
    41   19  144 1    
    42   20   21 2    
    43   20   22 1    
    44   22   23 1    
    45   22   24 1    
    46   22  145 1    
    47   23  146 1    
    48   23  147 1    
    49   23  148 1    
    50   24   25 am   BACKBONE|DICT|INTERRES
    51   24  149 1    
    52   25   26 2    
    53   25   27 1    
    54   27   28 1    
    55   27   29 1    
    56   27  150 1    
    57   28  151 1    
    58   28  152 1    
    59   28  153 1    
    60   29   30 am   BACKBONE|DICT|INTERRES
    61   29  154 1    
    62   30   31 2    
    63   30   32 1    
    64   32   33 1    
    65   32   34 1    
    66   32  155 1    
    67   33  156 1    
    68   33  157 1    
    69   33  158 1    
    70   34   35 am   BACKBONE|DICT|INTERRES
    71   34  159 1    
    72   35   36 2    
    73   35   37 1    
    74   37   38 1    
    75   37   39 1    
    76   37  160 1    
    77   38  161 1    
    78   38  162 1    
    79   38  163 1    
    80   39   40 am   BACKBONE|DICT|INTERRES
    81   39  164 1    
    82   40   41 2    
    83   40   42 1    
    84   42   43 1    
    85   42   44 1    
    86   42  165 1    
    87   43  166 1    
    88   43  167 1    
    89   43  168 1    
    90   44   45 am   BACKBONE|DICT|INTERRES
    91   44  169 1    
    92   45   46 2    
    93   45   47 1    
    94   47   48 1    
    95   47   49 1    
    96   47  170 1    
    97   48  171 1    
    98   48  172 1    
    99   48  173 1    
   100   49   50 am   BACKBONE|DICT|INTERRES
   101   49  174 1    
   102   50   51 2    
   103   50   52 1    
   104   52   53 1    
   105   52   54 1    
   106   52  175 1    
   107   53  176 1    
   108   53  177 1    
   109   53  178 1    
   110   54   55 am   BACKBONE|DICT|INTERRES
   111   54  179 1    
   112   55   56 2    
   113   55   57 1    
   114   57   58 1    
   115   57   59 1    
   116   57  180 1    
   117   58  181 1    
   118   58  182 1    
   119   58  183 1    
   120   59   60 am   BACKBONE|DICT|INTERRES
   121   59  184 1    
   122   60   61 2    
   123   60   62 1    
   124   62   63 1    
   125   62   64 1    
   126   62  185 1    
   127   63  186 1    
   128   63  187 1    
   129   63  188 1    
   130   64   65 am   BACKBONE|DICT|INTERRES
   131   64  189 1    
   132   65   66 2    
   133   67   68 2    
   134   67   69 am   BACKBONE|DICT|INTERRES
   135   69   70 1    
   136   69  190 1    
   137   70   71 1    
   138   70   72 1    
   139   70  191 1    
   140   71  192 1    
   141   71  193 1    
   142   71  194 1    
   143   72   73 2    
   144   72   74 am   BACKBONE|DICT|INTERRES
   145   74   75 1    
   146   74  195 1    
   147   75   76 1    
   148   75   77 1    
   149   75  196 1    
   150   76  197 1    
   151   76  198 1    
   152   76  199 1    
   153   77   78 2    
   154   77   79 am   BACKBONE|DICT|INTERRES
   155   79   80 1    
   156   79  200 1    
   157   80   81 1    
   158   80   82 1    
   159   80  201 1    
   160   81  202 1    
   161   81  203 1    
   162   81  204 1    
   163   82   83 2    
   164   82   84 am   BACKBONE|DICT|INTERRES
   165   84   85 1    
   166   84  205 1    
   167   85   86 1    
   168   85   87 1    
   169   85  206 1    
   170   86  207 1    
   171   86  208 1    
   172   86  209 1    
   173   87   88 2    
   174   87   89 am   BACKBONE|DICT|INTERRES
   175   89   90 1    
   176   89  210 1    
   177   90   91 1    
   178   90   92 1    
   179   90  211 1    
   180   91  212 1    
   181   91  213 1    
   182   91  214 1    
   183   92   93 2    
   184   92   94 am   BACKBONE|DICT|INTERRES
   185   94   95 1    
   186   94  215 1    
   187   95   96 1    
   188   95   97 1    
   189   95  216 1    
   190   96  217 1    
   191   96  218 1    
   192   96  219 1    
   193   97   98 2    
   194   97   99 am   BACKBONE|DICT|INTERRES
   195   99  100 1    
   196   99  220 1    
   197  100  101 1    
   198  100  102 1    
   199  100  221 1    
   200  101  222 1    
   201  101  223 1    
   202  101  224 1    
   203  102  103 2    
   204  102  104 am   BACKBONE|DICT|INTERRES
   205  104  105 1    
   206  104  225 1    
   207  105  106 1    
   208  105  107 1    
   209  105  226 1    
   210  106  227 1    
   211  106  228 1    
   212  106  229 1    
   213  107  108 2    
   214  107  109 am   BACKBONE|DICT|INTERRES
   215  109  110 1    
   216  109  230 1    
   217  110  111 1    
   218  110  112 1    
   219  110  231 1    
   220  111  232 1    
   221  111  233 1    
   222  111  234 1    
   223  112  113 2    
   224  112  114 am   BACKBONE|DICT|INTERRES
   225  114  115 1    
   226  114  235 1    
   227  115  116 1    
   228  115  117 1    
   229  115  236 1    
   230  116  237 1    
   231  116  238 1    
   232  116  239 1    
   233  117  118 2    
   234  117  119 am   BACKBONE|DICT|INTERRES
   235  119  120 1    
   236  119  240 1    
   237  120  121 1    
   238  120  124 1    
   239  120  241 1    
   240  121  122 am   BACKBONE|DICT|INTERRES
   241  121  123 2    
   242  122  242 1    
   243  122  243 1    
   244  124  125 1    
   245  124  244 1    
   246  124  245 1    
   247  125  126 1    
   248  126  246 1    
   249  126  247 1    
@<TRIPOS>SUBSTRUCTURE
     1 UNK         1 GROUP             0       ****    0 ROOT    
