@<TRIPOS>MOLECULE
3R540
247   249    1
SMALL
USER_CHARGES


@<TRIPOS>ATOM
      1 CA          8.6822  -14.6030  -49.6302 C.3       0 UNK        -0.1800 
      2 C           7.7250  -14.7460  -48.4550 C.2       0 UNK         0.5000 
      3 O           8.1518  -15.1021  -47.3562 O.2       0 UNK        -0.5000 
      4 N           6.4349  -14.4775  -48.6850 N.am      1 UNK        -0.5000 
      5 CA          5.3840  -14.4745  -47.6642 C.3       1 UNK         0.1400 
      6 C6          3.9804  -14.7023  -48.2858 C.3       23 UNK        -0.0398 
      7 S7          3.4527  -13.4171  -49.4773 S.3       23 UNK        -0.2404 
      8 C8          3.7107  -14.2407  -51.0801 C.3       23 UNK        -0.0205 
      9 C9          2.6239  -15.2608  -51.3797 C.ar      23 UNK        -0.0193 
     10 C10         1.3738  -14.8370  -51.8421 C.ar      23 UNK        -0.1150 
     11 C11         0.3775  -15.7701  -52.1415 C.ar      23 UNK        -0.0193 
     12 C12         0.6425  -17.1314  -51.9895 C.ar      23 UNK        -0.1150 
     13 C13         1.8722  -17.5651  -51.4904 C.ar      23 UNK        -0.0193 
     14 C14         2.8663  -16.6265  -51.2018 C.ar      23 UNK        -0.1150 
     15 C15         2.1106  -19.0431  -51.2287 C.3       23 UNK        -0.0205 
     16 S16         1.7268  -19.4674  -49.4995 S.3       23 UNK        -0.2404 
     17 C17        -0.0869  -19.2492  -49.4510 C.3       23 UNK        -0.0398 
     18 CA         -0.8000  -20.4133  -48.7266 C.3       11 UNK         0.1400 
     19 N          -0.3777  -20.5158  -47.3242 N.am      11 UNK        -0.5000 
     20 C          -0.3846  -21.6147  -46.5587 C.2       10 UNK         0.5000 
     21 O          -0.8711  -22.6869  -46.9266 O.2       10 UNK        -0.5000 
     22 CA          0.1757  -21.4801  -45.1284 C.3       10 UNK         0.1400 
     23 CB          0.7908  -22.7862  -44.5936 C.3       10 UNK        -0.1800 
     24 N           1.0969  -20.3551  -44.9617 N.am      10 UNK        -0.5000 
     25 C           2.3137  -20.1730  -45.4980 C.2       9 UNK         0.5000 
     26 O           2.8788  -20.9912  -46.2232 O.2       9 UNK        -0.5000 
     27 CA          3.0221  -18.8458  -45.1496 C.3       9 UNK         0.1400 
     28 CB          3.2168  -17.9642  -46.3954 C.3       9 UNK        -0.1800 
     29 N           2.2728  -18.0906  -44.1392 N.am      9 UNK        -0.5000 
     30 C           2.5208  -18.1353  -42.8233 C.2       8 UNK         0.5000 
     31 O           3.4914  -18.7048  -42.3239 O.2       8 UNK        -0.5000 
     32 CA          1.4797  -17.4676  -41.9088 C.3       8 UNK         0.1400 
     33 CB          1.6585  -15.9434  -41.8934 C.3       8 UNK        -0.1800 
     34 N           0.1020  -17.7913  -42.2887 N.am      8 UNK        -0.5000 
     35 C          -0.4748  -18.9886  -42.1072 C.2       7 UNK         0.5000 
     36 O           0.1227  -19.9693  -41.6660 O.2       7 UNK        -0.5000 
     37 CA         -1.9570  -19.1306  -42.4884 C.3       7 UNK         0.1400 
     38 CB         -2.8536  -18.6528  -41.3360 C.3       7 UNK        -0.1800 
     39 N          -2.2855  -18.3696  -43.6921 N.am      7 UNK        -0.5000 
     40 C          -2.7919  -18.8909  -44.8176 C.2       6 UNK         0.5000 
     41 O          -3.0085  -20.0924  -44.9905 O.2       6 UNK        -0.5000 
     42 CA         -3.1077  -17.8978  -45.9544 C.3       6 UNK         0.1400 
     43 CB         -4.5262  -17.3367  -45.7706 C.3       6 UNK        -0.1800 
     44 N          -2.1829  -16.7680  -46.0543 N.am      6 UNK        -0.5000 
     45 C          -0.8475  -16.8287  -46.1362 C.2       5 UNK         0.5000 
     46 O          -0.2081  -17.8774  -46.1985 O.2       5 UNK        -0.5000 
     47 CA         -0.0886  -15.4899  -46.0602 C.3       5 UNK         0.1400 
     48 CB          0.1892  -14.9609  -47.4759 C.3       5 UNK        -0.1800 
     49 N          -0.7464  -14.4404  -45.2677 N.am      5 UNK        -0.5000 
     50 C          -1.2249  -14.5566  -44.0195 C.2       4 UNK         0.5000 
     51 O          -1.2539  -15.6166  -43.3893 O.2       4 UNK        -0.5000 
     52 CA         -1.7216  -13.2618  -43.3539 C.3       4 UNK         0.1400 
     53 CB         -2.7750  -13.5394  -42.2669 C.3       4 UNK        -0.1800 
     54 N          -0.5934  -12.5588  -42.7495 N.am      4 UNK        -0.5000 
     55 C           0.2963  -11.8139  -43.4171 C.2       3 UNK         0.5000 
     56 O           0.1893  -11.5482  -44.6172 O.2       3 UNK        -0.5000 
     57 CA          1.4991  -11.2584  -42.6192 C.3       3 UNK         0.1400 
     58 CB          1.7080  -11.9297  -41.2420 C.3       3 UNK        -0.1800 
     59 N           2.7451  -11.2916  -43.3941 N.am      3 UNK        -0.5000 
     60 C           3.3238  -12.3723  -43.9355 C.2       2 UNK         0.5000 
     61 O           2.8894  -13.5231  -43.8337 O.2       2 UNK        -0.5000 
     62 CA          4.6222  -12.1278  -44.7143 C.3       2 UNK         0.1400 
     63 CB          5.8298  -12.0165  -43.7673 C.3       2 UNK        -0.1800 
     64 N           4.8127  -13.2463  -45.6288 N.am      2 UNK        -0.5000 
     65 C           5.4414  -13.1907  -46.8049 C.2       1 UNK         0.5000 
     66 O           6.0176  -12.1815  -47.2224 O.2       1 UNK        -0.5000 
     67 C          -2.3395  -20.3546  -48.8787 C.2       11 UNK         0.5000 
     68 O          -2.8702  -19.5646  -49.6603 O.2       11 UNK        -0.5000 
     69 N          -3.0160  -21.2158  -48.1198 N.am      12 UNK        -0.5000 
     70 CA         -4.4337  -21.5430  -48.1560 C.3       12 UNK         0.1400 
     71 CB         -5.3224  -20.3821  -47.6782 C.3       12 UNK        -0.1800 
     72 C          -4.6203  -22.7863  -47.2807 C.2       12 UNK         0.5000 
     73 O          -5.2121  -23.7617  -47.7384 O.2       12 UNK        -0.5000 
     74 N          -4.0588  -22.7419  -46.0614 N.am      13 UNK        -0.5000 
     75 CA         -4.1043  -23.8114  -45.0636 C.3       13 UNK         0.1400 
     76 CB         -3.4809  -23.3033  -43.7530 C.3       13 UNK        -0.1800 
     77 C          -3.4351  -25.1214  -45.5242 C.2       13 UNK         0.5000 
     78 O          -4.0898  -26.1642  -45.5386 O.2       13 UNK        -0.5000 
     79 N          -2.1537  -25.0459  -45.9102 N.am      14 UNK        -0.5000 
     80 CA         -1.3801  -26.1848  -46.4183 C.3       14 UNK         0.1400 
     81 CB          0.1124  -25.9681  -46.1279 C.3       14 UNK        -0.1800 
     82 C          -1.6052  -26.4006  -47.9239 C.2       14 UNK         0.5000 
     83 O          -1.4660  -27.5230  -48.4094 O.2       14 UNK        -0.5000 
     84 N          -1.9772  -25.3233  -48.6274 N.am      15 UNK        -0.5000 
     85 CA         -2.3282  -25.3095  -50.0477 C.3       15 UNK         0.1400 
     86 CB         -2.2740  -23.8559  -50.5351 C.3       15 UNK        -0.1800 
     87 C          -3.7058  -25.9346  -50.3586 C.2       15 UNK         0.5000 
     88 O          -4.0598  -26.0432  -51.5354 O.2       15 UNK        -0.5000 
     89 N          -4.4674  -26.2901  -49.3101 N.am      16 UNK        -0.5000 
     90 CA         -5.7963  -26.9167  -49.3151 C.3       16 UNK         0.1400 
     91 CB         -5.7005  -28.3549  -49.8641 C.3       16 UNK        -0.1800 
     92 C          -6.8717  -26.0804  -50.0408 C.2       16 UNK         0.5000 
     93 O          -7.8334  -26.6391  -50.5710 O.2       16 UNK        -0.5000 
     94 N          -6.6554  -24.7574  -50.0875 N.am      17 UNK        -0.5000 
     95 CA         -7.3727  -23.7520  -50.8783 C.3       17 UNK         0.1400 
     96 CB         -8.7957  -23.5443  -50.3222 C.3       17 UNK        -0.1800 
     97 C          -7.3647  -24.0287  -52.4032 C.2       17 UNK         0.5000 
     98 O          -8.2225  -23.5060  -53.1171 O.2       17 UNK        -0.5000 
     99 N          -6.4194  -24.8543  -52.8751 N.am      18 UNK        -0.5000 
    100 CA        -6.3492  -25.3577  -54.2441 C.3       18 UNK         0.1400 
    101 CB        -6.3642  -26.8952  -54.2146 C.3       18 UNK        -0.1800 
    102 C         -5.0957  -24.8373  -54.9570 C.2       18 UNK         0.5000 
    103 O         -5.2096  -24.2943  -56.0566 O.2       18 UNK        -0.5000 
    104 N         -3.9238  -24.9966  -54.3242 N.am      19 UNK        -0.5000 
    105 CA        -2.6402  -24.5390  -54.8697 C.3       19 UNK         0.1400 
    106 CB        -1.4959  -25.3170  -54.2011 C.3       19 UNK        -0.1800 
    107 C         -2.4387  -23.0162  -54.7290 C.2       19 UNK         0.5000 
    108 O         -1.6757  -22.4272  -55.4953 O.2       19 UNK        -0.5000 
    109 N         -3.1409  -22.4137  -53.7659 N.am      20 UNK        -0.5000 
    110 CA        -3.1938  -20.9942  -53.4487 C.3       20 UNK         0.1400 
    111 CB        -1.8807  -20.5322  -52.7905 C.3       20 UNK        -0.1800 
    112 C         -4.3830  -20.7992  -52.4989 C.2       20 UNK         0.5000 
    113 O         -4.7454  -21.7408  -51.7875 O.2       20 UNK        -0.5000 
    114 N         -4.9697  -19.5984  -52.5064 N.am      21 UNK        -0.5000 
    115 CA        -6.1071  -19.2233  -51.6645 C.3       21 UNK         0.1400 
    116 CB        -7.4014  -19.8956  -52.1726 C.3       21 UNK        -0.1800 
    117 C         -6.2368  -17.6904  -51.5848 C.2       21 UNK         0.5000 
    118 O         -7.3527  -17.1680  -51.6024 O.2       21 UNK        -0.5000 
    119 N         -5.0992  -16.9838  -51.5327 N.am      22 UNK        -0.5000 
    120 CA        -5.0429  -15.5090  -51.5089 C.3       22 UNK         0.1400 
    121 C         -5.3722  -14.8475  -50.1367 C.2       22 UNK         0.5000 
    122 N         -5.5619  -15.6016  -49.0619 N.am      22 UNK        -0.7600 
    123 O         -5.4803  -13.6271  -50.0512 O.2       22 UNK        -0.5000 
    124 C124       -3.7290  -14.9662  -52.1267 C.3       23 UNK        -0.0398 
    125 S125       -2.2186  -15.5249  -51.2705 S.3       23 UNK        -0.2404 
    126 C126       -0.9975  -15.3233  -52.6043 C.3       23 UNK        -0.0205 
    127 H127        9.1785  -15.5531  -49.8281 H         1 UNK         0.0600 
    128 H128        9.4455  -13.8587  -49.4035 H         1 UNK         0.0600 
    129 H129        8.1653  -14.2939  -50.5392 H         1 UNK         0.0600 
    130 H130        6.1554  -14.1301  -49.5901 H         1 UNK         0.3000 
    131 H131        5.5748  -15.3140  -46.9918 H         1 UNK         0.0600 
    132 H132        3.9534  -15.6797  -48.7666 H         1 UNK         0.0800 
    133 H133        3.2270  -14.7563  -47.4990 H         1 UNK         0.0800 
    134 H134        4.6961  -14.7075  -51.1062 H         1 UNK         0.0800 
    135 H135        3.7150  -13.4828  -51.8648 H         1 UNK         0.0800 
    136 H136        1.1768  -13.7807  -51.9599 H         1 UNK         0.1150 
    137 H137       -0.1298  -17.8477  -52.2268 H         1 UNK         0.1150 
    138 H138        3.8228  -16.9613  -50.8258 H         1 UNK         0.1150 
    139 H139        1.5130  -19.6582  -51.9035 H         1 UNK         0.0800 
    140 H140        3.1536  -19.2905  -51.4314 H         1 UNK         0.0800 
    141 H141       -0.4533  -19.1845  -50.4737 H         1 UNK         0.0800 
    142 H142       -0.3174  -18.2924  -48.9797 H         1 UNK         0.0800 
    143 H143       -0.4939  -21.3335  -49.2283 H         1 UNK         0.0600 
    144 H144       -0.0484  -19.6487  -46.9089 H         1 UNK         0.3000 
    145 H145       -0.6799  -21.2517  -44.4942 H         1 UNK         0.0600 
    146 H146        1.2251  -22.6413  -43.6043 H         1 UNK         0.0600 
    147 H147        0.0302  -23.5598  -44.4969 H         1 UNK         0.0600 
    148 H148        1.5716  -23.1675  -45.2522 H         1 UNK         0.0600 
    149 H149        0.7463  -19.5989  -44.3943 H         1 UNK         0.3000 
    150 H150        4.0127  -19.1014  -44.7681 H         1 UNK         0.0600 
    151 H151        3.8257  -18.4756  -47.1420 H         1 UNK         0.0600 
    152 H152        3.7270  -17.0353  -46.1422 H         1 UNK         0.0600 
    153 H153        2.2715  -17.7086  -46.8721 H         1 UNK         0.0600 
    154 H154        1.4463  -17.6100  -44.4637 H         1 UNK         0.3000 
    155 H155        1.6463  -17.8338  -40.8933 H         1 UNK         0.0600 
    156 H156        2.6717  -15.6677  -41.5984 H         1 UNK         0.0600 
    157 H157        0.9728  -15.4725  -41.1890 H         1 UNK         0.0600 
    158 H158        1.4749  -15.5105  -42.8763 H         1 UNK         0.0600 
    159 H159       -0.4533  -17.0169  -42.6472 H         1 UNK         0.3000 
    160 H160       -2.1490  -20.1943  -42.6443 H         1 UNK         0.0600 
    161 H161       -2.7172  -17.5894  -41.1338 H         1 UNK         0.0600 
    162 H162       -2.6325  -19.1954  -40.4159 H         1 UNK         0.0600 
    163 H163       -3.9066  -18.8169  -41.5653 H         1 UNK         0.0600 
    164 H164       -2.1086  -17.3705  -43.6592 H         1 UNK         0.3000 
    165 H165       -3.0661  -18.4443  -46.8958 H         1 UNK         0.0600 
    166 H166       -4.8347  -16.7577  -46.6391 H         1 UNK         0.0600 
    167 H167       -5.2606  -18.1299  -45.6328 H         1 UNK         0.0600 
    168 H168       -4.5892  -16.6874  -44.8963 H         1 UNK         0.0600 
    169 H169       -2.5989  -15.8506  -45.9985 H         1 UNK         0.3000 
    170 H170        0.8712  -15.6898  -45.5805 H         1 UNK         0.0600 
    171 H171        0.7248  -15.6996  -48.0750 H         1 UNK         0.0600 
    172 H172       -0.7343  -14.7209  -48.0044 H         1 UNK         0.0600 
    173 H173        0.8028  -14.0603  -47.4494 H         1 UNK         0.0600 
    174 H174       -0.7175  -13.5103  -45.6644 H         1 UNK         0.3000 
    175 H175       -2.1826  -12.6315  -44.1174 H         1 UNK         0.0600 
    176 H176       -3.6248  -14.0856  -42.6784 H         1 UNK         0.0600 
    177 H177       -2.3685  -14.1341  -41.4477 H         1 UNK         0.0600 
    178 H178       -3.1593  -12.6102  -41.8459 H         1 UNK         0.0600 
    179 H179       -0.4206  -12.7510  -41.7737 H         1 UNK         0.3000 
    180 H180        1.2790  -10.2050  -42.4415 H         1 UNK         0.0600 
    181 H181        1.8643  -13.0051  -41.3316 H         1 UNK         0.0600 
    182 H182        0.8533  -11.7680  -40.5845 H         1 UNK         0.0600 
    183 H183        2.5783  -11.5132  -40.7347 H         1 UNK         0.0600 
    184 H184        3.1691  -10.3900  -43.5616 H         1 UNK         0.3000 
    185 H185        4.5122  -11.2020  -45.2834 H         1 UNK         0.0600 
    186 H186        5.7061  -11.1882  -43.0687 H         1 UNK         0.0600 
    187 H187        5.9629  -12.9258  -43.1798 H         1 UNK         0.0600 
    188 H188        6.7515  -11.8383  -44.3214 H         1 UNK         0.0600 
    189 H189        4.3111  -14.0800  -45.3477 H         1 UNK         0.3000 
    190 H190       -2.4527  -21.8217  -47.5304 H         1 UNK         0.3000 
    191 H191       -4.7056  -21.7942  -49.1814 H         1 UNK         0.0600 
    192 H192       -5.1711  -20.1747  -46.6206 H         1 UNK         0.0600 
    193 H193       -6.3764  -20.6278  -47.8118 H         1 UNK         0.0600 
    194 H194       -5.1316  -19.4651  -48.2344 H         1 UNK         0.0600 
    195 H195       -3.6367  -21.8694  -45.7567 H         1 UNK         0.3000 
    196 H196       -5.1561  -24.0325  -44.8706 H         1 UNK         0.0600 
    197 H197       -3.5017  -24.0757  -42.9832 H         1 UNK         0.0600 
    198 H198       -4.0280  -22.4436  -43.3655 H         1 UNK         0.0600 
    199 H199       -2.4424  -23.0004  -43.8881 H         1 UNK         0.0600 
    200 H200       -1.6978  -24.1403  -45.9515 H         1 UNK         0.3000 
    201 H201       -1.6932  -27.0946  -45.9016 H         1 UNK         0.0600 
    202 H202        0.2969  -25.8817  -45.0574 H         1 UNK         0.0600 
    203 H203        0.4924  -25.0688  -46.6137 H         1 UNK         0.0600 
    204 H204        0.7055  -26.8091  -46.4891 H         1 UNK         0.0600 
    205 H205       -2.0207  -24.4401  -48.1398 H         1 UNK         0.3000 
    206 H206       -1.5794  -25.8855  -50.5948 H         1 UNK         0.0600 
    207 H207       -1.2951  -23.4112  -50.3572 H         1 UNK         0.0600 
    208 H208       -2.4675  -23.7945  -51.6024 H         1 UNK         0.0600 
    209 H209       -3.0238  -23.2411  -50.0419 H         1 UNK         0.0600 
    210 H210       -4.1008  -26.0858  -48.3910 H         1 UNK         0.3000 
    211 H211       -6.1097  -26.9756  -48.2718 H         1 UNK         0.0600 
    212 H212       -5.4543  -28.3650  -50.9266 H         1 UNK         0.0600 
    213 H213       -6.6446  -28.8867  -49.7415 H         1 UNK         0.0600 
    214 H214       -4.9369  -28.9274  -49.3375 H         1 UNK         0.0600 
    215 H215       -5.8814  -24.4059  -49.5333 H         1 UNK         0.3000 
    216 H216       -6.8304  -22.8191  -50.7308 H         1 UNK         0.0600 
    217 H217       -9.2829  -22.6935  -50.7998 H         1 UNK         0.0600 
    218 H218       -8.7740  -23.3434  -49.2511 H         1 UNK         0.0600 
    219 H219       -9.4260  -24.4184  -50.4880 H         1 UNK         0.0600 
    220 H220       -5.7324  -25.2261  -52.2276 H         1 UNK         0.3000 
    221 H221       -7.2160  -25.0287  -54.8210 H         1 UNK         0.0600 
    222 H222       -5.5308  -27.3003  -53.6392 H         1 UNK         0.0600 
    223 H223       -7.2861  -27.2676  -53.7672 H         1 UNK         0.0600 
    224 H224       -6.3011  -27.3070  -55.2226 H         1 UNK         0.0600 
    225 H225       -3.9060  -25.4543  -53.4177 H         1 UNK         0.3000 
    226 H226       -2.6146  -24.7696  -55.9370 H         1 UNK         0.0600 
    227 H227       -1.5922  -26.3875  -54.3826 H         1 UNK         0.0600 
    228 H228       -0.5288  -25.0068  -54.5988 H         1 UNK         0.0600 
    229 H229       -1.4700  -25.1647  -53.1236 H         1 UNK         0.0600 
    230 H230       -3.7693  -22.9681  -53.1974 H         1 UNK         0.3000 
    231 H231       -3.3717  -20.4303  -54.3664 H         1 UNK         0.0600 
    232 H232       -1.0362  -20.6216  -53.4734 H         1 UNK         0.0600 
    233 H233       -1.6538  -21.1173  -51.8989 H         1 UNK         0.0600 
    234 H234       -1.9449  -19.4860  -52.4900 H         1 UNK         0.0600 
    235 H235       -4.6265  -18.8775  -53.1260 H         1 UNK         0.3000 
    236 H236       -5.9123  -19.5716  -50.6482 H         1 UNK         0.0600 
    237 H237       -8.2438  -19.6755  -51.5159 H         1 UNK         0.0600 
    238 H238       -7.6627  -19.5507  -53.1735 H         1 UNK         0.0600 
    239 H239       -7.3067  -20.9786  -52.2128 H         1 UNK         0.0600 
    240 H240       -4.2146  -17.4653  -51.4477 H         1 UNK         0.3000 
    241 H241       -5.8383  -15.1564  -52.1686 H         1 UNK         0.0600 
    242 H242       -5.7953  -15.1614  -48.1868 H         1 UNK         0.3800 
    243 H243       -5.4830  -16.6027  -49.1227 H         1 UNK         0.3800 
    244 H244       -3.6751  -15.2812  -53.1696 H         1 UNK         0.0800 
    245 H245       -3.7331  -13.8751  -52.1506 H         1 UNK         0.0800 
    246 H246       -1.2977  -15.9128  -53.4720 H         1 UNK         0.0800 
    247 H247       -0.9773  -14.2804  -52.9242 H         1 UNK         0.0800 
@<TRIPOS>BOND
     1    1    2 1    
     2    1  127 1    
     3    1  128 1    
     4    1  129 1    
     5    2    3 2    
     6    2    4 am   BACKBONE|DICT|INTERRES
     7    4    5 1    
     8    4  130 1    
     9    5    6 1    
    10    5   65 1    
    11    5  131 1    
    12    6    7 1    
    13    6  132 1    
    14    6  133 1    
    15    7    8 1    
    16    8    9 1    
    17    8  134 1    
    18    8  135 1    
    19    9   10 ar   
    20    9   14 ar   
    21   10   11 ar   
    22   10  136 1    
    23   11   12 ar   
    24   11  126 1    
    25   12   13 ar   
    26   12  137 1    
    27   13   14 ar   
    28   13   15 1    
    29   14  138 1    
    30   15   16 1    
    31   15  139 1    
    32   15  140 1    
    33   16   17 1    
    34   17   18 1    
    35   17  141 1    
    36   17  142 1    
    37   18   19 1    
    38   18   67 1    
    39   18  143 1    
    40   19   20 am   BACKBONE|DICT|INTERRES
    41   19  144 1    
    42   20   21 2    
    43   20   22 1    
    44   22   23 1    
    45   22   24 1    
    46   22  145 1    
    47   23  146 1    
    48   23  147 1    
    49   23  148 1    
    50   24   25 am   BACKBONE|DICT|INTERRES
    51   24  149 1    
    52   25   26 2    
    53   25   27 1    
    54   27   28 1    
    55   27   29 1    
    56   27  150 1    
    57   28  151 1    
    58   28  152 1    
    59   28  153 1    
    60   29   30 am   BACKBONE|DICT|INTERRES
    61   29  154 1    
    62   30   31 2    
    63   30   32 1    
    64   32   33 1    
    65   32   34 1    
    66   32  155 1    
    67   33  156 1    
    68   33  157 1    
    69   33  158 1    
    70   34   35 am   BACKBONE|DICT|INTERRES
    71   34  159 1    
    72   35   36 2    
    73   35   37 1    
    74   37   38 1    
    75   37   39 1    
    76   37  160 1    
    77   38  161 1    
    78   38  162 1    
    79   38  163 1    
    80   39   40 am   BACKBONE|DICT|INTERRES
    81   39  164 1    
    82   40   41 2    
    83   40   42 1    
    84   42   43 1    
    85   42   44 1    
    86   42  165 1    
    87   43  166 1    
    88   43  167 1    
    89   43  168 1    
    90   44   45 am   BACKBONE|DICT|INTERRES
    91   44  169 1    
    92   45   46 2    
    93   45   47 1    
    94   47   48 1    
    95   47   49 1    
    96   47  170 1    
    97   48  171 1    
    98   48  172 1    
    99   48  173 1    
   100   49   50 am   BACKBONE|DICT|INTERRES
   101   49  174 1    
   102   50   51 2    
   103   50   52 1    
   104   52   53 1    
   105   52   54 1    
   106   52  175 1    
   107   53  176 1    
   108   53  177 1    
   109   53  178 1    
   110   54   55 am   BACKBONE|DICT|INTERRES
   111   54  179 1    
   112   55   56 2    
   113   55   57 1    
   114   57   58 1    
   115   57   59 1    
   116   57  180 1    
   117   58  181 1    
   118   58  182 1    
   119   58  183 1    
   120   59   60 am   BACKBONE|DICT|INTERRES
   121   59  184 1    
   122   60   61 2    
   123   60   62 1    
   124   62   63 1    
   125   62   64 1    
   126   62  185 1    
   127   63  186 1    
   128   63  187 1    
   129   63  188 1    
   130   64   65 am   BACKBONE|DICT|INTERRES
   131   64  189 1    
   132   65   66 2    
   133   67   68 2    
   134   67   69 am   BACKBONE|DICT|INTERRES
   135   69   70 1    
   136   69  190 1    
   137   70   71 1    
   138   70   72 1    
   139   70  191 1    
   140   71  192 1    
   141   71  193 1    
   142   71  194 1    
   143   72   73 2    
   144   72   74 am   BACKBONE|DICT|INTERRES
   145   74   75 1    
   146   74  195 1    
   147   75   76 1    
   148   75   77 1    
   149   75  196 1    
   150   76  197 1    
   151   76  198 1    
   152   76  199 1    
   153   77   78 2    
   154   77   79 am   BACKBONE|DICT|INTERRES
   155   79   80 1    
   156   79  200 1    
   157   80   81 1    
   158   80   82 1    
   159   80  201 1    
   160   81  202 1    
   161   81  203 1    
   162   81  204 1    
   163   82   83 2    
   164   82   84 am   BACKBONE|DICT|INTERRES
   165   84   85 1    
   166   84  205 1    
   167   85   86 1    
   168   85   87 1    
   169   85  206 1    
   170   86  207 1    
   171   86  208 1    
   172   86  209 1    
   173   87   88 2    
   174   87   89 am   BACKBONE|DICT|INTERRES
   175   89   90 1    
   176   89  210 1    
   177   90   91 1    
   178   90   92 1    
   179   90  211 1    
   180   91  212 1    
   181   91  213 1    
   182   91  214 1    
   183   92   93 2    
   184   92   94 am   BACKBONE|DICT|INTERRES
   185   94   95 1    
   186   94  215 1    
   187   95   96 1    
   188   95   97 1    
   189   95  216 1    
   190   96  217 1    
   191   96  218 1    
   192   96  219 1    
   193   97   98 2    
   194   97   99 am   BACKBONE|DICT|INTERRES
   195   99  100 1    
   196   99  220 1    
   197  100  101 1    
   198  100  102 1    
   199  100  221 1    
   200  101  222 1    
   201  101  223 1    
   202  101  224 1    
   203  102  103 2    
   204  102  104 am   BACKBONE|DICT|INTERRES
   205  104  105 1    
   206  104  225 1    
   207  105  106 1    
   208  105  107 1    
   209  105  226 1    
   210  106  227 1    
   211  106  228 1    
   212  106  229 1    
   213  107  108 2    
   214  107  109 am   BACKBONE|DICT|INTERRES
   215  109  110 1    
   216  109  230 1    
   217  110  111 1    
   218  110  112 1    
   219  110  231 1    
   220  111  232 1    
   221  111  233 1    
   222  111  234 1    
   223  112  113 2    
   224  112  114 am   BACKBONE|DICT|INTERRES
   225  114  115 1    
   226  114  235 1    
   227  115  116 1    
   228  115  117 1    
   229  115  236 1    
   230  116  237 1    
   231  116  238 1    
   232  116  239 1    
   233  117  118 2    
   234  117  119 am   BACKBONE|DICT|INTERRES
   235  119  120 1    
   236  119  240 1    
   237  120  121 1    
   238  120  124 1    
   239  120  241 1    
   240  121  122 am   BACKBONE|DICT|INTERRES
   241  121  123 2    
   242  122  242 1    
   243  122  243 1    
   244  124  125 1    
   245  124  244 1    
   246  124  245 1    
   247  125  126 1    
   248  126  246 1    
   249  126  247 1    
@<TRIPOS>SUBSTRUCTURE
     1 UNK         1 GROUP             0       ****    0 ROOT    
