@<TRIPOS>MOLECULE
3R540
247   249    1
SMALL
USER_CHARGES


@<TRIPOS>ATOM
      1 CA         -0.1417  -13.3222  -50.1472 C.3       0 UNK        -0.1800 
      2 C          -0.2894  -13.1408  -48.6441 C.2       0 UNK         0.5000 
      3 O           0.4298  -12.3286  -48.0657 O.2       0 UNK        -0.5000 
      4 N          -1.2198  -13.8861  -48.0288 N.am      1 UNK        -0.5000 
      5 CA         -1.5312  -13.9940  -46.5895 C.3       1 UNK         0.1400 
      6 C6         -2.8363  -14.8317  -46.3929 C.3       23 UNK        -0.0398 
      7 S7         -3.8785  -14.5415  -44.9126 S.3       23 UNK        -0.2404 
      8 C8         -4.5668  -16.1993  -44.5720 C.3       23 UNK        -0.0205 
      9 C9         -5.3672  -16.8254  -45.7139 C.ar      23 UNK        -0.0193 
     10 C10        -6.1176  -16.0510  -46.6071 C.ar      23 UNK        -0.1150 
     11 C11        -6.8539  -16.6513  -47.6331 C.ar      23 UNK        -0.0193 
     12 C12        -6.8586  -18.0438  -47.7483 C.ar      23 UNK        -0.1150 
     13 C13        -6.1226  -18.8323  -46.8593 C.ar      23 UNK        -0.0193 
     14 C14        -5.3815  -18.2174  -45.8461 C.ar      23 UNK        -0.1150 
     15 C15        -6.1433  -20.3477  -46.9896 C.3       23 UNK        -0.0205 
     16 S16        -5.0155  -20.9258  -48.2938 S.3       23 UNK        -0.2404 
     17 C17        -3.3935  -20.7903  -47.4735 C.3       23 UNK        -0.0398 
     18 CA         -2.7218  -22.1511  -47.2122 C.3       11 UNK         0.1400 
     19 N          -1.2798  -22.0012  -47.0275 N.am      11 UNK        -0.5000 
     20 C          -0.4058  -23.0100  -47.1173 C.2       10 UNK         0.5000 
     21 O          -0.7261  -24.1639  -47.4030 O.2       10 UNK        -0.5000 
     22 CA          1.0635  -22.6786  -46.8053 C.3       10 UNK         0.1400 
     23 CB          1.7542  -22.0904  -48.0444 C.3       10 UNK        -0.1800 
     24 N           1.2139  -21.7574  -45.6756 N.am      10 UNK        -0.5000 
     25 C           0.8233  -22.0252  -44.4213 C.2       9 UNK         0.5000 
     26 O           0.3087  -23.0887  -44.0828 O.2       9 UNK        -0.5000 
     27 CA          0.9910  -20.9114  -43.3737 C.3       9 UNK         0.1400 
     28 CB          2.4441  -20.8393  -42.8824 C.3       9 UNK        -0.1800 
     29 N           0.5661  -19.5972  -43.8542 N.am      9 UNK        -0.5000 
     30 C          -0.6753  -19.2853  -44.2538 C.2       8 UNK         0.5000 
     31 O          -1.6147  -20.0815  -44.2759 O.2       8 UNK        -0.5000 
     32 CA         -0.8832  -17.8539  -44.7789 C.3       8 UNK         0.1400 
     33 CB         -0.9180  -16.8308  -43.6329 C.3       8 UNK        -0.1800 
     34 N           0.1470  -17.4863  -45.7495 N.am      8 UNK        -0.5000 
     35 C           0.2728  -18.0713  -46.9486 C.2       7 UNK         0.5000 
     36 O          -0.5474  -18.8727  -47.3954 O.2       7 UNK        -0.5000 
     37 CA          1.5331  -17.7392  -47.7639 C.3       7 UNK         0.1400 
     38 CB          1.2952  -16.5205  -48.6632 C.3       7 UNK        -0.1800 
     39 N           2.6959  -17.4997  -46.9072 N.am      7 UNK        -0.5000 
     40 C           3.3562  -18.4677  -46.2551 C.2       6 UNK         0.5000 
     41 O           3.0631  -19.6594  -46.3302 O.2       6 UNK        -0.5000 
     42 CA          4.5105  -18.0332  -45.3328 C.3       6 UNK         0.1400 
     43 CB          5.8119  -17.8811  -46.1337 C.3       6 UNK        -0.1800 
     44 N           4.2324  -16.7859  -44.6213 N.am      6 UNK        -0.5000 
     45 C           3.2489  -16.6179  -43.7254 C.2       5 UNK         0.5000 
     46 O           2.5018  -17.5235  -43.3587 O.2       5 UNK        -0.5000 
     47 CA          3.0295  -15.1879  -43.1924 C.3       5 UNK         0.1400 
     48 CB          3.7932  -14.9799  -41.8767 C.3       5 UNK        -0.1800 
     49 N           3.4236  -14.1513  -44.1521 N.am      5 UNK        -0.5000 
     50 C           2.8468  -13.9713  -45.3471 C.2       4 UNK         0.5000 
     51 O           1.8870  -14.6332  -45.7475 O.2       4 UNK        -0.5000 
     52 CA          3.4896  -12.9247  -46.2645 C.3       4 UNK         0.1400 
     53 CB          3.7939  -13.5249  -47.6480 C.3       4 UNK        -0.1800 
     54 N           2.5864  -11.7938  -46.4282 N.am      4 UNK        -0.5000 
     55 C           2.7069  -10.6172  -45.8031 C.2       3 UNK         0.5000 
     56 O           3.5827  -10.3747  -44.9712 O.2       3 UNK        -0.5000 
     57 CA          1.6967   -9.5186  -46.1708 C.3       3 UNK         0.1400 
     58 CB          2.0980   -8.8375  -47.4894 C.3       3 UNK        -0.1800 
     59 N           0.3365  -10.0422  -46.2988 N.am      3 UNK        -0.5000 
     60 C          -0.7289   -9.5690  -45.6383 C.2       2 UNK         0.5000 
     61 O          -0.6757   -8.6336  -44.8380 O.2       2 UNK        -0.5000 
     62 CA         -2.0972  -10.2288  -45.9146 C.3       2 UNK         0.1400 
     63 CB         -2.9263   -9.3584  -46.8719 C.3       2 UNK        -0.1800 
     64 N          -2.0223  -11.5835  -46.4627 N.am      2 UNK        -0.5000 
     65 C          -1.5292  -12.6504  -45.8188 C.2       1 UNK         0.5000 
     66 O          -1.0735  -12.6041  -44.6749 O.2       1 UNK        -0.5000 
     67 C          -3.3643  -22.9221  -46.0416 C.2       11 UNK         0.5000 
     68 O          -4.1719  -23.8181  -46.2858 O.2       11 UNK        -0.5000 
     69 N          -2.9504  -22.6172  -44.8022 N.am      12 UNK        -0.5000 
     70 CA         -3.3691  -23.3247  -43.5875 C.3       12 UNK         0.1400 
     71 CB         -2.8441  -22.5775  -42.3527 C.3       12 UNK        -0.1800 
     72 C          -2.9268  -24.8025  -43.5646 C.2       12 UNK         0.5000 
     73 O          -3.6889  -25.6597  -43.1172 O.2       12 UNK        -0.5000 
     74 N          -1.7251  -25.0775  -44.0897 N.am      13 UNK        -0.5000 
     75 CA         -1.1718  -26.4179  -44.3002 C.3       13 UNK         0.1400 
     76 CB          0.3494  -26.3002  -44.4885 C.3       13 UNK        -0.1800 
     77 C          -1.8012  -27.1690  -45.4930 C.2       13 UNK         0.5000 
     78 O          -1.5219  -28.3564  -45.6639 O.2       13 UNK        -0.5000 
     79 N          -2.6242  -26.4737  -46.2919 N.am      14 UNK        -0.5000 
     80 CA         -3.3245  -26.9452  -47.4873 C.3       14 UNK         0.1400 
     81 CB         -4.3532  -28.0394  -47.1333 C.3       14 UNK        -0.1800 
     82 C          -2.3706  -27.3499  -48.6291 C.2       14 UNK         0.5000 
     83 O          -2.6441  -28.3104  -49.3525 O.2       14 UNK        -0.5000 
     84 N          -1.2833  -26.5858  -48.8095 N.am      15 UNK        -0.5000 
     85 CA         -0.3168  -26.7329  -49.9007 C.3       15 UNK         0.1400 
     86 CB          1.0146  -26.0830  -49.4850 C.3       15 UNK        -0.1800 
     87 C          -0.8826  -26.1410  -51.2078 C.2       15 UNK         0.5000 
     88 O          -0.4123  -25.1043  -51.6828 O.2       15 UNK        -0.5000 
     89 N          -1.9435  -26.7811  -51.7207 N.am      16 UNK        -0.5000 
     90 CA         -2.7355  -26.4018  -52.8965 C.3       16 UNK         0.1400 
     91 CB         -1.9099  -26.5997  -54.1850 C.3       16 UNK        -0.1800 
     92 C          -3.3342  -24.9832  -52.7816 C.2       16 UNK         0.5000 
     93 O          -3.3808  -24.2566  -53.7732 O.2       16 UNK        -0.5000 
     94 N          -3.7358  -24.6008  -51.5585 N.am      17 UNK        -0.5000 
     95 CA         -4.1974  -23.2642  -51.1613 C.3       17 UNK         0.1400 
     96 CB         -5.5682  -22.9460  -51.7940 C.3       17 UNK        -0.1800 
     97 C          -3.1368  -22.1765  -51.4401 C.2       17 UNK         0.5000 
     98 O          -3.4431  -21.1559  -52.0563 O.2       17 UNK        -0.5000 
     99 N          -1.8909  -22.4569  -51.0255 N.am      18 UNK        -0.5000 
    100 CA        -0.6815  -21.6614  -51.2720 C.3       18 UNK         0.1400 
    101 CB        -0.7312  -20.3269  -50.4999 C.3       18 UNK        -0.1800 
    102 C         -0.3950  -21.4843  -52.7781 C.2       18 UNK         0.5000 
    103 O         -0.0811  -20.3803  -53.2247 O.2       18 UNK        -0.5000 
    104 N         -0.5306  -22.5900  -53.5261 N.am      19 UNK        -0.5000 
    105 CA        -0.4516  -22.6843  -54.9878 C.3       19 UNK         0.1400 
    106 CB         0.9877  -22.4221  -55.4782 C.3       19 UNK        -0.1800 
    107 C         -1.5103  -21.8046  -55.6898 C.2       19 UNK         0.5000 
    108 O         -1.1719  -20.9796  -56.5409 O.2       19 UNK        -0.5000 
    109 N         -2.7772  -22.0189  -55.3074 N.am      20 UNK        -0.5000 
    110 CA        -3.9937  -21.3613  -55.7907 C.3       20 UNK         0.1400 
    111 CB        -4.2792  -21.7642  -57.2526 C.3       20 UNK        -0.1800 
    112 C         -3.9783  -19.8350  -55.5710 C.2       20 UNK         0.5000 
    113 O         -4.1545  -19.0667  -56.5197 O.2       20 UNK        -0.5000 
    114 N         -3.7617  -19.4264  -54.3175 N.am      21 UNK        -0.5000 
    115 CA        -3.7230  -18.0356  -53.8793 C.3       21 UNK         0.1400 
    116 CB        -2.2539  -17.5639  -53.8326 C.3       21 UNK        -0.1800 
    117 C         -4.4688  -17.9039  -52.5375 C.2       21 UNK         0.5000 
    118 O         -5.4734  -18.5868  -52.3257 O.2       21 UNK        -0.5000 
    119 N         -3.9731  -17.0220  -51.6665 N.am      22 UNK        -0.5000 
    120 CA        -4.4029  -16.8407  -50.2794 C.3       22 UNK         0.1400 
    121 C         -3.1295  -16.8290  -49.4067 C.2       22 UNK         0.5000 
    122 N         -3.0508  -17.6908  -48.4078 N.am      22 UNK        -0.7600 
    123 O         -2.2217  -16.0308  -49.6205 O.2       22 UNK        -0.5000 
    124 C124       -5.2351  -15.5434  -50.0951 C.3       23 UNK        -0.0398 
    125 S125       -7.0154  -15.8712  -50.3216 S.3       23 UNK        -0.2404 
    126 C126       -7.6467  -15.7893  -48.6096 C.3       23 UNK        -0.0205 
    127 H127       -0.9678  -13.8917  -50.5721 H         1 UNK         0.0600 
    128 H128        0.7870  -13.8475  -50.3691 H         1 UNK         0.0600 
    129 H129       -0.1127  -12.3512  -50.6414 H         1 UNK         0.0600 
    130 H130       -1.7042  -14.5666  -48.6112 H         1 UNK         0.3000 
    131 H131       -0.7139  -14.5727  -46.1577 H         1 UNK         0.0600 
    132 H132       -3.5020  -14.6666  -47.2405 H         1 UNK         0.0800 
    133 H133       -2.5789  -15.8885  -46.4317 H         1 UNK         0.0800 
    134 H134       -5.2203  -16.1244  -43.7023 H         1 UNK         0.0800 
    135 H135       -3.7515  -16.8597  -44.2807 H         1 UNK         0.0800 
    136 H136       -6.1302  -14.9753  -46.5071 H         1 UNK         0.1150 
    137 H137       -7.4288  -18.5135  -48.5379 H         1 UNK         0.1150 
    138 H138       -4.8205  -18.8254  -45.1500 H         1 UNK         0.1150 
    139 H139       -5.8907  -20.8258  -46.0417 H         1 UNK         0.0800 
    140 H140       -7.1554  -20.6744  -47.2328 H         1 UNK         0.0800 
    141 H141       -3.4490  -20.1933  -46.5627 H         1 UNK         0.0800 
    142 H142       -2.7644  -20.2330  -48.1636 H         1 UNK         0.0800 
    143 H143       -2.8585  -22.7604  -48.1082 H         1 UNK         0.0600 
    144 H144       -0.9407  -21.0760  -46.7942 H         1 UNK         0.3000 
    145 H145        1.5644  -23.6132  -46.5456 H         1 UNK         0.0600 
    146 H146        2.8222  -21.9573  -47.8718 H         1 UNK         0.0600 
    147 H147        1.6467  -22.7480  -48.9071 H         1 UNK         0.0600 
    148 H148        1.3369  -21.1199  -48.3143 H         1 UNK         0.0600 
    149 H149        1.6924  -20.8805  -45.8662 H         1 UNK         0.3000 
    150 H150        0.3597  -21.1649  -42.5199 H         1 UNK         0.0600 
    151 H151        2.7712  -21.8021  -42.4879 H         1 UNK         0.0600 
    152 H152        2.5542  -20.1058  -42.0834 H         1 UNK         0.0600 
    153 H153        3.1276  -20.5639  -43.6853 H         1 UNK         0.0600 
    154 H154        1.2710  -18.8644  -43.8389 H         1 UNK         0.3000 
    155 H155       -1.8490  -17.8313  -45.2862 H         1 UNK         0.0600 
    156 H156        0.0173  -16.8068  -43.0758 H         1 UNK         0.0600 
    157 H157       -1.7098  -17.0699  -42.9223 H         1 UNK         0.0600 
    158 H158       -1.1079  -15.8241  -44.0045 H         1 UNK         0.0600 
    159 H159        0.8526  -16.8250  -45.4542 H         1 UNK         0.3000 
    160 H160        1.7453  -18.5958  -48.4072 H         1 UNK         0.0600 
    161 H161        2.1638  -16.3124  -49.2877 H         1 UNK         0.0600 
    162 H162        1.0839  -15.6296  -48.0744 H         1 UNK         0.0600 
    163 H163        0.4465  -16.6847  -49.3285 H         1 UNK         0.0600 
    164 H164        2.9519  -16.5356  -46.7492 H         1 UNK         0.3000 
    165 H165        4.6566  -18.8190  -44.5890 H         1 UNK         0.0600 
    166 H166        6.6533  -17.6518  -45.4794 H         1 UNK         0.0600 
    167 H167        6.0549  -18.8044  -46.6615 H         1 UNK         0.0600 
    168 H168        5.7382  -17.0870  -46.8779 H         1 UNK         0.0600 
    169 H169        4.8066  -15.9902  -44.8559 H         1 UNK         0.3000 
    170 H170        1.9622  -15.0718  -42.9924 H         1 UNK         0.0600 
    171 H171        3.5018  -15.7248  -41.1349 H         1 UNK         0.0600 
    172 H172        4.8715  -15.0621  -42.0187 H         1 UNK         0.0600 
    173 H173        3.5835  -13.9991  -41.4496 H         1 UNK         0.0600 
    174 H174        4.1981  -13.5600  -43.8859 H         1 UNK         0.3000 
    175 H175        4.4377  -12.6002  -45.8303 H         1 UNK         0.0600 
    176 H176        2.8861  -13.8411  -48.1630 H         1 UNK         0.0600 
    177 H177        4.2997  -12.7999  -48.2858 H         1 UNK         0.0600 
    178 H178        4.4458  -14.3954  -47.5642 H         1 UNK         0.0600 
    179 H179        1.8046  -11.9506  -47.0628 H         1 UNK         0.3000 
    180 H180        1.7462   -8.7690  -45.3783 H         1 UNK         0.0600 
    181 H181        2.0569   -9.5320  -48.3297 H         1 UNK         0.0600 
    182 H182        3.1142   -8.4450  -47.4346 H         1 UNK         0.0600 
    183 H183        1.4375   -8.0001  -47.7152 H         1 UNK         0.0600 
    184 H184        0.2122  -10.8365  -46.9208 H         1 UNK         0.3000 
    185 H185       -2.6264  -10.2864  -44.9612 H         1 UNK         0.0600 
    186 H186       -3.0374   -8.3451  -46.4835 H         1 UNK         0.0600 
    187 H187       -2.4573   -9.2838  -47.8539 H         1 UNK         0.0600 
    188 H188       -3.9292   -9.7639  -47.0071 H         1 UNK         0.0600 
    189 H189       -2.3502  -11.7079  -47.4091 H         1 UNK         0.3000 
    190 H190       -2.3038  -21.8433  -44.6729 H         1 UNK         0.3000 
    191 H191       -4.4604  -23.3072  -43.5548 H         1 UNK         0.0600 
    192 H192       -3.1735  -23.0626  -41.4331 H         1 UNK         0.0600 
    193 H193       -3.2093  -21.5506  -42.3286 H         1 UNK         0.0600 
    194 H194       -1.7547  -22.5449  -42.3349 H         1 UNK         0.0600 
    195 H195       -1.1216  -24.3006  -44.3478 H         1 UNK         0.3000 
    196 H196       -1.3602  -27.0131  -43.4046 H         1 UNK         0.0600 
    197 H197        0.8097  -27.2821  -44.6048 H         1 UNK         0.0600 
    198 H198        0.8180  -25.8235  -43.6274 H         1 UNK         0.0600 
    199 H199        0.5985  -25.7138  -45.3735 H         1 UNK         0.0600 
    200 H200       -2.7831  -25.5007  -46.0630 H         1 UNK         0.3000 
    201 H201       -3.8840  -26.0871  -47.8615 H         1 UNK         0.0600 
    202 H202       -5.0159  -27.7116  -46.3322 H         1 UNK         0.0600 
    203 H203       -3.8714  -28.9638  -46.8138 H         1 UNK         0.0600 
    204 H204       -4.9799  -28.2794  -47.9929 H         1 UNK         0.0600 
    205 H205       -1.1347  -25.7900  -48.1914 H         1 UNK         0.3000 
    206 H206       -0.1286  -27.7952  -50.0693 H         1 UNK         0.0600 
    207 H207        1.3913  -26.5129  -48.5568 H         1 UNK         0.0600 
    208 H208        1.7770  -26.2357  -50.2496 H         1 UNK         0.0600 
    209 H209        0.9116  -25.0084  -49.3379 H         1 UNK         0.0600 
    210 H210       -2.2821  -27.5860  -51.2016 H         1 UNK         0.3000 
    211 H211       -3.5834  -27.0868  -52.9363 H         1 UNK         0.0600 
    212 H212       -1.0520  -25.9285  -54.2241 H         1 UNK         0.0600 
    213 H213       -2.5143  -26.4127  -55.0734 H         1 UNK         0.0600 
    214 H214       -1.5369  -27.6212  -54.2586 H         1 UNK         0.0600 
    215 H215       -3.6560  -25.2775  -50.8143 H         1 UNK         0.3000 
    216 H216       -4.3344  -23.2930  -50.0800 H         1 UNK         0.0600 
    217 H217       -5.9567  -21.9976  -51.4198 H         1 UNK         0.0600 
    218 H218       -6.3017  -23.7149  -51.5525 H         1 UNK         0.0600 
    219 H219       -5.5086  -22.8672  -52.8797 H         1 UNK         0.0600 
    220 H220       -1.7252  -23.3615  -50.6079 H         1 UNK         0.3000 
    221 H221        0.1527  -22.2401  -50.8734 H         1 UNK         0.0600 
    222 H222       -1.5481  -19.6865  -50.8339 H         1 UNK         0.0600 
    223 H223       -0.8580  -20.5048  -49.4349 H         1 UNK         0.0600 
    224 H224        0.1956  -19.7653  -50.6206 H         1 UNK         0.0600 
    225 H225       -0.7635  -23.4503  -53.0427 H         1 UNK         0.3000 
    226 H226       -0.6978  -23.7160  -55.2415 H         1 UNK         0.0600 
    227 H227        1.0705  -22.5985  -56.5512 H         1 UNK         0.0600 
    228 H228        1.3022  -21.3949  -55.2919 H         1 UNK         0.0600 
    229 H229        1.6983  -23.0852  -54.9847 H         1 UNK         0.0600 
    230 H230       -2.9406  -22.7485  -54.6143 H         1 UNK         0.3000 
    231 H231       -4.8100  -21.7495  -55.1798 H         1 UNK         0.0600 
    232 H232       -4.3310  -22.8479  -57.3584 H         1 UNK         0.0600 
    233 H233       -3.5106  -21.3971  -57.9333 H         1 UNK         0.0600 
    234 H234       -5.2346  -21.3598  -57.5888 H         1 UNK         0.0600 
    235 H235       -3.6664  -20.1147  -53.5708 H         1 UNK         0.3000 
    236 H236       -4.2650  -17.4076  -54.5889 H         1 UNK         0.0600 
    237 H237       -1.7535  -17.7483  -54.7836 H         1 UNK         0.0600 
    238 H238       -2.1810  -16.4933  -53.6391 H         1 UNK         0.0600 
    239 H239       -1.6897  -18.0872  -53.0592 H         1 UNK         0.0600 
    240 H240       -3.1212  -16.5322  -51.9029 H         1 UNK         0.3000 
    241 H241       -4.9985  -17.7019  -49.9684 H         1 UNK         0.0600 
    242 H242       -3.8173  -18.3135  -48.2089 H         1 UNK         0.3800 
    243 H243       -2.1763  -17.7939  -47.9101 H         1 UNK         0.3800 
    244 H244       -5.0869  -15.1017  -49.1091 H         1 UNK         0.0800 
    245 H245       -4.9224  -14.7747  -50.8034 H         1 UNK         0.0800 
    246 H246       -7.6484  -14.7465  -48.2883 H         1 UNK         0.0800 
    247 H247       -8.6891  -16.1105  -48.6027 H         1 UNK         0.0800 
@<TRIPOS>BOND
     1    1    2 1    
     2    1  127 1    
     3    1  128 1    
     4    1  129 1    
     5    2    3 2    
     6    2    4 am   BACKBONE|DICT|INTERRES
     7    4    5 1    
     8    4  130 1    
     9    5    6 1    
    10    5   65 1    
    11    5  131 1    
    12    6    7 1    
    13    6  132 1    
    14    6  133 1    
    15    7    8 1    
    16    8    9 1    
    17    8  134 1    
    18    8  135 1    
    19    9   10 ar   
    20    9   14 ar   
    21   10   11 ar   
    22   10  136 1    
    23   11   12 ar   
    24   11  126 1    
    25   12   13 ar   
    26   12  137 1    
    27   13   14 ar   
    28   13   15 1    
    29   14  138 1    
    30   15   16 1    
    31   15  139 1    
    32   15  140 1    
    33   16   17 1    
    34   17   18 1    
    35   17  141 1    
    36   17  142 1    
    37   18   19 1    
    38   18   67 1    
    39   18  143 1    
    40   19   20 am   BACKBONE|DICT|INTERRES
    41   19  144 1    
    42   20   21 2    
    43   20   22 1    
    44   22   23 1    
    45   22   24 1    
    46   22  145 1    
    47   23  146 1    
    48   23  147 1    
    49   23  148 1    
    50   24   25 am   BACKBONE|DICT|INTERRES
    51   24  149 1    
    52   25   26 2    
    53   25   27 1    
    54   27   28 1    
    55   27   29 1    
    56   27  150 1    
    57   28  151 1    
    58   28  152 1    
    59   28  153 1    
    60   29   30 am   BACKBONE|DICT|INTERRES
    61   29  154 1    
    62   30   31 2    
    63   30   32 1    
    64   32   33 1    
    65   32   34 1    
    66   32  155 1    
    67   33  156 1    
    68   33  157 1    
    69   33  158 1    
    70   34   35 am   BACKBONE|DICT|INTERRES
    71   34  159 1    
    72   35   36 2    
    73   35   37 1    
    74   37   38 1    
    75   37   39 1    
    76   37  160 1    
    77   38  161 1    
    78   38  162 1    
    79   38  163 1    
    80   39   40 am   BACKBONE|DICT|INTERRES
    81   39  164 1    
    82   40   41 2    
    83   40   42 1    
    84   42   43 1    
    85   42   44 1    
    86   42  165 1    
    87   43  166 1    
    88   43  167 1    
    89   43  168 1    
    90   44   45 am   BACKBONE|DICT|INTERRES
    91   44  169 1    
    92   45   46 2    
    93   45   47 1    
    94   47   48 1    
    95   47   49 1    
    96   47  170 1    
    97   48  171 1    
    98   48  172 1    
    99   48  173 1    
   100   49   50 am   BACKBONE|DICT|INTERRES
   101   49  174 1    
   102   50   51 2    
   103   50   52 1    
   104   52   53 1    
   105   52   54 1    
   106   52  175 1    
   107   53  176 1    
   108   53  177 1    
   109   53  178 1    
   110   54   55 am   BACKBONE|DICT|INTERRES
   111   54  179 1    
   112   55   56 2    
   113   55   57 1    
   114   57   58 1    
   115   57   59 1    
   116   57  180 1    
   117   58  181 1    
   118   58  182 1    
   119   58  183 1    
   120   59   60 am   BACKBONE|DICT|INTERRES
   121   59  184 1    
   122   60   61 2    
   123   60   62 1    
   124   62   63 1    
   125   62   64 1    
   126   62  185 1    
   127   63  186 1    
   128   63  187 1    
   129   63  188 1    
   130   64   65 am   BACKBONE|DICT|INTERRES
   131   64  189 1    
   132   65   66 2    
   133   67   68 2    
   134   67   69 am   BACKBONE|DICT|INTERRES
   135   69   70 1    
   136   69  190 1    
   137   70   71 1    
   138   70   72 1    
   139   70  191 1    
   140   71  192 1    
   141   71  193 1    
   142   71  194 1    
   143   72   73 2    
   144   72   74 am   BACKBONE|DICT|INTERRES
   145   74   75 1    
   146   74  195 1    
   147   75   76 1    
   148   75   77 1    
   149   75  196 1    
   150   76  197 1    
   151   76  198 1    
   152   76  199 1    
   153   77   78 2    
   154   77   79 am   BACKBONE|DICT|INTERRES
   155   79   80 1    
   156   79  200 1    
   157   80   81 1    
   158   80   82 1    
   159   80  201 1    
   160   81  202 1    
   161   81  203 1    
   162   81  204 1    
   163   82   83 2    
   164   82   84 am   BACKBONE|DICT|INTERRES
   165   84   85 1    
   166   84  205 1    
   167   85   86 1    
   168   85   87 1    
   169   85  206 1    
   170   86  207 1    
   171   86  208 1    
   172   86  209 1    
   173   87   88 2    
   174   87   89 am   BACKBONE|DICT|INTERRES
   175   89   90 1    
   176   89  210 1    
   177   90   91 1    
   178   90   92 1    
   179   90  211 1    
   180   91  212 1    
   181   91  213 1    
   182   91  214 1    
   183   92   93 2    
   184   92   94 am   BACKBONE|DICT|INTERRES
   185   94   95 1    
   186   94  215 1    
   187   95   96 1    
   188   95   97 1    
   189   95  216 1    
   190   96  217 1    
   191   96  218 1    
   192   96  219 1    
   193   97   98 2    
   194   97   99 am   BACKBONE|DICT|INTERRES
   195   99  100 1    
   196   99  220 1    
   197  100  101 1    
   198  100  102 1    
   199  100  221 1    
   200  101  222 1    
   201  101  223 1    
   202  101  224 1    
   203  102  103 2    
   204  102  104 am   BACKBONE|DICT|INTERRES
   205  104  105 1    
   206  104  225 1    
   207  105  106 1    
   208  105  107 1    
   209  105  226 1    
   210  106  227 1    
   211  106  228 1    
   212  106  229 1    
   213  107  108 2    
   214  107  109 am   BACKBONE|DICT|INTERRES
   215  109  110 1    
   216  109  230 1    
   217  110  111 1    
   218  110  112 1    
   219  110  231 1    
   220  111  232 1    
   221  111  233 1    
   222  111  234 1    
   223  112  113 2    
   224  112  114 am   BACKBONE|DICT|INTERRES
   225  114  115 1    
   226  114  235 1    
   227  115  116 1    
   228  115  117 1    
   229  115  236 1    
   230  116  237 1    
   231  116  238 1    
   232  116  239 1    
   233  117  118 2    
   234  117  119 am   BACKBONE|DICT|INTERRES
   235  119  120 1    
   236  119  240 1    
   237  120  121 1    
   238  120  124 1    
   239  120  241 1    
   240  121  122 am   BACKBONE|DICT|INTERRES
   241  121  123 2    
   242  122  242 1    
   243  122  243 1    
   244  124  125 1    
   245  124  244 1    
   246  124  245 1    
   247  125  126 1    
   248  126  246 1    
   249  126  247 1    
@<TRIPOS>SUBSTRUCTURE
     1 UNK         1 GROUP             0       ****    0 ROOT    
