@<TRIPOS>MOLECULE
3R540
247   249    1
SMALL
USER_CHARGES


@<TRIPOS>ATOM
      1 CA          0.7121  -12.4913  -50.6673 C.3       0 UNK        -0.1800 
      2 C           0.4686  -13.5608  -49.6135 C.2       0 UNK         0.5000 
      3 O          -0.4397  -14.3748  -49.7744 O.2       0 UNK        -0.5000 
      4 N           1.2735  -13.5636  -48.5427 N.am      1 UNK        -0.5000 
      5 CA          1.2133  -14.5131  -47.4201 C.3       1 UNK         0.1400 
      6 C6          1.5196  -15.9806  -47.8252 C.3       23 UNK        -0.0398 
      7 S7          3.1580  -16.1833  -48.6029 S.3       23 UNK        -0.2404 
      8 C8          2.7141  -16.6128  -50.3175 C.3       23 UNK        -0.0205 
      9 C9          2.0452  -17.9767  -50.4155 C.ar      23 UNK        -0.0193 
     10 C10         0.6873  -18.0790  -50.7319 C.ar      23 UNK        -0.1150 
     11 C11         0.0605  -19.3266  -50.8167 C.ar      23 UNK        -0.0193 
     12 C12         0.8183  -20.4815  -50.5723 C.ar      23 UNK        -0.1150 
     13 C13         2.1798  -20.3941  -50.2721 C.ar      23 UNK        -0.0193 
     14 C14         2.7881  -19.1392  -50.1975 C.ar      23 UNK        -0.1150 
     15 C15         2.9999  -21.6537  -50.0395 C.3       23 UNK        -0.0205 
     16 S16         3.1852  -22.0217  -48.2682 S.3       23 UNK        -0.2404 
     17 C17         1.5379  -22.6863  -47.8403 C.3       23 UNK        -0.0398 
     18 CA          1.6189  -23.7703  -46.7413 C.3       11 UNK         0.1400 
     19 N           2.2633  -23.2721  -45.5274 N.am      11 UNK        -0.5000 
     20 C           2.9359  -24.0313  -44.6538 C.2       10 UNK         0.5000 
     21 O           3.0356  -25.2549  -44.7593 O.2       10 UNK        -0.5000 
     22 CA          3.6431  -23.2953  -43.5009 C.3       10 UNK         0.1400 
     23 CB          4.8355  -24.0837  -42.9240 C.3       10 UNK        -0.1800 
     24 N           4.0852  -21.9722  -43.9417 N.am      10 UNK        -0.5000 
     25 C           4.1862  -20.8973  -43.1547 C.2       9 UNK         0.5000 
     26 O           3.9985  -20.9285  -41.9372 O.2       9 UNK        -0.5000 
     27 CA          4.5280  -19.5525  -43.8199 C.3       9 UNK         0.1400 
     28 CB          4.6886  -19.5990  -45.3548 C.3       9 UNK        -0.1800 
     29 N           3.4631  -18.6250  -43.4644 N.am      9 UNK        -0.5000 
     30 C           3.6226  -17.3600  -43.0647 C.2       8 UNK         0.5000 
     31 O           4.7039  -16.7703  -43.0644 O.2       8 UNK        -0.5000 
     32 CA          2.3610  -16.6320  -42.5608 C.3       8 UNK         0.1400 
     33 CB          1.7457  -15.7785  -43.6784 C.3       8 UNK        -0.1800 
     34 N           1.3398  -17.5440  -42.0369 N.am      8 UNK        -0.5000 
     35 C           1.4318  -18.1992  -40.8697 C.2       7 UNK         0.5000 
     36 O           2.3862  -18.0899  -40.0994 O.2       7 UNK        -0.5000 
     37 CA          0.2686  -19.1342  -40.5013 C.3       7 UNK         0.1400 
     38 CB         -0.9119  -18.3287  -39.9347 C.3       7 UNK        -0.1800 
     39 N          -0.1867  -19.8947  -41.6643 N.am      7 UNK        -0.5000 
     40 C           0.0754  -21.1910  -41.8879 C.2       6 UNK         0.5000 
     41 O           0.7160  -21.9050  -41.1169 O.2       6 UNK        -0.5000 
     42 CA         -0.4790  -21.8078  -43.1882 C.3       6 UNK         0.1400 
     43 CB         -1.7772  -22.5799  -42.9087 C.3       6 UNK        -0.1800 
     44 N          -0.7262  -20.8062  -44.2256 N.am      6 UNK        -0.5000 
     45 C           0.2361  -20.2064  -44.9368 C.2       5 UNK         0.5000 
     46 O           1.4178  -20.5420  -44.8862 O.2       5 UNK        -0.5000 
     47 CA         -0.1686  -19.0027  -45.8079 C.3       5 UNK         0.1400 
     48 CB         -0.0632  -19.3226  -47.3026 C.3       5 UNK        -0.1800 
     49 N          -1.5068  -18.4822  -45.5294 N.am      5 UNK        -0.5000 
     50 C          -1.8596  -17.8425  -44.4109 C.2       4 UNK         0.5000 
     51 O          -1.1133  -17.7056  -43.4380 O.2       4 UNK        -0.5000 
     52 CA         -3.2906  -17.3091  -44.3398 C.3       4 UNK         0.1400 
     53 CB         -4.1312  -18.1445  -43.3585 C.3       4 UNK        -0.1800 
     54 N          -3.2352  -15.9230  -43.8951 N.am      4 UNK        -0.5000 
     55 C          -4.1522  -14.9903  -44.1713 C.2       3 UNK         0.5000 
     56 O          -5.1723  -15.2077  -44.8248 O.2       3 UNK        -0.5000 
     57 CA         -3.8954  -13.5663  -43.6406 C.3       3 UNK         0.1400 
     58 CB         -4.7460  -13.3115  -42.3866 C.3       3 UNK        -0.1800 
     59 N          -2.4898  -13.3092  -43.3082 N.am      3 UNK        -0.5000 
     60 C          -1.4907  -12.9904  -44.1446 C.2       2 UNK         0.5000 
     61 O          -0.3519  -12.7910  -43.7206 O.2       2 UNK        -0.5000 
     62 CA         -1.7661  -12.8126  -45.6573 C.3       2 UNK         0.1400 
     63 CB         -2.1702  -11.3630  -45.9698 C.3       2 UNK        -0.1800 
     64 N          -0.5899  -13.1459  -46.4600 N.am      2 UNK        -0.5000 
     65 C          -0.1047  -14.3846  -46.6194 C.2       1 UNK         0.5000 
     66 O          -0.6584  -15.3861  -46.1679 O.2       1 UNK        -0.5000 
     67 C           0.2272  -24.3169  -46.3776 C.2       11 UNK         0.5000 
     68 O          -0.6824  -23.5340  -46.0963 O.2       11 UNK        -0.5000 
     69 N           0.0920  -25.6501  -46.3851 N.am      12 UNK        -0.5000 
     70 CA         -1.0787  -26.4139  -45.9324 C.3       12 UNK         0.1400 
     71 CB         -0.7498  -27.9123  -46.0262 C.3       12 UNK        -0.1800 
     72 C          -2.4091  -26.1087  -46.6540 C.2       12 UNK         0.5000 
     73 O          -3.4661  -26.4814  -46.1435 O.2       12 UNK        -0.5000 
     74 N          -2.3440  -25.4284  -47.8071 N.am      13 UNK        -0.5000 
     75 CA         -3.4907  -24.8880  -48.5397 C.3       13 UNK         0.1400 
     76 CB         -2.9894  -24.2704  -49.8523 C.3       13 UNK        -0.1800 
     77 C          -4.2958  -23.8462  -47.7354 C.2       13 UNK         0.5000 
     78 O          -5.5107  -23.7596  -47.9131 O.2       13 UNK        -0.5000 
     79 N          -3.6042  -23.0921  -46.8644 N.am      14 UNK        -0.5000 
     80 CA         -4.1388  -22.1327  -45.8892 C.3       14 UNK         0.1400 
     81 CB         -4.9742  -22.8643  -44.8186 C.3       14 UNK        -0.1800 
     82 C          -4.8890  -20.9180  -46.4802 C.2       14 UNK         0.5000 
     83 O          -5.5471  -20.1952  -45.7309 O.2       14 UNK        -0.5000 
     84 N          -4.7569  -20.6849  -47.7908 N.am      15 UNK        -0.5000 
     85 CA         -5.2454  -19.4896  -48.4768 C.3       15 UNK         0.1400 
     86 CB         -5.6610  -19.8748  -49.9070 C.3       15 UNK        -0.1800 
     87 C          -4.1699  -18.3850  -48.4499 C.2       15 UNK         0.5000 
     88 O          -3.1570  -18.5262  -47.7628 O.2       15 UNK        -0.5000 
     89 N          -4.3953  -17.3010  -49.1944 N.am      16 UNK        -0.5000 
     90 CA         -3.4749  -16.1781  -49.3441 C.3       16 UNK         0.1400 
     91 CB         -3.6220  -15.2138  -48.1525 C.3       16 UNK        -0.1800 
     92 C          -3.7604  -15.4783  -50.6806 C.2       16 UNK         0.5000 
     93 O          -4.7428  -15.8088  -51.3498 O.2       16 UNK        -0.5000 
     94 N          -2.8867  -14.5312  -51.0422 N.am      17 UNK        -0.5000 
     95 CA         -2.9254  -13.6856  -52.2410 C.3       17 UNK         0.1400 
     96 CB         -4.1736  -12.7782  -52.2382 C.3       17 UNK        -0.1800 
     97 C          -2.7543  -14.4799  -53.5525 C.2       17 UNK         0.5000 
     98 O          -3.2927  -14.0831  -54.5874 O.2       17 UNK        -0.5000 
     99 N          -1.9936  -15.5840  -53.4763 N.am      18 UNK        -0.5000 
    100 CA        -1.6715  -16.5178  -54.5623 C.3       18 UNK         0.1400 
    101 CB        -0.7374  -15.8487  -55.5922 C.3       18 UNK        -0.1800 
    102 C         -2.9224  -17.1603  -55.2028 C.2       18 UNK         0.5000 
    103 O         -2.9873  -17.3114  -56.4248 O.2       18 UNK        -0.5000 
    104 N         -3.8996  -17.5154  -54.3560 N.am      19 UNK        -0.5000 
    105 CA        -5.1412  -18.1958  -54.7270 C.3       19 UNK         0.1400 
    106 CB        -6.0154  -18.3329  -53.4719 C.3       19 UNK        -0.1800 
    107 C         -4.9013  -19.5843  -55.3498 C.2       19 UNK         0.5000 
    108 O         -3.8921  -20.2277  -55.0528 O.2       19 UNK        -0.5000 
    109 N         -5.8652  -20.0422  -56.1612 N.am      20 UNK        -0.5000 
    110 CA        -5.8299  -21.3116  -56.8992 C.3       20 UNK         0.1400 
    111 CB        -7.1013  -21.4313  -57.7530 C.3       20 UNK        -0.1800 
    112 C         -5.6546  -22.5643  -56.0175 C.2       20 UNK         0.5000 
    113 O         -5.0674  -23.5467  -56.4732 O.2       20 UNK        -0.5000 
    114 N         -6.1133  -22.4891  -54.7593 N.am      21 UNK        -0.5000 
    115 CA        -5.9194  -23.5049  -53.7207 C.3       21 UNK         0.1400 
    116 CB        -6.6522  -23.0586  -52.4457 C.3       21 UNK        -0.1800 
    117 C         -4.4373  -23.7938  -53.4054 C.2       21 UNK         0.5000 
    118 O         -4.1096  -24.9190  -53.0280 O.2       21 UNK        -0.5000 
    119 N         -3.5758  -22.7849  -53.5852 N.am      22 UNK        -0.5000 
    120 CA        -2.1170  -22.8782  -53.4358 C.3       22 UNK         0.1400 
    121 C         -1.3898  -23.4097  -54.7075 C.2       22 UNK         0.5000 
    122 N         -2.0762  -23.7181  -55.8029 N.am      22 UNK        -0.7600 
    123 O         -0.1716  -23.5633  -54.6976 O.2       22 UNK        -0.5000 
    124 C124       -1.5100  -21.5340  -52.9558 C.3       23 UNK        -0.0398 
    125 S125       -2.1894  -21.0056  -51.3451 S.3       23 UNK        -0.2404 
    126 C126       -1.4328  -19.3568  -51.1508 C.3       23 UNK        -0.0205 
    127 H127       -0.1535  -11.8329  -50.7388 H         1 UNK         0.0600 
    128 H128        0.8712  -12.9552  -51.6407 H         1 UNK         0.0600 
    129 H129        1.5859  -11.8829  -50.4334 H         1 UNK         0.0600 
    130 H130        2.0071  -12.8716  -48.4811 H         1 UNK         0.3000 
    131 H131        1.9968  -14.2030  -46.7270 H         1 UNK         0.0600 
    132 H132        1.5185  -16.6225  -46.9453 H         1 UNK         0.0800 
    133 H133        0.7381  -16.3682  -48.4780 H         1 UNK         0.0800 
    134 H134        2.0739  -15.8340  -50.7332 H         1 UNK         0.0800 
    135 H135        3.6206  -16.6174  -50.9241 H         1 UNK         0.0800 
    136 H136        0.1121  -17.1793  -50.9010 H         1 UNK         0.1150 
    137 H137        0.3624  -21.4588  -50.6101 H         1 UNK         0.1150 
    138 H138        3.8393  -19.0655  -49.9562 H         1 UNK         0.1150 
    139 H139        2.5572  -22.5073  -50.5551 H         1 UNK         0.0800 
    140 H140        3.9922  -21.5225  -50.4734 H         1 UNK         0.0800 
    141 H141        0.9069  -21.8622  -47.5171 H         1 UNK         0.0800 
    142 H142        1.0716  -23.0968  -48.7371 H         1 UNK         0.0800 
    143 H143        2.2186  -24.5895  -47.1450 H         1 UNK         0.0600 
    144 H144        2.1426  -22.2807  -45.3370 H         1 UNK         0.3000 
    145 H145        2.8935  -23.1784  -42.7153 H         1 UNK         0.0600 
    146 H146        5.2937  -23.5542  -42.0887 H         1 UNK         0.0600 
    147 H147        5.6055  -24.2505  -43.6781 H         1 UNK         0.0600 
    148 H148        4.5202  -25.0588  -42.5509 H         1 UNK         0.0600 
    149 H149        4.2355  -21.8660  -44.9358 H         1 UNK         0.3000 
    150 H150        5.4729  -19.2235  -43.3829 H         1 UNK         0.0600 
    151 H151        5.4908  -20.2763  -45.6497 H         1 UNK         0.0600 
    152 H152        4.9441  -18.6142  -45.7463 H         1 UNK         0.0600 
    153 H153        3.7755  -19.9194  -45.8568 H         1 UNK         0.0600 
    154 H154        2.5434  -19.0400  -43.4009 H         1 UNK         0.3000 
    155 H155        2.6665  -15.9625  -41.7540 H         1 UNK         0.0600 
    156 H156        2.4599  -15.0435  -44.0509 H         1 UNK         0.0600 
    157 H157        0.8719  -15.2331  -43.3222 H         1 UNK         0.0600 
    158 H158        1.4324  -16.3899  -44.5225 H         1 UNK         0.0600 
    159 H159        0.4873  -17.6325  -42.5853 H         1 UNK         0.3000 
    160 H160        0.6197  -19.8097  -39.7183 H         1 UNK         0.0600 
    161 H161       -1.7226  -18.9875  -39.6233 H         1 UNK         0.0600 
    162 H162       -1.3147  -17.6273  -40.6664 H         1 UNK         0.0600 
    163 H163       -0.6069  -17.7524  -39.0603 H         1 UNK         0.0600 
    164 H164       -0.6941  -19.3673  -42.3647 H         1 UNK         0.3000 
    165 H165        0.2627  -22.5194  -43.5552 H         1 UNK         0.0600 
    166 H166       -2.0922  -23.1430  -43.7863 H         1 UNK         0.0600 
    167 H167       -1.6386  -23.3009  -42.1020 H         1 UNK         0.0600 
    168 H168       -2.5914  -21.9145  -42.6194 H         1 UNK         0.0600 
    169 H169       -1.6709  -20.4721  -44.3294 H         1 UNK         0.3000 
    170 H170        0.5443  -18.2096  -45.5868 H         1 UNK         0.0600 
    171 H171       -0.7103  -20.1534  -47.5861 H         1 UNK         0.0600 
    172 H172       -0.3506  -18.4632  -47.9076 H         1 UNK         0.0600 
    173 H173        0.9618  -19.5741  -47.5765 H         1 UNK         0.0600 
    174 H174       -2.1645  -18.5213  -46.3092 H         1 UNK         0.3000 
    175 H175       -3.7388  -17.3608  -45.3343 H         1 UNK         0.0600 
    176 H176       -3.7524  -18.0682  -42.3384 H         1 UNK         0.0600 
    177 H177       -5.1716  -17.8194  -43.3554 H         1 UNK         0.0600 
    178 H178       -4.1225  -19.1996  -43.6331 H         1 UNK         0.0600 
    179 H179       -2.3946  -15.6689  -43.3931 H         1 UNK         0.3000 
    180 H180       -4.2249  -12.8627  -44.4063 H         1 UNK         0.0600 
    181 H181       -4.6296  -12.2871  -42.0321 H         1 UNK         0.0600 
    182 H182       -4.4735  -13.9828  -41.5711 H         1 UNK         0.0600 
    183 H183       -5.8062  -13.4625  -42.5949 H         1 UNK         0.0600 
    184 H184       -2.2651  -13.3889  -42.3276 H         1 UNK         0.3000 
    185 H185       -2.5707  -13.4764  -45.9713 H         1 UNK         0.0600 
    186 H186       -2.4030  -11.2388  -47.0277 H         1 UNK         0.0600 
    187 H187       -3.0554  -11.0656  -45.4073 H         1 UNK         0.0600 
    188 H188       -1.3742  -10.6614  -45.7168 H         1 UNK         0.0600 
    189 H189       -0.0697  -12.3717  -46.8445 H         1 UNK         0.3000 
    190 H190        0.9037  -26.2047  -46.6181 H         1 UNK         0.3000 
    191 H191       -1.2329  -26.1659  -44.8804 H         1 UNK         0.0600 
    192 H192       -1.5777  -28.5211  -45.6600 H         1 UNK         0.0600 
    193 H193        0.1242  -28.1637  -45.4248 H         1 UNK         0.0600 
    194 H194       -0.5497  -28.2150  -47.0548 H         1 UNK         0.0600 
    195 H195       -1.4297  -25.1794  -48.1519 H         1 UNK         0.3000 
    196 H196       -4.1626  -25.7149  -48.7783 H         1 UNK         0.0600 
    197 H197       -3.8065  -23.8036  -50.4038 H         1 UNK         0.0600 
    198 H198       -2.5502  -25.0268  -50.5028 H         1 UNK         0.0600 
    199 H199       -2.2358  -23.5033  -49.6721 H         1 UNK         0.0600 
    200 H200       -2.6045  -23.2562  -46.7914 H         1 UNK         0.3000 
    201 H201       -3.2648  -21.7133  -45.3918 H         1 UNK         0.0600 
    202 H202       -5.9140  -23.2369  -45.2271 H         1 UNK         0.0600 
    203 H203       -5.2183  -22.2009  -43.9882 H         1 UNK         0.0600 
    204 H204       -4.4311  -23.7138  -44.4044 H         1 UNK         0.0600 
    205 H205       -4.1647  -21.3014  -48.3263 H         1 UNK         0.3000 
    206 H206       -6.1274  -19.1039  -47.9616 H         1 UNK         0.0600 
    207 H207       -6.3467  -20.7224  -49.9008 H         1 UNK         0.0600 
    208 H208       -6.1783  -19.0525  -50.4011 H         1 UNK         0.0600 
    209 H209       -4.8039  -20.1454  -50.5214 H         1 UNK         0.0600 
    210 H210       -5.2112  -17.2447  -49.7914 H         1 UNK         0.3000 
    211 H211       -2.4484  -16.5503  -49.3791 H         1 UNK         0.0600 
    212 H212       -4.6418  -14.8390  -48.0602 H         1 UNK         0.0600 
    213 H213       -2.9604  -14.3534  -48.2569 H         1 UNK         0.0600 
    214 H214       -3.3587  -15.7046  -47.2157 H         1 UNK         0.0600 
    215 H215       -2.0649  -14.3951  -50.4521 H         1 UNK         0.3000 
    216 H216       -2.0525  -13.0350  -52.1743 H         1 UNK         0.0600 
    217 H217       -4.1225  -12.0401  -53.0394 H         1 UNK         0.0600 
    218 H218       -4.2603  -12.2305  -51.2998 H         1 UNK         0.0600 
    219 H219       -5.0913  -13.3496  -52.3800 H         1 UNK         0.0600 
    220 H220       -1.5988  -15.8053  -52.5740 H         1 UNK         0.3000 
    221 H221       -1.1153  -17.3379  -54.1061 H         1 UNK         0.0600 
    222 H222       -0.3901  -16.5706  -56.3323 H         1 UNK         0.0600 
    223 H223       -1.2381  -15.0436  -56.1308 H         1 UNK         0.0600 
    224 H224        0.1461  -15.4308  -55.1097 H         1 UNK         0.0600 
    225 H225       -3.7791  -17.3168  -53.3741 H         1 UNK         0.3000 
    226 H226       -5.6604  -17.5711  -55.4564 H         1 UNK         0.0600 
    227 H227       -6.2449  -17.3584  -53.0408 H         1 UNK         0.0600 
    228 H228       -6.9662  -18.8159  -53.7003 H         1 UNK         0.0600 
    229 H229       -5.5173  -18.9309  -52.7087 H         1 UNK         0.0600 
    230 H230       -6.6710  -19.4575  -56.3308 H         1 UNK         0.3000 
    231 H231       -4.9704  -21.2708  -57.5715 H         1 UNK         0.0600 
    232 H232       -7.0960  -22.3535  -58.3357 H         1 UNK         0.0600 
    233 H233       -7.1831  -20.6045  -58.4588 H         1 UNK         0.0600 
    234 H234       -8.0008  -21.4381  -57.1360 H         1 UNK         0.0600 
    235 H235       -6.5778  -21.6391  -54.4770 H         1 UNK         0.3000 
    236 H236       -6.3701  -24.4345  -54.0739 H         1 UNK         0.0600 
    237 H237       -6.2594  -22.1135  -52.0685 H         1 UNK         0.0600 
    238 H238       -7.7198  -22.9320  -52.6260 H         1 UNK         0.0600 
    239 H239       -6.5427  -23.7984  -51.6513 H         1 UNK         0.0600 
    240 H240       -3.9143  -21.9001  -53.9485 H         1 UNK         0.3000 
    241 H241       -1.9052  -23.6156  -52.6595 H         1 UNK         0.0600 
    242 H242       -3.0837  -23.6216  -55.8381 H         1 UNK         0.3800 
    243 H243       -1.5834  -24.0670  -56.6096 H         1 UNK         0.3800 
    244 H244       -1.6890  -20.7490  -53.6915 H         1 UNK         0.0800 
    245 H245       -0.4270  -21.6176  -52.8584 H         1 UNK         0.0800 
    246 H246       -1.6150  -18.7803  -52.0582 H         1 UNK         0.0800 
    247 H247       -1.9623  -18.8446  -50.3485 H         1 UNK         0.0800 
@<TRIPOS>BOND
     1    1    2 1    
     2    1  127 1    
     3    1  128 1    
     4    1  129 1    
     5    2    3 2    
     6    2    4 am   BACKBONE|DICT|INTERRES
     7    4    5 1    
     8    4  130 1    
     9    5    6 1    
    10    5   65 1    
    11    5  131 1    
    12    6    7 1    
    13    6  132 1    
    14    6  133 1    
    15    7    8 1    
    16    8    9 1    
    17    8  134 1    
    18    8  135 1    
    19    9   10 ar   
    20    9   14 ar   
    21   10   11 ar   
    22   10  136 1    
    23   11   12 ar   
    24   11  126 1    
    25   12   13 ar   
    26   12  137 1    
    27   13   14 ar   
    28   13   15 1    
    29   14  138 1    
    30   15   16 1    
    31   15  139 1    
    32   15  140 1    
    33   16   17 1    
    34   17   18 1    
    35   17  141 1    
    36   17  142 1    
    37   18   19 1    
    38   18   67 1    
    39   18  143 1    
    40   19   20 am   BACKBONE|DICT|INTERRES
    41   19  144 1    
    42   20   21 2    
    43   20   22 1    
    44   22   23 1    
    45   22   24 1    
    46   22  145 1    
    47   23  146 1    
    48   23  147 1    
    49   23  148 1    
    50   24   25 am   BACKBONE|DICT|INTERRES
    51   24  149 1    
    52   25   26 2    
    53   25   27 1    
    54   27   28 1    
    55   27   29 1    
    56   27  150 1    
    57   28  151 1    
    58   28  152 1    
    59   28  153 1    
    60   29   30 am   BACKBONE|DICT|INTERRES
    61   29  154 1    
    62   30   31 2    
    63   30   32 1    
    64   32   33 1    
    65   32   34 1    
    66   32  155 1    
    67   33  156 1    
    68   33  157 1    
    69   33  158 1    
    70   34   35 am   BACKBONE|DICT|INTERRES
    71   34  159 1    
    72   35   36 2    
    73   35   37 1    
    74   37   38 1    
    75   37   39 1    
    76   37  160 1    
    77   38  161 1    
    78   38  162 1    
    79   38  163 1    
    80   39   40 am   BACKBONE|DICT|INTERRES
    81   39  164 1    
    82   40   41 2    
    83   40   42 1    
    84   42   43 1    
    85   42   44 1    
    86   42  165 1    
    87   43  166 1    
    88   43  167 1    
    89   43  168 1    
    90   44   45 am   BACKBONE|DICT|INTERRES
    91   44  169 1    
    92   45   46 2    
    93   45   47 1    
    94   47   48 1    
    95   47   49 1    
    96   47  170 1    
    97   48  171 1    
    98   48  172 1    
    99   48  173 1    
   100   49   50 am   BACKBONE|DICT|INTERRES
   101   49  174 1    
   102   50   51 2    
   103   50   52 1    
   104   52   53 1    
   105   52   54 1    
   106   52  175 1    
   107   53  176 1    
   108   53  177 1    
   109   53  178 1    
   110   54   55 am   BACKBONE|DICT|INTERRES
   111   54  179 1    
   112   55   56 2    
   113   55   57 1    
   114   57   58 1    
   115   57   59 1    
   116   57  180 1    
   117   58  181 1    
   118   58  182 1    
   119   58  183 1    
   120   59   60 am   BACKBONE|DICT|INTERRES
   121   59  184 1    
   122   60   61 2    
   123   60   62 1    
   124   62   63 1    
   125   62   64 1    
   126   62  185 1    
   127   63  186 1    
   128   63  187 1    
   129   63  188 1    
   130   64   65 am   BACKBONE|DICT|INTERRES
   131   64  189 1    
   132   65   66 2    
   133   67   68 2    
   134   67   69 am   BACKBONE|DICT|INTERRES
   135   69   70 1    
   136   69  190 1    
   137   70   71 1    
   138   70   72 1    
   139   70  191 1    
   140   71  192 1    
   141   71  193 1    
   142   71  194 1    
   143   72   73 2    
   144   72   74 am   BACKBONE|DICT|INTERRES
   145   74   75 1    
   146   74  195 1    
   147   75   76 1    
   148   75   77 1    
   149   75  196 1    
   150   76  197 1    
   151   76  198 1    
   152   76  199 1    
   153   77   78 2    
   154   77   79 am   BACKBONE|DICT|INTERRES
   155   79   80 1    
   156   79  200 1    
   157   80   81 1    
   158   80   82 1    
   159   80  201 1    
   160   81  202 1    
   161   81  203 1    
   162   81  204 1    
   163   82   83 2    
   164   82   84 am   BACKBONE|DICT|INTERRES
   165   84   85 1    
   166   84  205 1    
   167   85   86 1    
   168   85   87 1    
   169   85  206 1    
   170   86  207 1    
   171   86  208 1    
   172   86  209 1    
   173   87   88 2    
   174   87   89 am   BACKBONE|DICT|INTERRES
   175   89   90 1    
   176   89  210 1    
   177   90   91 1    
   178   90   92 1    
   179   90  211 1    
   180   91  212 1    
   181   91  213 1    
   182   91  214 1    
   183   92   93 2    
   184   92   94 am   BACKBONE|DICT|INTERRES
   185   94   95 1    
   186   94  215 1    
   187   95   96 1    
   188   95   97 1    
   189   95  216 1    
   190   96  217 1    
   191   96  218 1    
   192   96  219 1    
   193   97   98 2    
   194   97   99 am   BACKBONE|DICT|INTERRES
   195   99  100 1    
   196   99  220 1    
   197  100  101 1    
   198  100  102 1    
   199  100  221 1    
   200  101  222 1    
   201  101  223 1    
   202  101  224 1    
   203  102  103 2    
   204  102  104 am   BACKBONE|DICT|INTERRES
   205  104  105 1    
   206  104  225 1    
   207  105  106 1    
   208  105  107 1    
   209  105  226 1    
   210  106  227 1    
   211  106  228 1    
   212  106  229 1    
   213  107  108 2    
   214  107  109 am   BACKBONE|DICT|INTERRES
   215  109  110 1    
   216  109  230 1    
   217  110  111 1    
   218  110  112 1    
   219  110  231 1    
   220  111  232 1    
   221  111  233 1    
   222  111  234 1    
   223  112  113 2    
   224  112  114 am   BACKBONE|DICT|INTERRES
   225  114  115 1    
   226  114  235 1    
   227  115  116 1    
   228  115  117 1    
   229  115  236 1    
   230  116  237 1    
   231  116  238 1    
   232  116  239 1    
   233  117  118 2    
   234  117  119 am   BACKBONE|DICT|INTERRES
   235  119  120 1    
   236  119  240 1    
   237  120  121 1    
   238  120  124 1    
   239  120  241 1    
   240  121  122 am   BACKBONE|DICT|INTERRES
   241  121  123 2    
   242  122  242 1    
   243  122  243 1    
   244  124  125 1    
   245  124  244 1    
   246  124  245 1    
   247  125  126 1    
   248  126  246 1    
   249  126  247 1    
@<TRIPOS>SUBSTRUCTURE
     1 UNK         1 GROUP             0       ****    0 ROOT    
