@<TRIPOS>MOLECULE
3R540
247   249    1
SMALL
USER_CHARGES


@<TRIPOS>ATOM
      1 CA          0.2854  -11.9158  -53.0039 C.3       0 UNK        -0.1800 
      2 C          -0.0981  -12.4075  -51.6158 C.2       0 UNK         0.5000 
      3 O          -1.2682  -12.7032  -51.3759 O.2       0 UNK        -0.5000 
      4 N           0.8789  -12.4792  -50.7013 N.am      1 UNK        -0.5000 
      5 CA          0.8019  -12.9651  -49.3128 C.3       1 UNK         0.1400 
      6 C6          0.3182  -14.4321  -49.1840 C.3       23 UNK        -0.0398 
      7 S7          1.4198  -15.6432  -49.9815 S.3       23 UNK        -0.2404 
      8 C8          0.8710  -17.1539  -49.1296 C.3       23 UNK        -0.0205 
      9 C9          1.7642  -18.3394  -49.4490 C.ar      23 UNK        -0.0193 
     10 C10         1.4406  -19.2038  -50.4977 C.ar      23 UNK        -0.1150 
     11 C11         2.2555  -20.3046  -50.7984 C.ar      23 UNK        -0.0193 
     12 C12         3.3985  -20.5271  -50.0216 C.ar      23 UNK        -0.1150 
     13 C13         3.7285  -19.6743  -48.9632 C.ar      23 UNK        -0.0193 
     14 C14         2.9062  -18.5812  -48.6827 C.ar      23 UNK        -0.1150 
     15 C15         4.9834  -19.9149  -48.1351 C.3       23 UNK        -0.0205 
     16 S16         4.6173  -20.7541  -46.5606 S.3       23 UNK        -0.2404 
     17 C17         4.1291  -22.4092  -47.1509 C.3       23 UNK        -0.0398 
     18 CA          4.3829  -23.5392  -46.1175 C.3       11 UNK         0.1400 
     19 N           3.7438  -23.2621  -44.8253 N.am      11 UNK        -0.5000 
     20 C           4.1990  -23.6532  -43.6273 C.2       10 UNK         0.5000 
     21 O           5.2656  -24.2457  -43.4643 O.2       10 UNK        -0.5000 
     22 CA          3.2992  -23.3623  -42.4066 C.3       10 UNK         0.1400 
     23 CB          3.7669  -22.0858  -41.6919 C.3       10 UNK        -0.1800 
     24 N           1.8803  -23.2243  -42.7496 N.am      10 UNK        -0.5000 
     25 C           1.0961  -24.2213  -43.1901 C.2       9 UNK         0.5000 
     26 O           1.4729  -25.3884  -43.2881 O.2       9 UNK        -0.5000 
     27 CA         -0.3122  -23.8416  -43.6955 C.3       9 UNK         0.1400 
     28 CB         -1.3464  -23.9288  -42.5648 C.3       9 UNK        -0.1800 
     29 N          -0.3590  -22.5044  -44.2858 N.am      9 UNK        -0.5000 
     30 C           0.3865  -22.0940  -45.3207 C.2       8 UNK         0.5000 
     31 O           1.0394  -22.8727  -46.0172 O.2       8 UNK        -0.5000 
     32 CA          0.5026  -20.5727  -45.5668 C.3       8 UNK         0.1400 
     33 CB         -0.0994  -20.1847  -46.9199 C.3       8 UNK        -0.1800 
     34 N          -0.1025  -19.7180  -44.5417 N.am      8 UNK        -0.5000 
     35 C           0.1907  -19.6641  -43.2354 C.2       7 UNK         0.5000 
     36 O           1.0239  -20.3907  -42.6930 O.2       7 UNK        -0.5000 
     37 CA         -0.5997  -18.6492  -42.3860 C.3       7 UNK         0.1400 
     38 CB          0.3114  -17.4884  -41.9586 C.3       7 UNK        -0.1800 
     39 N          -1.7757  -18.1067  -43.0762 N.am      7 UNK        -0.5000 
     40 C          -2.9397  -18.7522  -43.2433 C.2       6 UNK         0.5000 
     41 O          -3.1511  -19.8884  -42.8220 O.2       6 UNK        -0.5000 
     42 CA         -4.0460  -18.0151  -44.0243 C.3       6 UNK         0.1400 
     43 CB         -4.9470  -17.2267  -43.0630 C.3       6 UNK        -0.1800 
     44 N          -3.4913  -17.0966  -45.0203 N.am      6 UNK        -0.5000 
     45 C          -3.2049  -17.4330  -46.2858 C.2       5 UNK         0.5000 
     46 O          -3.5315  -18.5042  -46.7978 O.2       5 UNK        -0.5000 
     47 CA         -2.4135  -16.4115  -47.1291 C.3       5 UNK         0.1400 
     48 CB         -3.3264  -15.6991  -48.1365 C.3       5 UNK        -0.1800 
     49 N          -1.7005  -15.4104  -46.3300 N.am      5 UNK        -0.5000 
     50 C          -0.6502  -15.6848  -45.5396 C.2       4 UNK         0.5000 
     51 O          -0.1822  -16.8155  -45.4266 O.2       4 UNK        -0.5000 
     52 CA         -0.0268  -14.5387  -44.7184 C.3       4 UNK         0.1400 
     53 CB          1.4203  -14.2712  -45.1598 C.3       4 UNK        -0.1800 
     54 N          -0.7993  -13.2960  -44.7623 N.am      4 UNK        -0.5000 
     55 C          -1.9612  -13.1106  -44.1165 C.2       3 UNK         0.5000 
     56 O          -2.4872  -13.9750  -43.4135 O.2       3 UNK        -0.5000 
     57 CA         -2.6787  -11.7598  -44.3192 C.3       3 UNK         0.1400 
     58 CB         -2.3447  -10.7982  -43.1692 C.3       3 UNK        -0.1800 
     59 N          -2.3706  -11.1047  -45.5941 N.am      3 UNK        -0.5000 
     60 C          -2.6348  -11.6140  -46.8050 C.2       2 UNK         0.5000 
     61 O          -3.1804  -12.7055  -46.9731 O.2       2 UNK        -0.5000 
     62 CA         -2.1699  -10.8126  -48.0396 C.3       2 UNK         0.1400 
     63 CB         -1.6443   -9.3945  -47.7216 C.3       2 UNK        -0.1800 
     64 N          -1.1773  -11.5723  -48.8047 N.am      2 UNK        -0.5000 
     65 C          -0.0100  -12.0573  -48.3604 C.2       1 UNK         0.5000 
     66 O           0.4284  -11.8361  -47.2305 O.2       1 UNK        -0.5000 
     67 C           3.9111  -24.8921  -46.7008 C.2       11 UNK         0.5000 
     68 O           4.3690  -25.2689  -47.7799 O.2       11 UNK        -0.5000 
     69 N           2.9827  -25.5741  -46.0082 N.am      12 UNK        -0.5000 
     70 CA          2.2564  -26.7800  -46.4197 C.3       12 UNK         0.1400 
     71 CB          3.2145  -27.9685  -46.6452 C.3       12 UNK        -0.1800 
     72 C           1.2991  -26.5391  -47.6084 C.2       12 UNK         0.5000 
     73 O           0.9393  -27.4894  -48.3048 O.2       12 UNK        -0.5000 
     74 N           0.8778  -25.2812  -47.8059 N.am      13 UNK        -0.5000 
     75 CA         -0.0531  -24.8627  -48.8580 C.3       13 UNK         0.1400 
     76 CB          0.3921  -23.4876  -49.3764 C.3       13 UNK        -0.1800 
     77 C          -1.5152  -24.8149  -48.3671 C.2       13 UNK         0.5000 
     78 O          -2.4041  -24.5159  -49.1653 O.2       13 UNK        -0.5000 
     79 N          -1.7251  -25.1124  -47.0748 N.am      14 UNK        -0.5000 
     80 CA         -2.9670  -25.0118  -46.2991 C.3       14 UNK         0.1400 
     81 CB         -4.1019  -25.8421  -46.9365 C.3       14 UNK        -0.1800 
     82 C          -3.3865  -23.5508  -46.0322 C.2       14 UNK         0.5000 
     83 O          -2.7372  -22.6136  -46.4959 O.2       14 UNK        -0.5000 
     84 N          -4.4494  -23.3859  -45.2386 N.am      15 UNK        -0.5000 
     85 CA         -5.0604  -22.0943  -44.9263 C.3       15 UNK         0.1400 
     86 CB         -5.5840  -22.1464  -43.4778 C.3       15 UNK        -0.1800 
     87 C          -6.1691  -21.7532  -45.9467 C.2       15 UNK         0.5000 
     88 O          -6.2188  -22.3442  -47.0279 O.2       15 UNK        -0.5000 
     89 N          -7.0541  -20.8174  -45.5713 N.am      16 UNK        -0.5000 
     90 CA         -8.2339  -20.3701  -46.3220 C.3       16 UNK         0.1400 
     91 CB         -9.2659  -21.5104  -46.4605 C.3       16 UNK        -0.1800 
     92 C          -7.8741  -19.7030  -47.6660 C.2       16 UNK         0.5000 
     93 O          -8.4409  -20.0472  -48.7044 O.2       16 UNK        -0.5000 
     94 N          -6.9455  -18.7385  -47.5933 N.am      17 UNK        -0.5000 
     95 CA         -6.4618  -17.8843  -48.6806 C.3       17 UNK         0.1400 
     96 CB         -7.5919  -16.9909  -49.2349 C.3       17 UNK        -0.1800 
     97 C          -5.7250  -18.6769  -49.7782 C.2       17 UNK         0.5000 
     98 O          -6.1700  -18.7157  -50.9273 O.2       17 UNK        -0.5000 
     99 N          -4.5818  -19.2716  -49.4051 N.am      18 UNK        -0.5000 
    100 CA        -3.7144  -20.0737  -50.2794 C.3       18 UNK         0.1400 
    101 CB        -2.5235  -20.5932  -49.4689 C.3       18 UNK        -0.1800 
    102 C         -3.1933  -19.3283  -51.5215 C.2       18 UNK         0.5000 
    103 O         -2.9276  -19.9626  -52.5414 O.2       18 UNK        -0.5000 
    104 N         -3.1019  -17.9934  -51.4344 N.am      19 UNK        -0.5000 
    105 CA        -2.7226  -17.0798  -52.5146 C.3       19 UNK         0.1400 
    106 CB        -2.7814  -15.6409  -51.9867 C.3       19 UNK        -0.1800 
    107 C         -3.5729  -17.2178  -53.7939 C.2       19 UNK         0.5000 
    108 O         -3.0620  -16.9580  -54.8832 O.2       19 UNK        -0.5000 
    109 N         -4.8285  -17.6697  -53.6540 N.am      20 UNK        -0.5000 
    110 CA        -5.7255  -17.9831  -54.7678 C.3       20 UNK         0.1400 
    111 CB        -7.1342  -18.2484  -54.2158 C.3       20 UNK        -0.1800 
    112 C         -5.2484  -19.1740  -55.6263 C.2       20 UNK         0.5000 
    113 O         -5.5758  -19.2256  -56.8126 O.2       20 UNK        -0.5000 
    114 N         -4.4845  -20.0956  -55.0239 N.am      21 UNK        -0.5000 
    115 CA        -3.8592  -21.2316  -55.6978 C.3       21 UNK         0.1400 
    116 CB        -3.9761  -22.4773  -54.8045 C.3       21 UNK        -0.1800 
    117 C         -2.3857  -20.9350  -56.0231 C.2       21 UNK         0.5000 
    118 O         -1.9349  -21.2494  -57.1255 O.2       21 UNK        -0.5000 
    119 N         -1.6634  -20.3449  -55.0616 N.am      22 UNK        -0.5000 
    120 CA        -0.2307  -20.0231  -55.1639 C.3       22 UNK         0.1400 
    121 C          0.1078  -18.8628  -56.1436 C.2       22 UNK         0.5000 
    122 N         -0.7970  -17.9326  -56.4218 N.am      22 UNK        -0.7600 
    123 O          1.2167  -18.8104  -56.6682 O.2       22 UNK        -0.5000 
    124 C124        0.3951  -19.7551  -53.7724 C.3       23 UNK        -0.0398 
    125 S125        0.2817  -21.2006  -52.6589 S.3       23 UNK        -0.2404 
    126 C126        1.9668  -21.2696  -51.9532 C.3       23 UNK        -0.0205 
    127 H127       -0.2729  -11.0124  -53.2491 H         1 UNK         0.0600 
    128 H128        0.0489  -12.6767  -53.7478 H         1 UNK         0.0600 
    129 H129        1.3494  -11.6892  -53.0753 H         1 UNK         0.0600 
    130 H130        1.8050  -12.1874  -50.9811 H         1 UNK         0.3000 
    131 H131        1.8287  -12.9317  -48.9442 H         1 UNK         0.0600 
    132 H132        0.2506  -14.7030  -48.1321 H         1 UNK         0.0800 
    133 H133       -0.6843  -14.5504  -49.5910 H         1 UNK         0.0800 
    134 H134        0.8653  -16.9880  -48.0514 H         1 UNK         0.0800 
    135 H135       -0.1569  -17.3738  -49.4207 H         1 UNK         0.0800 
    136 H136        0.5500  -19.0026  -51.0715 H         1 UNK         0.1150 
    137 H137        4.0387  -21.3689  -50.2456 H         1 UNK         0.1150 
    138 H138        3.1564  -17.9170  -47.8673 H         1 UNK         0.1150 
    139 H139        5.7144  -20.4946  -48.7008 H         1 UNK         0.0800 
    140 H140        5.4614  -18.9585  -47.9182 H         1 UNK         0.0800 
    141 H141        3.0800  -22.3654  -47.4452 H         1 UNK         0.0800 
    142 H142        4.6853  -22.6202  -48.0658 H         1 UNK         0.0800 
    143 H143        5.4619  -23.6168  -45.9690 H         1 UNK         0.0600 
    144 H144        2.8424  -22.8073  -44.8815 H         1 UNK         0.3000 
    145 H145        3.4003  -24.2003  -41.7138 H         1 UNK         0.0600 
    146 H146        3.1701  -21.8905  -40.8008 H         1 UNK         0.0600 
    147 H147        3.6938  -21.2127  -42.3418 H         1 UNK         0.0600 
    148 H148        4.8069  -22.1733  -41.3749 H         1 UNK         0.0600 
    149 H149        1.5016  -22.2811  -42.7115 H         1 UNK         0.3000 
    150 H150       -0.5843  -24.5591  -44.4697 H         1 UNK         0.0600 
    151 H151       -1.3580  -24.9255  -42.1216 H         1 UNK         0.0600 
    152 H152       -2.3522  -23.7245  -42.9325 H         1 UNK         0.0600 
    153 H153       -1.1307  -23.2160  -41.7677 H         1 UNK         0.0600 
    154 H154       -0.8742  -21.8022  -43.7756 H         1 UNK         0.3000 
    155 H155        1.5681  -20.3367  -45.5907 H         1 UNK         0.0600 
    156 H156        0.4295  -20.6674  -47.7407 H         1 UNK         0.0600 
    157 H157       -0.0357  -19.1106  -47.0888 H         1 UNK         0.0600 
    158 H158       -1.1495  -20.4698  -46.9743 H         1 UNK         0.0600 
    159 H159       -0.7541  -19.0263  -44.8846 H         1 UNK         0.3000 
    160 H160       -0.9362  -19.1670  -41.4854 H         1 UNK         0.0600 
    161 H161        0.7523  -16.9849  -42.8190 H         1 UNK         0.0600 
    162 H162        1.1336  -17.8494  -41.3394 H         1 UNK         0.0600 
    163 H163       -0.2341  -16.7475  -41.3737 H         1 UNK         0.0600 
    164 H164       -1.6669  -17.1915  -43.4848 H         1 UNK         0.3000 
    165 H165       -4.6613  -18.7688  -44.5198 H         1 UNK         0.0600 
    166 H166       -5.7695  -16.7502  -43.5967 H         1 UNK         0.0600 
    167 H167       -5.3851  -17.8833  -42.3101 H         1 UNK         0.0600 
    168 H168       -4.3926  -16.4473  -42.5382 H         1 UNK         0.0600 
    169 H169       -3.2359  -16.1732  -44.6978 H         1 UNK         0.3000 
    170 H170       -1.6702  -16.9770  -47.6912 H         1 UNK         0.0600 
    171 H171       -4.1862  -15.2402  -47.6465 H         1 UNK         0.0600 
    172 H172       -2.7967  -14.9122  -48.6721 H         1 UNK         0.0600 
    173 H173       -3.6980  -16.3955  -48.8858 H         1 UNK         0.0600 
    174 H174       -2.0582  -14.4625  -46.3706 H         1 UNK         0.3000 
    175 H175        0.0052  -14.8723  -43.6797 H         1 UNK         0.0600 
    176 H176        1.4846  -13.9969  -46.2114 H         1 UNK         0.0600 
    177 H177        1.8704  -13.4687  -44.5753 H         1 UNK         0.0600 
    178 H178        2.0388  -15.1589  -45.0200 H         1 UNK         0.0600 
    179 H179       -0.4420  -12.5593  -45.3604 H         1 UNK         0.3000 
    180 H180       -3.7525  -11.9572  -44.2993 H         1 UNK         0.0600 
    181 H181       -2.9147   -9.8724  -43.2499 H         1 UNK         0.0600 
    182 H182       -1.2847  -10.5411  -43.1551 H         1 UNK         0.0600 
    183 H183       -2.5873  -11.2440  -42.2035 H         1 UNK         0.0600 
    184 H184       -1.8900  -10.2183  -45.5420 H         1 UNK         0.3000 
    185 H185       -3.0448  -10.7067  -48.6825 H         1 UNK         0.0600 
    186 H186       -1.3880   -8.8640  -48.6387 H         1 UNK         0.0600 
    187 H187       -2.4023   -8.7992  -47.2110 H         1 UNK         0.0600 
    188 H188       -0.7526   -9.4107  -47.0943 H         1 UNK         0.0600 
    189 H189       -1.4581  -11.8576  -49.7405 H         1 UNK         0.3000 
    190 H190        2.6872  -25.1885  -45.1203 H         1 UNK         0.3000 
    191 H191        1.6163  -27.0400  -45.5757 H         1 UNK         0.0600 
    192 H192        2.6593  -28.8991  -46.7672 H         1 UNK         0.0600 
    193 H193        3.8844  -28.1017  -45.7958 H         1 UNK         0.0600 
    194 H194        3.8252  -27.8370  -47.5386 H         1 UNK         0.0600 
    195 H195        1.1910  -24.5468  -47.1786 H         1 UNK         0.3000 
    196 H196       -0.0094  -25.5656  -49.6923 H         1 UNK         0.0600 
    197 H197       -0.1876  -23.1919  -50.2513 H         1 UNK         0.0600 
    198 H198        1.4430  -23.4942  -49.6642 H         1 UNK         0.0600 
    199 H199        0.2566  -22.7169  -48.6204 H         1 UNK         0.0600 
    200 H200       -0.8991  -25.3228  -46.5370 H         1 UNK         0.3000 
    201 H201       -2.7427  -25.4532  -45.3271 H         1 UNK         0.0600 
    202 H202       -4.4942  -25.3704  -47.8380 H         1 UNK         0.0600 
    203 H203       -4.9381  -25.9620  -46.2474 H         1 UNK         0.0600 
    204 H204       -3.7596  -26.8424  -47.2019 H         1 UNK         0.0600 
    205 H205       -4.9519  -24.2009  -44.9197 H         1 UNK         0.3000 
    206 H206       -4.3073  -21.3058  -44.9867 H         1 UNK         0.0600 
    207 H207       -4.7992  -22.4651  -42.7911 H         1 UNK         0.0600 
    208 H208       -5.9162  -21.1660  -43.1353 H         1 UNK         0.0600 
    209 H209       -6.4204  -22.8389  -43.3741 H         1 UNK         0.0600 
    210 H210       -6.9403  -20.3986  -44.6594 H         1 UNK         0.3000 
    211 H211       -8.7004  -19.5906  -45.7176 H         1 UNK         0.0600 
    212 H212       -8.9000  -22.3184  -47.0945 H         1 UNK         0.0600 
    213 H213      -10.1930  -21.1445  -46.9032 H         1 UNK         0.0600 
    214 H214       -9.5173  -21.9346  -45.4884 H         1 UNK         0.0600 
    215 H215       -6.5150  -18.5763  -46.6946 H         1 UNK         0.3000 
    216 H216       -5.7311  -17.2180  -48.2263 H         1 UNK         0.0600 
    217 H217       -7.2023  -16.2847  -49.9691 H         1 UNK         0.0600 
    218 H218       -8.0593  -16.4084  -48.4411 H         1 UNK         0.0600 
    219 H219       -8.3716  -17.5725  -49.7275 H         1 UNK         0.0600 
    220 H220       -4.2779  -19.1806  -48.4388 H         1 UNK         0.3000 
    221 H221       -4.2966  -20.9289  -50.6277 H         1 UNK         0.0600 
    222 H222       -1.8864  -21.2413  -50.0725 H         1 UNK         0.0600 
    223 H223       -2.8598  -21.1762  -48.6137 H         1 UNK         0.0600 
    224 H224       -1.9062  -19.7726  -49.1031 H         1 UNK         0.0600 
    225 H225       -3.3605  -17.5673  -50.5592 H         1 UNK         0.3000 
    226 H226       -1.6893  -17.2999  -52.7847 H         1 UNK         0.0600 
    227 H227       -2.1015  -15.5043  -51.1475 H         1 UNK         0.0600 
    228 H228       -2.4864  -14.9276  -52.7577 H         1 UNK         0.0600 
    229 H229       -3.7849  -15.3711  -51.6555 H         1 UNK         0.0600 
    230 H230       -5.1711  -17.8878  -52.7254 H         1 UNK         0.3000 
    231 H231       -5.7726  -17.1068  -55.4176 H         1 UNK         0.0600 
    232 H232       -7.8413  -18.4405  -55.0236 H         1 UNK         0.0600 
    233 H233       -7.5066  -17.3916  -53.6539 H         1 UNK         0.0600 
    234 H234       -7.1485  -19.1148  -53.5532 H         1 UNK         0.0600 
    235 H235       -4.2202  -19.9541  -54.0552 H         1 UNK         0.3000 
    236 H236       -4.3747  -21.4452  -56.6365 H         1 UNK         0.0600 
    237 H237       -3.4751  -22.3391  -53.8455 H         1 UNK         0.0600 
    238 H238       -5.0197  -22.7200  -54.6041 H         1 UNK         0.0600 
    239 H239       -3.5265  -23.3460  -55.2869 H         1 UNK         0.0600 
    240 H240       -2.0966  -20.1702  -54.1582 H         1 UNK         0.3000 
    241 H241        0.2630  -20.9074  -55.5720 H         1 UNK         0.0600 
    242 H242       -0.5572  -17.1960  -57.0656 H         1 UNK         0.3800 
    243 H243       -1.6930  -17.8988  -55.9474 H         1 UNK         0.3800 
    244 H244       -0.1001  -18.9102  -53.2955 H         1 UNK         0.0800 
    245 H245        1.4438  -19.4711  -53.8755 H         1 UNK         0.0800 
    246 H246        2.1282  -22.2893  -51.6030 H         1 UNK         0.0800 
    247 H247        2.6996  -21.1079  -52.7446 H         1 UNK         0.0800 
@<TRIPOS>BOND
     1    1    2 1    
     2    1  127 1    
     3    1  128 1    
     4    1  129 1    
     5    2    3 2    
     6    2    4 am   BACKBONE|DICT|INTERRES
     7    4    5 1    
     8    4  130 1    
     9    5    6 1    
    10    5   65 1    
    11    5  131 1    
    12    6    7 1    
    13    6  132 1    
    14    6  133 1    
    15    7    8 1    
    16    8    9 1    
    17    8  134 1    
    18    8  135 1    
    19    9   10 ar   
    20    9   14 ar   
    21   10   11 ar   
    22   10  136 1    
    23   11   12 ar   
    24   11  126 1    
    25   12   13 ar   
    26   12  137 1    
    27   13   14 ar   
    28   13   15 1    
    29   14  138 1    
    30   15   16 1    
    31   15  139 1    
    32   15  140 1    
    33   16   17 1    
    34   17   18 1    
    35   17  141 1    
    36   17  142 1    
    37   18   19 1    
    38   18   67 1    
    39   18  143 1    
    40   19   20 am   BACKBONE|DICT|INTERRES
    41   19  144 1    
    42   20   21 2    
    43   20   22 1    
    44   22   23 1    
    45   22   24 1    
    46   22  145 1    
    47   23  146 1    
    48   23  147 1    
    49   23  148 1    
    50   24   25 am   BACKBONE|DICT|INTERRES
    51   24  149 1    
    52   25   26 2    
    53   25   27 1    
    54   27   28 1    
    55   27   29 1    
    56   27  150 1    
    57   28  151 1    
    58   28  152 1    
    59   28  153 1    
    60   29   30 am   BACKBONE|DICT|INTERRES
    61   29  154 1    
    62   30   31 2    
    63   30   32 1    
    64   32   33 1    
    65   32   34 1    
    66   32  155 1    
    67   33  156 1    
    68   33  157 1    
    69   33  158 1    
    70   34   35 am   BACKBONE|DICT|INTERRES
    71   34  159 1    
    72   35   36 2    
    73   35   37 1    
    74   37   38 1    
    75   37   39 1    
    76   37  160 1    
    77   38  161 1    
    78   38  162 1    
    79   38  163 1    
    80   39   40 am   BACKBONE|DICT|INTERRES
    81   39  164 1    
    82   40   41 2    
    83   40   42 1    
    84   42   43 1    
    85   42   44 1    
    86   42  165 1    
    87   43  166 1    
    88   43  167 1    
    89   43  168 1    
    90   44   45 am   BACKBONE|DICT|INTERRES
    91   44  169 1    
    92   45   46 2    
    93   45   47 1    
    94   47   48 1    
    95   47   49 1    
    96   47  170 1    
    97   48  171 1    
    98   48  172 1    
    99   48  173 1    
   100   49   50 am   BACKBONE|DICT|INTERRES
   101   49  174 1    
   102   50   51 2    
   103   50   52 1    
   104   52   53 1    
   105   52   54 1    
   106   52  175 1    
   107   53  176 1    
   108   53  177 1    
   109   53  178 1    
   110   54   55 am   BACKBONE|DICT|INTERRES
   111   54  179 1    
   112   55   56 2    
   113   55   57 1    
   114   57   58 1    
   115   57   59 1    
   116   57  180 1    
   117   58  181 1    
   118   58  182 1    
   119   58  183 1    
   120   59   60 am   BACKBONE|DICT|INTERRES
   121   59  184 1    
   122   60   61 2    
   123   60   62 1    
   124   62   63 1    
   125   62   64 1    
   126   62  185 1    
   127   63  186 1    
   128   63  187 1    
   129   63  188 1    
   130   64   65 am   BACKBONE|DICT|INTERRES
   131   64  189 1    
   132   65   66 2    
   133   67   68 2    
   134   67   69 am   BACKBONE|DICT|INTERRES
   135   69   70 1    
   136   69  190 1    
   137   70   71 1    
   138   70   72 1    
   139   70  191 1    
   140   71  192 1    
   141   71  193 1    
   142   71  194 1    
   143   72   73 2    
   144   72   74 am   BACKBONE|DICT|INTERRES
   145   74   75 1    
   146   74  195 1    
   147   75   76 1    
   148   75   77 1    
   149   75  196 1    
   150   76  197 1    
   151   76  198 1    
   152   76  199 1    
   153   77   78 2    
   154   77   79 am   BACKBONE|DICT|INTERRES
   155   79   80 1    
   156   79  200 1    
   157   80   81 1    
   158   80   82 1    
   159   80  201 1    
   160   81  202 1    
   161   81  203 1    
   162   81  204 1    
   163   82   83 2    
   164   82   84 am   BACKBONE|DICT|INTERRES
   165   84   85 1    
   166   84  205 1    
   167   85   86 1    
   168   85   87 1    
   169   85  206 1    
   170   86  207 1    
   171   86  208 1    
   172   86  209 1    
   173   87   88 2    
   174   87   89 am   BACKBONE|DICT|INTERRES
   175   89   90 1    
   176   89  210 1    
   177   90   91 1    
   178   90   92 1    
   179   90  211 1    
   180   91  212 1    
   181   91  213 1    
   182   91  214 1    
   183   92   93 2    
   184   92   94 am   BACKBONE|DICT|INTERRES
   185   94   95 1    
   186   94  215 1    
   187   95   96 1    
   188   95   97 1    
   189   95  216 1    
   190   96  217 1    
   191   96  218 1    
   192   96  219 1    
   193   97   98 2    
   194   97   99 am   BACKBONE|DICT|INTERRES
   195   99  100 1    
   196   99  220 1    
   197  100  101 1    
   198  100  102 1    
   199  100  221 1    
   200  101  222 1    
   201  101  223 1    
   202  101  224 1    
   203  102  103 2    
   204  102  104 am   BACKBONE|DICT|INTERRES
   205  104  105 1    
   206  104  225 1    
   207  105  106 1    
   208  105  107 1    
   209  105  226 1    
   210  106  227 1    
   211  106  228 1    
   212  106  229 1    
   213  107  108 2    
   214  107  109 am   BACKBONE|DICT|INTERRES
   215  109  110 1    
   216  109  230 1    
   217  110  111 1    
   218  110  112 1    
   219  110  231 1    
   220  111  232 1    
   221  111  233 1    
   222  111  234 1    
   223  112  113 2    
   224  112  114 am   BACKBONE|DICT|INTERRES
   225  114  115 1    
   226  114  235 1    
   227  115  116 1    
   228  115  117 1    
   229  115  236 1    
   230  116  237 1    
   231  116  238 1    
   232  116  239 1    
   233  117  118 2    
   234  117  119 am   BACKBONE|DICT|INTERRES
   235  119  120 1    
   236  119  240 1    
   237  120  121 1    
   238  120  124 1    
   239  120  241 1    
   240  121  122 am   BACKBONE|DICT|INTERRES
   241  121  123 2    
   242  122  242 1    
   243  122  243 1    
   244  124  125 1    
   245  124  244 1    
   246  124  245 1    
   247  125  126 1    
   248  126  246 1    
   249  126  247 1    
@<TRIPOS>SUBSTRUCTURE
     1 UNK         1 GROUP             0       ****    0 ROOT    
