@<TRIPOS>MOLECULE
3R540
247   249    1
SMALL
USER_CHARGES


@<TRIPOS>ATOM
      1 CA          8.1354  -11.8026  -49.4171 C.3       0 UNK        -0.1800 
      2 C           6.6403  -12.0141  -49.2249 C.2       0 UNK         0.5000 
      3 O           5.8739  -11.8451  -50.1731 O.2       0 UNK        -0.5000 
      4 N           6.2293  -12.3745  -48.0007 N.am      1 UNK        -0.5000 
      5 CA          4.8442  -12.6514  -47.5873 C.3       1 UNK         0.1400 
      6 C6          4.2257  -13.8970  -48.2839 C.3       23 UNK        -0.0398 
      7 S7          5.0351  -15.4401  -47.7418 S.3       23 UNK        -0.2404 
      8 C8          3.5999  -16.5054  -47.3878 C.3       23 UNK        -0.0205 
      9 C9          3.1317  -17.2472  -48.6293 C.ar      23 UNK        -0.0193 
     10 C10         2.3563  -16.6010  -49.5958 C.ar      23 UNK        -0.1150 
     11 C11         1.9432  -17.2812  -50.7447 C.ar      23 UNK        -0.0193 
     12 C12         2.2981  -18.6228  -50.9170 C.ar      23 UNK        -0.1150 
     13 C13         3.0611  -19.2841  -49.9498 C.ar      23 UNK        -0.0193 
     14 C14         3.4768  -18.5891  -48.8108 C.ar      23 UNK        -0.1150 
     15 C15         3.4492  -20.7455  -50.1349 C.3       23 UNK        -0.0205 
     16 S16         2.0196  -21.8693  -50.0250 S.3       23 UNK        -0.2404 
     17 C17         1.3225  -21.4332  -48.3935 C.3       23 UNK        -0.0398 
     18 CA          0.6544  -22.6078  -47.6369 C.3       11 UNK         0.1400 
     19 N           0.2046  -22.1860  -46.3081 N.am      11 UNK        -0.5000 
     20 C          -0.3159  -22.9883  -45.3689 C.2       10 UNK         0.5000 
     21 O          -0.4042  -24.2104  -45.4820 O.2       10 UNK        -0.5000 
     22 CA         -0.8940  -22.3002  -44.1187 C.3       10 UNK         0.1400 
     23 CB          0.2184  -21.9521  -43.1192 C.3       10 UNK        -0.1800 
     24 N          -1.6658  -21.0991  -44.4484 N.am      10 UNK        -0.5000 
     25 C          -2.7875  -21.1035  -45.1839 C.2       9 UNK         0.5000 
     26 O          -3.3153  -22.1297  -45.6090 O.2       9 UNK        -0.5000 
     27 CA         -3.4010  -19.7407  -45.5464 C.3       9 UNK         0.1400 
     28 CB         -4.2655  -19.2032  -44.3972 C.3       9 UNK        -0.1800 
     29 N          -2.3942  -18.7490  -45.9217 N.am      9 UNK        -0.5000 
     30 C          -1.6257  -18.8300  -47.0172 C.2       8 UNK         0.5000 
     31 O          -1.7244  -19.7282  -47.8535 O.2       8 UNK        -0.5000 
     32 CA         -0.5320  -17.7571  -47.1792 C.3       8 UNK         0.1400 
     33 CB         -1.1254  -16.4514  -47.7254 C.3       8 UNK        -0.1800 
     34 N           0.1719  -17.4844  -45.9255 N.am      8 UNK        -0.5000 
     35 C           0.8916  -18.3864  -45.2436 C.2       7 UNK         0.5000 
     36 O           1.1159  -19.5275  -45.6460 O.2       7 UNK        -0.5000 
     37 CA          1.3899  -17.9643  -43.8506 C.3       7 UNK         0.1400 
     38 CB          2.7111  -17.1893  -43.9364 C.3       7 UNK        -0.1800 
     39 N           0.3961  -17.1616  -43.1385 N.am      7 UNK        -0.5000 
     40 C          -0.7299  -17.6589  -42.6091 C.2       6 UNK         0.5000 
     41 O          -1.0359  -18.8499  -42.6536 O.2       6 UNK        -0.5000 
     42 CA         -1.6894  -16.6510  -41.9503 C.3       6 UNK         0.1400 
     43 CB         -1.2529  -16.3491  -40.5091 C.3       6 UNK        -0.1800 
     44 N          -1.7928  -15.3979  -42.6998 N.am      6 UNK        -0.5000 
     45 C          -2.3442  -15.2927  -43.9167 C.2       5 UNK         0.5000 
     46 O          -2.8441  -16.2393  -44.5223 O.2       5 UNK        -0.5000 
     47 CA         -2.2896  -13.9090  -44.5895 C.3       5 UNK         0.1400 
     48 CB         -3.4894  -13.0517  -44.1609 C.3       5 UNK        -0.1800 
     49 N          -1.0516  -13.1696  -44.3314 N.am      5 UNK        -0.5000 
     50 C           0.1849  -13.5889  -44.6291 C.2       4 UNK         0.5000 
     51 O           0.4318  -14.6966  -45.1107 O.2       4 UNK        -0.5000 
     52 CA          1.3215  -12.5874  -44.3493 C.3       4 UNK         0.1400 
     53 CB          2.7130  -13.1829  -44.6178 C.3       4 UNK        -0.1800 
     54 N           1.1570  -11.3701  -45.1470 N.am      4 UNK        -0.5000 
     55 C           0.3851  -10.3274  -44.8067 C.2       3 UNK         0.5000 
     56 O          -0.3083  -10.3164  -43.7873 O.2       3 UNK        -0.5000 
     57 CA          0.3535   -9.1161  -45.7675 C.3       3 UNK         0.1400 
     58 CB          0.1125   -7.7813  -45.0315 C.3       3 UNK        -0.1800 
     59 N           1.5217   -9.0241  -46.6525 N.am      3 UNK        -0.5000 
     60 C           2.8031   -8.8412  -46.3017 C.2       2 UNK         0.5000 
     61 O           3.1931   -8.6774  -45.1442 O.2       2 UNK        -0.5000 
     62 CA          3.8290   -8.9172  -47.4500 C.3       2 UNK         0.1400 
     63 CB          4.8786   -7.7980  -47.3485 C.3       2 UNK        -0.1800 
     64 N           4.5136  -10.2109  -47.4760 N.am      2 UNK        -0.5000 
     65 C           3.9284  -11.4048  -47.6541 C.2       1 UNK         0.5000 
     66 O           2.7157  -11.5405  -47.8299 O.2       1 UNK        -0.5000 
     67 C          -0.4979  -23.2527  -48.4380 C.2       11 UNK         0.5000 
     68 O          -0.3317  -24.3554  -48.9592 O.2       11 UNK        -0.5000 
     69 N          -1.6593  -22.5846  -48.4768 N.am      12 UNK        -0.5000 
     70 CA         -2.8631  -23.0645  -49.1547 C.3       12 UNK         0.1400 
     71 CB         -3.9244  -21.9606  -49.1471 C.3       12 UNK        -0.1800 
     72 C          -3.4300  -24.3605  -48.5519 C.2       12 UNK         0.5000 
     73 O          -3.8931  -25.2211  -49.3013 O.2       12 UNK        -0.5000 
     74 N          -3.3759  -24.4872  -47.2203 N.am      13 UNK        -0.5000 
     75 CA         -3.7552  -25.6918  -46.4853 C.3       13 UNK         0.1400 
     76 CB         -3.8301  -25.3825  -44.9831 C.3       13 UNK        -0.1800 
     77 C          -2.7991  -26.8650  -46.7625 C.2       13 UNK         0.5000 
     78 O          -3.2678  -27.9735  -47.0194 O.2       13 UNK        -0.5000 
     79 N          -1.4848  -26.5965  -46.7557 N.am      14 UNK        -0.5000 
     80 CA         -0.4321  -27.5658  -47.0760 C.3       14 UNK         0.1400 
     81 CB          0.9424  -26.9561  -46.7620 C.3       14 UNK        -0.1800 
     82 C          -0.4906  -28.0580  -48.5349 C.2       14 UNK         0.5000 
     83 O          -0.2589  -29.2403  -48.7895 O.2       14 UNK        -0.5000 
     84 N          -0.8413  -27.1526  -49.4578 N.am      15 UNK        -0.5000 
     85 CA         -1.0891  -27.4389  -50.8724 C.3       15 UNK         0.1400 
     86 CB         -1.0635  -26.1137  -51.6520 C.3       15 UNK        -0.1800 
     87 C          -2.4178  -28.1807  -51.1317 C.2       15 UNK         0.5000 
     88 O          -2.6278  -28.6520  -52.2498 O.2       15 UNK        -0.5000 
     89 N          -3.2944  -28.2451  -50.1167 N.am      16 UNK        -0.5000 
     90 CA         -4.6582  -28.7876  -50.1365 C.3       16 UNK         0.1400 
     91 CB         -4.6521  -30.3029  -50.4260 C.3       16 UNK        -0.1800 
     92 C          -5.6146  -27.9982  -51.0576 C.2       16 UNK         0.5000 
     93 O          -6.6106  -28.5473  -51.5321 O.2       16 UNK        -0.5000 
     94 N          -5.3005  -26.7167  -51.2811 N.am      17 UNK        -0.5000 
     95 CA         -6.1052  -25.7713  -52.0491 C.3       17 UNK         0.1400 
     96 CB         -5.1722  -24.7201  -52.6727 C.3       17 UNK        -0.1800 
     97 C          -7.1628  -25.0904  -51.1644 C.2       17 UNK         0.5000 
     98 O          -8.2720  -24.8392  -51.6379 O.2       17 UNK        -0.5000 
     99 N          -6.7890  -24.8180  -49.9028 N.am      18 UNK        -0.5000 
    100 CA        -7.5277  -24.0649  -48.8810 C.3       18 UNK         0.1400 
    101 CB        -8.8599  -24.7637  -48.5372 C.3       18 UNK        -0.1800 
    102 C         -7.7235  -22.5742  -49.2429 C.2       18 UNK         0.5000 
    103 O         -7.3227  -22.1340  -50.3227 O.2       18 UNK        -0.5000 
    104 N         -8.3055  -21.8112  -48.3044 N.am      19 UNK        -0.5000 
    105 CA        -8.4899  -20.3545  -48.3448 C.3       19 UNK         0.1400 
    106 CB        -9.5038  -19.9515  -49.4401 C.3       19 UNK        -0.1800 
    107 C         -7.1286  -19.6340  -48.4393 C.2       19 UNK         0.5000 
    108 O         -6.3855  -19.6440  -47.4584 O.2       19 UNK        -0.5000 
    109 N         -6.8116  -19.0639  -49.6056 N.am      20 UNK        -0.5000 
    110 CA        -5.4913  -18.5673  -49.9689 C.3       20 UNK         0.1400 
    111 CB        -5.4387  -17.0384  -49.8212 C.3       20 UNK        -0.1800 
    112 C         -5.2300  -19.0039  -51.4166 C.2       20 UNK         0.5000 
    113 O         -6.1077  -18.8395  -52.2673 O.2       20 UNK        -0.5000 
    114 N         -4.0363  -19.5501  -51.6706 N.am      21 UNK        -0.5000 
    115 CA        -3.6227  -20.0846  -52.9723 C.3       21 UNK         0.1400 
    116 CB        -2.7159  -21.3026  -52.7263 C.3       21 UNK        -0.1800 
    117 C         -2.9057  -19.0384  -53.8492 C.2       21 UNK         0.5000 
    118 O         -2.5568  -19.3398  -54.9912 O.2       21 UNK        -0.5000 
    119 N         -2.6740  -17.8431  -53.2952 N.am      22 UNK        -0.5000 
    120 CA        -1.8758  -16.7581  -53.8878 C.3       22 UNK         0.1400 
    121 C         -2.5522  -16.0033  -55.0704 C.2       22 UNK         0.5000 
    122 N         -3.8311  -16.2162  -55.3547 N.am      22 UNK        -0.7600 
    123 O         -1.9008  -15.2112  -55.7458 O.2       22 UNK        -0.5000 
    124 C124       -1.3874  -15.7578  -52.8066 C.3       23 UNK        -0.0398 
    125 S125       -0.6419  -16.5747  -51.3530 S.3       23 UNK        -0.2404 
    126 C126        1.1171  -16.5629  -51.7984 C.3       23 UNK        -0.0205 
    127 H127        8.3316  -10.7792  -49.7370 H         1 UNK         0.0600 
    128 H128        8.6931  -11.9846  -48.4981 H         1 UNK         0.0600 
    129 H129        8.5140  -12.4790  -50.1835 H         1 UNK         0.0600 
    130 H130        6.9222  -12.4994  -47.2756 H         1 UNK         0.3000 
    131 H131        4.9106  -12.8766  -46.5227 H         1 UNK         0.0600 
    132 H132        4.2924  -13.8207  -49.3695 H         1 UNK         0.0800 
    133 H133        3.1621  -13.9773  -48.0591 H         1 UNK         0.0800 
    134 H134        3.8960  -17.2238  -46.6238 H         1 UNK         0.0800 
    135 H135        2.7781  -15.9303  -46.9586 H         1 UNK         0.0800 
    136 H136        2.0756  -15.5667  -49.4593 H         1 UNK         0.1150 
    137 H137        1.9755  -19.1568  -51.7998 H         1 UNK         0.1150 
    138 H138        4.0727  -19.0935  -48.0631 H         1 UNK         0.1150 
    139 H139        3.9215  -20.8692  -51.1103 H         1 UNK         0.0800 
    140 H140        4.1935  -21.0460  -49.3957 H         1 UNK         0.0800 
    141 H141        0.6188  -20.6139  -48.5396 H         1 UNK         0.0800 
    142 H142        2.1243  -21.0290  -47.7743 H         1 UNK         0.0800 
    143 H143        1.4122  -23.3791  -47.4845 H         1 UNK         0.0600 
    144 H144        0.2882  -21.1942  -46.1014 H         1 UNK         0.3000 
    145 H145       -1.5720  -23.0067  -43.6356 H         1 UNK         0.0600 
    146 H146       -0.1923  -21.5192  -42.2070 H         1 UNK         0.0600 
    147 H147        0.7773  -22.8439  -42.8331 H         1 UNK         0.0600 
    148 H148        0.9296  -21.2403  -43.5372 H         1 UNK         0.0600 
    149 H149       -1.3250  -20.2189  -44.0750 H         1 UNK         0.3000 
    150 H150       -4.0459  -19.8966  -46.4118 H         1 UNK         0.0600 
    151 H151       -5.0293  -19.9279  -44.1125 H         1 UNK         0.0600 
    152 H152       -4.7808  -18.2883  -44.6901 H         1 UNK         0.0600 
    153 H153       -3.6700  -18.9844  -43.5108 H         1 UNK         0.0600 
    154 H154       -2.3046  -17.9402  -45.3141 H         1 UNK         0.3000 
    155 H155        0.1963  -18.1305  -47.9023 H         1 UNK         0.0600 
    156 H156       -1.7932  -15.9799  -47.0062 H         1 UNK         0.0600 
    157 H157       -1.7048  -16.6341  -48.6302 H         1 UNK         0.0600 
    158 H158       -0.3408  -15.7367  -47.9748 H         1 UNK         0.0600 
    159 H159        0.0829  -16.5462  -45.5454 H         1 UNK         0.3000 
    160 H160        1.5738  -18.8717  -43.2718 H         1 UNK         0.0600 
    161 H161        3.4940  -17.8086  -44.3747 H         1 UNK         0.0600 
    162 H162        3.0564  -16.8861  -42.9479 H         1 UNK         0.0600 
    163 H163        2.6137  -16.2924  -44.5468 H         1 UNK         0.0600 
    164 H164        0.5444  -16.1634  -43.1207 H         1 UNK         0.3000 
    165 H165       -2.6801  -17.1094  -41.9168 H         1 UNK         0.0600 
    166 H166       -1.9699  -15.6983  -40.0083 H         1 UNK         0.0600 
    167 H167       -1.1837  -17.2664  -39.9227 H         1 UNK         0.0600 
    168 H168       -0.2770  -15.8633  -40.4751 H         1 UNK         0.0600 
    169 H169       -1.4025  -14.5708  -42.2729 H         1 UNK         0.3000 
    170 H170       -2.3549  -14.0660  -45.6676 H         1 UNK         0.0600 
    171 H171       -4.4297  -13.5669  -44.3621 H         1 UNK         0.0600 
    172 H172       -3.4608  -12.8232  -43.0948 H         1 UNK         0.0600 
    173 H173       -3.5143  -12.1078  -44.7058 H         1 UNK         0.0600 
    174 H174       -1.1476  -12.2325  -43.9560 H         1 UNK         0.3000 
    175 H175        1.2780  -12.3292  -43.2891 H         1 UNK         0.0600 
    176 H176        2.7929  -13.5722  -45.6321 H         1 UNK         0.0600 
    177 H177        3.4964  -12.4387  -44.4734 H         1 UNK         0.0600 
    178 H178        2.9202  -14.0055  -43.9333 H         1 UNK         0.0600 
    179 H179        1.6463  -11.3392  -46.0346 H         1 UNK         0.3000 
    180 H180       -0.5027   -9.2843  -46.4220 H         1 UNK         0.0600 
    181 H181        0.8888   -7.5784  -44.2934 H         1 UNK         0.0600 
    182 H182       -0.8423   -7.7910  -44.5044 H         1 UNK         0.0600 
    183 H183        0.0859   -6.9447  -45.7297 H         1 UNK         0.0600 
    184 H184        1.3301   -9.2102  -47.6278 H         1 UNK         0.3000 
    185 H185        3.3031   -8.7957  -48.3994 H         1 UNK         0.0600 
    186 H186        4.4011   -6.8177  -47.3226 H         1 UNK         0.0600 
    187 H187        5.4852   -7.8917  -46.4468 H         1 UNK         0.0600 
    188 H188        5.5506   -7.8089  -48.2069 H         1 UNK         0.0600 
    189 H189        5.5100  -10.1925  -47.3161 H         1 UNK         0.3000 
    190 H190       -1.7135  -21.6651  -48.0474 H         1 UNK         0.3000 
    191 H191       -2.5904  -23.2716  -50.1909 H         1 UNK         0.0600 
    192 H192       -4.3540  -21.8085  -48.1563 H         1 UNK         0.0600 
    193 H193       -4.7369  -22.2031  -49.8308 H         1 UNK         0.0600 
    194 H194       -3.4966  -21.0148  -49.4693 H         1 UNK         0.0600 
    195 H195       -3.0628  -23.6937  -46.6669 H         1 UNK         0.3000 
    196 H196       -4.7521  -25.9884  -46.8183 H         1 UNK         0.0600 
    197 H197       -2.8684  -25.0528  -44.5897 H         1 UNK         0.0600 
    198 H198       -4.1325  -26.2643  -44.4171 H         1 UNK         0.0600 
    199 H199       -4.5596  -24.5984  -44.7794 H         1 UNK         0.0600 
    200 H200       -1.1753  -25.6628  -46.4983 H         1 UNK         0.3000 
    201 H201       -0.5730  -28.4344  -46.4295 H         1 UNK         0.0600 
    202 H202        1.0209  -26.6841  -45.7093 H         1 UNK         0.0600 
    203 H203        1.1298  -26.0592  -47.3531 H         1 UNK         0.0600 
    204 H204        1.7433  -27.6648  -46.9758 H         1 UNK         0.0600 
    205 H205       -0.9235  -26.1799  -49.1731 H         1 UNK         0.3000 
    206 H206       -0.2809  -28.0721  -51.2436 H         1 UNK         0.0600 
    207 H207       -0.1110  -25.5988  -51.5248 H         1 UNK         0.0600 
    208 H208       -1.2006  -26.2824  -52.7208 H         1 UNK         0.0600 
    209 H209       -1.8546  -25.4394  -51.3224 H         1 UNK         0.0600 
    210 H210       -3.0176  -27.8296  -49.2362 H         1 UNK         0.3000 
    211 H211       -5.0446  -28.6518  -49.1256 H         1 UNK         0.0600 
    212 H212       -4.3578  -30.5201  -51.4530 H         1 UNK         0.0600 
    213 H213       -5.6423  -30.7336  -50.2737 H         1 UNK         0.0600 
    214 H214       -3.9660  -30.8277  -49.7611 H         1 UNK         0.0600 
    215 H215       -4.5043  -26.3312  -50.7832 H         1 UNK         0.3000 
    216 H216       -6.6185  -26.2977  -52.8566 H         1 UNK         0.0600 
    217 H217       -5.7367  -23.9991  -53.2653 H         1 UNK         0.0600 
    218 H218       -4.4401  -25.1850  -53.3334 H         1 UNK         0.0600 
    219 H219       -4.6277  -24.1621  -51.9101 H         1 UNK         0.0600 
    220 H220       -5.8366  -25.0596  -49.6516 H         1 UNK         0.3000 
    221 H221       -6.8976  -24.0871  -47.9904 H         1 UNK         0.0600 
    222 H222       -9.5876  -24.6729  -49.3440 H         1 UNK         0.0600 
    223 H223       -8.7085  -25.8253  -48.3412 H         1 UNK         0.0600 
    224 H224       -9.3134  -24.3352  -47.6432 H         1 UNK         0.0600 
    225 H225       -8.5733  -22.2489  -47.4343 H         1 UNK         0.3000 
    226 H226       -8.9191  -20.0684  -47.3834 H         1 UNK         0.0600 
    227 H227      -10.4706  -20.4230  -49.2638 H         1 UNK         0.0600 
    228 H228       -9.6687  -18.8733  -49.4417 H         1 UNK         0.0600 
    229 H229       -9.1786  -20.2379  -50.4405 H         1 UNK         0.0600 
    230 H230       -7.4500  -19.1611  -50.3848 H         1 UNK         0.3000 
    231 H231       -4.7314  -19.0075  -49.3200 H         1 UNK         0.0600 
    232 H232       -4.4562  -16.6533  -50.0972 H         1 UNK         0.0600 
    233 H233       -5.6279  -16.7379  -48.7904 H         1 UNK         0.0600 
    234 H234       -6.1775  -16.5463  -50.4550 H         1 UNK         0.0600 
    235 H235       -3.3602  -19.6302  -50.9247 H         1 UNK         0.3000 
    236 H236       -4.4995  -20.4253  -53.5272 H         1 UNK         0.0600 
    237 H237       -2.3772  -21.7399  -53.6664 H         1 UNK         0.0600 
    238 H238       -1.8296  -21.0381  -52.1478 H         1 UNK         0.0600 
    239 H239       -3.2511  -22.0827  -52.1866 H         1 UNK         0.0600 
    240 H240       -2.9927  -17.6875  -52.3516 H         1 UNK         0.3000 
    241 H241       -0.9855  -17.2247  -54.3139 H         1 UNK         0.0600 
    242 H242       -4.2585  -15.7258  -56.1248 H         1 UNK         0.3800 
    243 H243       -4.3732  -16.8700  -54.8124 H         1 UNK         0.3800 
    244 H244       -0.6690  -15.0533  -53.2295 H         1 UNK         0.0800 
    245 H245       -2.2241  -15.1555  -52.4485 H         1 UNK         0.0800 
    246 H246        1.4619  -15.5330  -51.9030 H         1 UNK         0.0800 
    247 H247        1.2498  -17.0374  -52.7720 H         1 UNK         0.0800 
@<TRIPOS>BOND
     1    1    2 1    
     2    1  127 1    
     3    1  128 1    
     4    1  129 1    
     5    2    3 2    
     6    2    4 am   BACKBONE|DICT|INTERRES
     7    4    5 1    
     8    4  130 1    
     9    5    6 1    
    10    5   65 1    
    11    5  131 1    
    12    6    7 1    
    13    6  132 1    
    14    6  133 1    
    15    7    8 1    
    16    8    9 1    
    17    8  134 1    
    18    8  135 1    
    19    9   10 ar   
    20    9   14 ar   
    21   10   11 ar   
    22   10  136 1    
    23   11   12 ar   
    24   11  126 1    
    25   12   13 ar   
    26   12  137 1    
    27   13   14 ar   
    28   13   15 1    
    29   14  138 1    
    30   15   16 1    
    31   15  139 1    
    32   15  140 1    
    33   16   17 1    
    34   17   18 1    
    35   17  141 1    
    36   17  142 1    
    37   18   19 1    
    38   18   67 1    
    39   18  143 1    
    40   19   20 am   BACKBONE|DICT|INTERRES
    41   19  144 1    
    42   20   21 2    
    43   20   22 1    
    44   22   23 1    
    45   22   24 1    
    46   22  145 1    
    47   23  146 1    
    48   23  147 1    
    49   23  148 1    
    50   24   25 am   BACKBONE|DICT|INTERRES
    51   24  149 1    
    52   25   26 2    
    53   25   27 1    
    54   27   28 1    
    55   27   29 1    
    56   27  150 1    
    57   28  151 1    
    58   28  152 1    
    59   28  153 1    
    60   29   30 am   BACKBONE|DICT|INTERRES
    61   29  154 1    
    62   30   31 2    
    63   30   32 1    
    64   32   33 1    
    65   32   34 1    
    66   32  155 1    
    67   33  156 1    
    68   33  157 1    
    69   33  158 1    
    70   34   35 am   BACKBONE|DICT|INTERRES
    71   34  159 1    
    72   35   36 2    
    73   35   37 1    
    74   37   38 1    
    75   37   39 1    
    76   37  160 1    
    77   38  161 1    
    78   38  162 1    
    79   38  163 1    
    80   39   40 am   BACKBONE|DICT|INTERRES
    81   39  164 1    
    82   40   41 2    
    83   40   42 1    
    84   42   43 1    
    85   42   44 1    
    86   42  165 1    
    87   43  166 1    
    88   43  167 1    
    89   43  168 1    
    90   44   45 am   BACKBONE|DICT|INTERRES
    91   44  169 1    
    92   45   46 2    
    93   45   47 1    
    94   47   48 1    
    95   47   49 1    
    96   47  170 1    
    97   48  171 1    
    98   48  172 1    
    99   48  173 1    
   100   49   50 am   BACKBONE|DICT|INTERRES
   101   49  174 1    
   102   50   51 2    
   103   50   52 1    
   104   52   53 1    
   105   52   54 1    
   106   52  175 1    
   107   53  176 1    
   108   53  177 1    
   109   53  178 1    
   110   54   55 am   BACKBONE|DICT|INTERRES
   111   54  179 1    
   112   55   56 2    
   113   55   57 1    
   114   57   58 1    
   115   57   59 1    
   116   57  180 1    
   117   58  181 1    
   118   58  182 1    
   119   58  183 1    
   120   59   60 am   BACKBONE|DICT|INTERRES
   121   59  184 1    
   122   60   61 2    
   123   60   62 1    
   124   62   63 1    
   125   62   64 1    
   126   62  185 1    
   127   63  186 1    
   128   63  187 1    
   129   63  188 1    
   130   64   65 am   BACKBONE|DICT|INTERRES
   131   64  189 1    
   132   65   66 2    
   133   67   68 2    
   134   67   69 am   BACKBONE|DICT|INTERRES
   135   69   70 1    
   136   69  190 1    
   137   70   71 1    
   138   70   72 1    
   139   70  191 1    
   140   71  192 1    
   141   71  193 1    
   142   71  194 1    
   143   72   73 2    
   144   72   74 am   BACKBONE|DICT|INTERRES
   145   74   75 1    
   146   74  195 1    
   147   75   76 1    
   148   75   77 1    
   149   75  196 1    
   150   76  197 1    
   151   76  198 1    
   152   76  199 1    
   153   77   78 2    
   154   77   79 am   BACKBONE|DICT|INTERRES
   155   79   80 1    
   156   79  200 1    
   157   80   81 1    
   158   80   82 1    
   159   80  201 1    
   160   81  202 1    
   161   81  203 1    
   162   81  204 1    
   163   82   83 2    
   164   82   84 am   BACKBONE|DICT|INTERRES
   165   84   85 1    
   166   84  205 1    
   167   85   86 1    
   168   85   87 1    
   169   85  206 1    
   170   86  207 1    
   171   86  208 1    
   172   86  209 1    
   173   87   88 2    
   174   87   89 am   BACKBONE|DICT|INTERRES
   175   89   90 1    
   176   89  210 1    
   177   90   91 1    
   178   90   92 1    
   179   90  211 1    
   180   91  212 1    
   181   91  213 1    
   182   91  214 1    
   183   92   93 2    
   184   92   94 am   BACKBONE|DICT|INTERRES
   185   94   95 1    
   186   94  215 1    
   187   95   96 1    
   188   95   97 1    
   189   95  216 1    
   190   96  217 1    
   191   96  218 1    
   192   96  219 1    
   193   97   98 2    
   194   97   99 am   BACKBONE|DICT|INTERRES
   195   99  100 1    
   196   99  220 1    
   197  100  101 1    
   198  100  102 1    
   199  100  221 1    
   200  101  222 1    
   201  101  223 1    
   202  101  224 1    
   203  102  103 2    
   204  102  104 am   BACKBONE|DICT|INTERRES
   205  104  105 1    
   206  104  225 1    
   207  105  106 1    
   208  105  107 1    
   209  105  226 1    
   210  106  227 1    
   211  106  228 1    
   212  106  229 1    
   213  107  108 2    
   214  107  109 am   BACKBONE|DICT|INTERRES
   215  109  110 1    
   216  109  230 1    
   217  110  111 1    
   218  110  112 1    
   219  110  231 1    
   220  111  232 1    
   221  111  233 1    
   222  111  234 1    
   223  112  113 2    
   224  112  114 am   BACKBONE|DICT|INTERRES
   225  114  115 1    
   226  114  235 1    
   227  115  116 1    
   228  115  117 1    
   229  115  236 1    
   230  116  237 1    
   231  116  238 1    
   232  116  239 1    
   233  117  118 2    
   234  117  119 am   BACKBONE|DICT|INTERRES
   235  119  120 1    
   236  119  240 1    
   237  120  121 1    
   238  120  124 1    
   239  120  241 1    
   240  121  122 am   BACKBONE|DICT|INTERRES
   241  121  123 2    
   242  122  242 1    
   243  122  243 1    
   244  124  125 1    
   245  124  244 1    
   246  124  245 1    
   247  125  126 1    
   248  126  246 1    
   249  126  247 1    
@<TRIPOS>SUBSTRUCTURE
     1 UNK         1 GROUP             0       ****    0 ROOT    
