@<TRIPOS>MOLECULE
3R540
247   249    1
SMALL
USER_CHARGES


@<TRIPOS>ATOM
      1 CA         -0.6584  -11.2337  -46.6794 C.3       0 UNK        -0.1800 
      2 C          -1.0209  -12.1271  -47.8567 C.2       0 UNK         0.5000 
      3 O          -0.4942  -11.9406  -48.9535 O.2       0 UNK        -0.5000 
      4 N          -1.9168  -13.0965  -47.6302 N.am      1 UNK        -0.5000 
      5 CA         -2.3463  -14.0909  -48.6198 C.3       1 UNK         0.1400 
      6 C6         -3.6083  -14.8663  -48.1782 C.3       23 UNK        -0.0398 
      7 S7         -5.0413  -13.7819  -47.8618 S.3       23 UNK        -0.2404 
      8 C8         -6.3418  -14.9990  -47.4687 C.3       23 UNK        -0.0205 
      9 C9         -6.5632  -15.9748  -48.6143 C.ar      23 UNK        -0.0193 
     10 C10        -7.2042  -15.5541  -49.7815 C.ar      23 UNK        -0.1150 
     11 C11        -7.3314  -16.4181  -50.8729 C.ar      23 UNK        -0.0193 
     12 C12        -6.8253  -17.7183  -50.7829 C.ar      23 UNK        -0.1150 
     13 C13        -6.2082  -18.1599  -49.6083 C.ar      23 UNK        -0.0193 
     14 C14        -6.0901  -17.2863  -48.5237 C.ar      23 UNK        -0.1150 
     15 C15        -5.6681  -19.5782  -49.5176 C.3       23 UNK        -0.0205 
     16 S16        -3.8876  -19.6391  -49.8869 S.3       23 UNK        -0.2404 
     17 C17        -3.1467  -19.4607  -48.2259 C.3       23 UNK        -0.0398 
     18 CA         -2.7186  -20.8310  -47.6427 C.3       11 UNK         0.1400 
     19 N          -1.4448  -20.7788  -46.9271 N.am      11 UNK        -0.5000 
     20 C          -0.6670  -21.8465  -46.6986 C.2       10 UNK         0.5000 
     21 O          -0.9337  -22.9852  -47.0927 O.2       10 UNK        -0.5000 
     22 CA          0.6141  -21.6002  -45.8817 C.3       10 UNK         0.1400 
     23 CB          1.7901  -21.2728  -46.8132 C.3       10 UNK        -0.1800 
     24 N           0.4574  -20.5335  -44.8877 N.am      10 UNK        -0.5000 
     25 C          -0.3176  -20.6522  -43.8008 C.2       9 UNK         0.5000 
     26 O          -0.9996  -21.6461  -43.5558 O.2       9 UNK        -0.5000 
     27 CA         -0.3710  -19.4481  -42.8460 C.3       9 UNK         0.1400 
     28 CB          0.9503  -19.3241  -42.0724 C.3       9 UNK        -0.1800 
     29 N          -0.7146  -18.1641  -43.4740 N.am      9 UNK        -0.5000 
     30 C          -1.7840  -17.9417  -44.2566 C.2       8 UNK         0.5000 
     31 O          -2.5008  -18.8379  -44.6995 O.2       8 UNK        -0.5000 
     32 CA         -2.1290  -16.4849  -44.6125 C.3       8 UNK         0.1400 
     33 CB         -3.6450  -16.2277  -44.5351 C.3       8 UNK        -0.1800 
     34 N          -1.4433  -15.5194  -43.7508 N.am      8 UNK        -0.5000 
     35 C          -0.6772  -14.5201  -44.1994 C.2       7 UNK         0.5000 
     36 O          -0.4223  -14.3386  -45.3886 O.2       7 UNK        -0.5000 
     37 CA         -0.0498  -13.5829  -43.1528 C.3       7 UNK         0.1400 
     38 CB         -1.0598  -12.5065  -42.7294 C.3       7 UNK        -0.1800 
     39 N           0.4800  -14.2429  -41.9558 N.am      7 UNK        -0.5000 
     40 C           1.3044  -15.2972  -41.9310 C.2       6 UNK         0.5000 
     41 O           1.6268  -15.9500  -42.9332 O.2       6 UNK        -0.5000 
     42 CA          1.8542  -15.6913  -40.5505 C.3       6 UNK         0.1400 
     43 CB          0.7454  -16.1648  -39.5931 C.3       6 UNK        -0.1800 
     44 N           2.8229  -16.7503  -40.7770 N.am      6 UNK        -0.5000 
     45 C           3.9244  -17.0114  -40.0703 C.2       5 UNK         0.5000 
     46 O           4.1830  -16.5025  -38.9791 O.2       5 UNK        -0.5000 
     47 CA          4.9237  -17.9881  -40.7272 C.3       5 UNK         0.1400 
     48 CB          4.7108  -19.4125  -40.1920 C.3       5 UNK        -0.1800 
     49 N           4.8299  -18.0115  -42.1945 N.am      5 UNK        -0.5000 
     50 C           5.1166  -16.9775  -43.0011 C.2       4 UNK         0.5000 
     51 O           5.5710  -15.9081  -42.5900 O.2       4 UNK        -0.5000 
     52 CA          4.8318  -17.1436  -44.5072 C.3       4 UNK         0.1400 
     53 CB          4.1975  -18.4962  -44.8938 C.3       4 UNK        -0.1800 
     54 N           3.9368  -16.0749  -44.9449 N.am      4 UNK        -0.5000 
     55 C           4.3112  -14.9685  -45.5998 C.2       3 UNK         0.5000 
     56 O           5.4769  -14.7122  -45.9089 O.2       3 UNK        -0.5000 
     57 CA          3.1652  -14.0151  -46.0073 C.3       3 UNK         0.1400 
     58 CB          3.6330  -12.8255  -46.8704 C.3       3 UNK        -0.1800 
     59 N           2.0591  -14.7227  -46.6639 N.am      3 UNK        -0.5000 
     60 C           2.1259  -15.4952  -47.7616 C.2       2 UNK         0.5000 
     61 O           3.1433  -15.6584  -48.4352 O.2       2 UNK        -0.5000 
     62 CA          0.8379  -16.2261  -48.1686 C.3       2 UNK         0.1400 
     63 CB          0.6588  -17.4834  -47.3021 C.3       2 UNK        -0.1800 
     64 N          -0.3309  -15.3617  -48.0199 N.am      2 UNK        -0.5000 
     65 C          -1.2243  -15.0899  -48.9794 C.2       1 UNK         0.5000 
     66 O          -1.2038  -15.5900  -50.1053 O.2       1 UNK        -0.5000 
     67 C          -3.8137  -21.4969  -46.7852 C.2       11 UNK         0.5000 
     68 O          -4.5627  -22.3307  -47.2925 O.2       11 UNK        -0.5000 
     69 N          -3.8457  -21.1701  -45.4878 N.am      12 UNK        -0.5000 
     70 CA         -4.7137  -21.8019  -44.4965 C.3       12 UNK         0.1400 
     71 CB         -4.6464  -21.0028  -43.1860 C.3       12 UNK        -0.1800 
     72 C          -4.3601  -23.2822  -44.2548 C.2       12 UNK         0.5000 
     73 O          -5.2663  -24.1004  -44.0932 O.2       12 UNK        -0.5000 
     74 N          -3.0570  -23.5968  -44.2350 N.am      13 UNK        -0.5000 
     75 CA         -2.5318  -24.9389  -43.9952 C.3       13 UNK         0.1400 
     76 CB         -1.0268  -24.8645  -43.6930 C.3       13 UNK        -0.1800 
     77 C          -2.8018  -25.9207  -45.1479 C.2       13 UNK         0.5000 
     78 O          -3.3187  -27.0102  -44.8945 O.2       13 UNK        -0.5000 
     79 N          -2.4220  -25.5464  -46.3784 N.am      14 UNK        -0.5000 
     80 CA         -2.4122  -26.4625  -47.5239 C.3       14 UNK         0.1400 
     81 CB         -1.1351  -27.3285  -47.4802 C.3       14 UNK        -0.1800 
     82 C          -2.5735  -25.7376  -48.8704 C.2       14 UNK         0.5000 
     83 O          -2.0649  -26.2238  -49.8842 O.2       14 UNK        -0.5000 
     84 N          -3.2472  -24.5763  -48.8741 N.am      15 UNK        -0.5000 
     85 CA         -3.4928  -23.7274  -50.0494 C.3       15 UNK         0.1400 
     86 CB         -4.5155  -24.3921  -50.9929 C.3       15 UNK        -0.1800 
     87 C          -2.1953  -23.2921  -50.7640 C.2       15 UNK         0.5000 
     88 O          -2.1835  -23.1679  -51.9869 O.2       15 UNK        -0.5000 
     89 N          -1.1147  -23.1011  -49.9910 N.am      16 UNK        -0.5000 
     90 CA          0.2426  -22.7822  -50.4425 C.3       16 UNK         0.1400 
     91 CB          0.2958  -21.3579  -51.0308 C.3       16 UNK        -0.1800 
     92 C           0.8070  -23.8680  -51.3839 C.2       16 UNK         0.5000 
     93 O           1.3669  -23.5527  -52.4338 O.2       16 UNK        -0.5000 
     94 N           0.6075  -25.1327  -50.9816 N.am      17 UNK        -0.5000 
     95 CA          0.9022  -26.3654  -51.7181 C.3       17 UNK         0.1400 
     96 CB          2.4116  -26.5079  -52.0087 C.3       17 UNK        -0.1800 
     97 C           0.0127  -26.5053  -52.9698 C.2       17 UNK         0.5000 
     98 O           0.5153  -26.7426  -54.0697 O.2       17 UNK        -0.5000 
     99 N          -1.3037  -26.3485  -52.7599 N.am      18 UNK        -0.5000 
    100 CA        -2.3824  -26.4544  -53.7525 C.3       18 UNK         0.1400 
    101 CB        -2.4955  -27.9003  -54.2798 C.3       18 UNK        -0.1800 
    102 C         -2.3139  -25.4074  -54.8878 C.2       18 UNK         0.5000 
    103 O         -2.8277  -25.6541  -55.9806 O.2       18 UNK        -0.5000 
    104 N         -1.6967  -24.2530  -54.6116 N.am      19 UNK        -0.5000 
    105 CA        -1.5788  -23.1276  -55.5367 C.3       19 UNK         0.1400 
    106 CB        -0.2632  -22.3874  -55.2522 C.3       19 UNK        -0.1800 
    107 C         -2.7663  -22.1547  -55.4263 C.2       19 UNK         0.5000 
    108 O         -3.1221  -21.5333  -56.4280 O.2       19 UNK        -0.5000 
    109 N         -3.3353  -22.0311  -54.2153 N.am      20 UNK        -0.5000 
    110 CA        -4.3596  -21.0683  -53.7944 C.3       20 UNK         0.1400 
    111 CB        -5.7128  -21.3707  -54.4692 C.3       20 UNK        -0.1800 
    112 C         -3.8721  -19.6211  -54.0082 C.2       20 UNK         0.5000 
    113 O         -4.4676  -18.8750  -54.7872 O.2       20 UNK        -0.5000 
    114 N         -2.7462  -19.3022  -53.3490 N.am      21 UNK        -0.5000 
    115 CA        -1.9153  -18.1070  -53.5286 C.3       21 UNK         0.1400 
    116 CB        -0.8351  -18.0688  -52.4348 C.3       21 UNK        -0.1800 
    117 C         -2.6831  -16.7749  -53.5944 C.2       21 UNK         0.5000 
    118 O         -2.5613  -16.0638  -54.5933 O.2       21 UNK        -0.5000 
    119 N         -3.4766  -16.4848  -52.5533 N.am      22 UNK        -0.5000 
    120 CA        -4.3665  -15.3115  -52.4741 C.3       22 UNK         0.1400 
    121 C         -3.6365  -13.9288  -52.5363 C.2       22 UNK         0.5000 
    122 N         -2.3693  -13.8413  -52.1518 N.am      22 UNK        -0.7600 
    123 O         -4.2129  -12.9177  -52.9273 O.2       22 UNK        -0.5000 
    124 C124       -5.5487  -15.4429  -53.4807 C.3       23 UNK        -0.0398 
    125 S125       -7.0727  -14.5891  -52.9475 S.3       23 UNK        -0.2404 
    126 C126       -8.0034  -15.9374  -52.1505 C.3       23 UNK        -0.0205 
    127 H127       -1.4049  -11.2954  -45.8881 H         1 UNK         0.0600 
    128 H128       -0.5904  -10.1937  -46.9985 H         1 UNK         0.0600 
    129 H129        0.3058  -11.5316  -46.2672 H         1 UNK         0.0600 
    130 H130       -2.3015  -13.2043  -46.7030 H         1 UNK         0.3000 
    131 H131       -2.5988  -13.5433  -49.5279 H         1 UNK         0.0600 
    132 H132       -3.4109  -15.4552  -47.2832 H         1 UNK         0.0800 
    133 H133       -3.8866  -15.5760  -48.9590 H         1 UNK         0.0800 
    134 H134       -7.2722  -14.4701  -47.2578 H         1 UNK         0.0800 
    135 H135       -6.0754  -15.5282  -46.5526 H         1 UNK         0.0800 
    136 H136       -7.5724  -14.5402  -49.8546 H         1 UNK         0.1150 
    137 H137       -6.9114  -18.3881  -51.6272 H         1 UNK         0.1150 
    138 H138       -5.6106  -17.6162  -47.6145 H         1 UNK         0.1150 
    139 H139       -5.8696  -19.9988  -48.5315 H         1 UNK         0.0800 
    140 H140       -6.1903  -20.2204  -50.2284 H         1 UNK         0.0800 
    141 H141       -3.8031  -18.9160  -47.5477 H         1 UNK         0.0800 
    142 H142       -2.2759  -18.8197  -48.3611 H         1 UNK         0.0800 
    143 H143       -2.5444  -21.4937  -48.4848 H         1 UNK         0.0600 
    144 H144       -1.1969  -19.9009  -46.4958 H         1 UNK         0.3000 
    145 H145        0.8531  -22.5240  -45.3511 H         1 UNK         0.0600 
    146 H146        2.6959  -21.0521  -46.2482 H         1 UNK         0.0600 
    147 H147        2.0146  -22.1195  -47.4625 H         1 UNK         0.0600 
    148 H148        1.5752  -20.4199  -47.4562 H         1 UNK         0.0600 
    149 H149        0.9800  -19.6828  -45.0295 H         1 UNK         0.3000 
    150 H150       -1.1580  -19.6634  -42.1203 H         1 UNK         0.0600 
    151 H151        1.2906  -20.2950  -41.7090 H         1 UNK         0.0600 
    152 H152        0.8320  -18.6889  -41.1985 H         1 UNK         0.0600 
    153 H153        1.7441  -18.9073  -42.6894 H         1 UNK         0.0600 
    154 H154       -0.1374  -17.3722  -43.2236 H         1 UNK         0.3000 
    155 H155       -1.8224  -16.3604  -45.6518 H         1 UNK         0.0600 
    156 H156       -4.0298  -16.4031  -43.5300 H         1 UNK         0.0600 
    157 H157       -4.1946  -16.8793  -45.2158 H         1 UNK         0.0600 
    158 H158       -3.8851  -15.2001  -44.8090 H         1 UNK         0.0600 
    159 H159       -1.5914  -15.6111  -42.7556 H         1 UNK         0.3000 
    160 H160        0.7900  -13.0820  -43.6376 H         1 UNK         0.0600 
    161 H161       -1.8958  -12.9346  -42.1748 H         1 UNK         0.0600 
    162 H162       -1.4732  -11.9896  -43.5958 H         1 UNK         0.0600 
    163 H163       -0.5906  -11.7512  -42.0987 H         1 UNK         0.0600 
    164 H164        0.2616  -13.7914  -41.0794 H         1 UNK         0.3000 
    165 H165        2.3643  -14.8245  -40.1253 H         1 UNK         0.0600 
    166 H166        1.1641  -16.5952  -38.6833 H         1 UNK         0.0600 
    167 H167        0.1117  -15.3309  -39.2902 H         1 UNK         0.0600 
    168 H168        0.0969  -16.9115  -40.0496 H         1 UNK         0.0600 
    169 H169        2.7421  -17.1609  -41.6979 H         1 UNK         0.3000 
    170 H170        5.9304  -17.6634  -40.4560 H         1 UNK         0.0600 
    171 H171        4.8003  -19.4383  -39.1051 H         1 UNK         0.0600 
    172 H172        3.7224  -19.7957  -40.4488 H         1 UNK         0.0600 
    173 H173        5.4542  -20.1010  -40.5942 H         1 UNK         0.0600 
    174 H174        4.4869  -18.8657  -42.6085 H         1 UNK         0.3000 
    175 H175        5.7929  -17.0705  -45.0200 H         1 UNK         0.0600 
    176 H176        3.2186  -18.6353  -44.4372 H         1 UNK         0.0600 
    177 H177        4.0623  -18.5612  -45.9739 H         1 UNK         0.0600 
    178 H178        4.8327  -19.3344  -44.6049 H         1 UNK         0.0600 
    179 H179        2.9731  -16.1505  -44.6426 H         1 UNK         0.3000 
    180 H180        2.7637  -13.6084  -45.0783 H         1 UNK         0.0600 
    181 H181        4.0802  -13.1557  -47.8084 H         1 UNK         0.0600 
    182 H182        4.3793  -12.2303  -46.3432 H         1 UNK         0.0600 
    183 H183        2.8009  -12.1639  -47.1116 H         1 UNK         0.0600 
    184 H184        1.1655  -14.6497  -46.1860 H         1 UNK         0.3000 
    185 H185        0.9540  -16.5370  -49.2092 H         1 UNK         0.0600 
    186 H186        1.5445  -18.1161  -47.3591 H         1 UNK         0.0600 
    187 H187        0.5055  -17.2322  -46.2524 H         1 UNK         0.0600 
    188 H188       -0.1898  -18.0756  -47.6390 H         1 UNK         0.0600 
    189 H189       -0.4231  -14.8728  -47.1329 H         1 UNK         0.3000 
    190 H190       -3.2243  -20.4391  -45.1465 H         1 UNK         0.3000 
    191 H191       -5.7393  -21.7598  -44.8693 H         1 UNK         0.0600 
    192 H192       -3.6356  -20.9857  -42.7767 H         1 UNK         0.0600 
    193 H193       -5.3018  -21.4356  -42.4293 H         1 UNK         0.0600 
    194 H194       -4.9606  -19.9700  -43.3385 H         1 UNK         0.0600 
    195 H195       -2.3746  -22.8471  -44.2905 H         1 UNK         0.3000 
    196 H196       -3.0260  -25.3344  -43.1051 H         1 UNK         0.0600 
    197 H197       -0.6126  -25.8583  -43.5181 H         1 UNK         0.0600 
    198 H198       -0.8339  -24.2726  -42.7983 H         1 UNK         0.0600 
    199 H199       -0.4709  -24.4177  -44.5173 H         1 UNK         0.0600 
    200 H200       -1.9882  -24.6384  -46.5171 H         1 UNK         0.3000 
    201 H201       -3.2755  -27.1274  -47.4561 H         1 UNK         0.0600 
    202 H202       -1.0659  -27.8909  -46.5492 H         1 UNK         0.0600 
    203 H203       -0.2368  -26.7164  -47.5683 H         1 UNK         0.0600 
    204 H204       -1.1199  -28.0574  -48.2915 H         1 UNK         0.0600 
    205 H205       -3.6419  -24.2354  -48.0057 H         1 UNK         0.3000 
    206 H206       -3.9569  -22.8067  -49.7026 H         1 UNK         0.0600 
    207 H207       -4.7236  -23.7697  -51.8640 H         1 UNK         0.0600 
    208 H208       -5.4645  -24.5530  -50.4816 H         1 UNK         0.0600 
    209 H209       -4.1684  -25.3593  -51.3500 H         1 UNK         0.0600 
    210 H210       -1.2115  -23.2402  -48.9894 H         1 UNK         0.3000 
    211 H211        0.8746  -22.7935  -49.5541 H         1 UNK         0.0600 
    212 H212        1.3196  -21.0732  -51.2753 H         1 UNK         0.0600 
    213 H213       -0.0846  -20.6247  -50.3192 H         1 UNK         0.0600 
    214 H214       -0.2935  -21.2750  -51.9431 H         1 UNK         0.0600 
    215 H215        0.0717  -25.2680  -50.1350 H         1 UNK         0.3000 
    216 H216        0.6226  -27.1863  -51.0559 H         1 UNK         0.0600 
    217 H217        2.6328  -27.4883  -52.4321 H         1 UNK         0.0600 
    218 H218        2.9998  -26.4083  -51.0966 H         1 UNK         0.0600 
    219 H219        2.7656  -25.7616  -52.7201 H         1 UNK         0.0600 
    220 H220       -1.6059  -26.1725  -51.8053 H         1 UNK         0.3000 
    221 H221       -3.3063  -26.2397  -53.2183 H         1 UNK         0.0600 
    222 H222       -1.6387  -28.1756  -54.8953 H         1 UNK         0.0600 
    223 H223       -2.5633  -28.6147  -53.4593 H         1 UNK         0.0600 
    224 H224       -3.3899  -28.0268  -54.8909 H         1 UNK         0.0600 
    225 H225       -1.3615  -24.1016  -53.6675 H         1 UNK         0.3000 
    226 H226       -1.5408  -23.4995  -56.5628 H         1 UNK         0.0600 
    227 H227        0.5941  -23.0526  -55.3587 H         1 UNK         0.0600 
    228 H228       -0.1220  -21.5579  -55.9461 H         1 UNK         0.0600 
    229 H229       -0.2426  -21.9781  -54.2419 H         1 UNK         0.0600 
    230 H230       -2.9242  -22.5731  -53.4561 H         1 UNK         0.3000 
    231 H231       -4.4920  -21.2004  -52.7193 H         1 UNK         0.0600 
    232 H232       -6.0338  -22.3918  -54.2632 H         1 UNK         0.0600 
    233 H233       -5.6675  -21.2460  -55.5514 H         1 UNK         0.0600 
    234 H234       -6.4899  -20.7031  -54.0955 H         1 UNK         0.0600 
    235 H235       -2.3617  -20.0031  -52.7335 H         1 UNK         0.3000 
    236 H236       -1.4080  -18.2252  -54.4880 H         1 UNK         0.0600 
    237 H237       -0.2508  -17.1491  -52.4889 H         1 UNK         0.0600 
    238 H238       -1.2679  -18.1219  -51.4349 H         1 UNK         0.0600 
    239 H239       -0.1364  -18.8973  -52.5441 H         1 UNK         0.0600 
    240 H240       -3.5052  -17.1248  -51.7727 H         1 UNK         0.3000 
    241 H241       -4.7802  -15.3532  -51.4670 H         1 UNK         0.0600 
    242 H242       -1.8984  -12.9524  -52.2033 H         1 UNK         0.3800 
    243 H243       -1.8897  -14.6441  -51.7601 H         1 UNK         0.3800 
    244 H244       -5.2593  -15.0672  -54.4634 H         1 UNK         0.0800 
    245 H245       -5.7957  -16.4943  -53.6363 H         1 UNK         0.0800 
    246 H246       -8.1352  -16.7567  -52.8591 H         1 UNK         0.0800 
    247 H247       -9.0046  -15.5784  -51.9085 H         1 UNK         0.0800 
@<TRIPOS>BOND
     1    1    2 1    
     2    1  127 1    
     3    1  128 1    
     4    1  129 1    
     5    2    3 2    
     6    2    4 am   BACKBONE|DICT|INTERRES
     7    4    5 1    
     8    4  130 1    
     9    5    6 1    
    10    5   65 1    
    11    5  131 1    
    12    6    7 1    
    13    6  132 1    
    14    6  133 1    
    15    7    8 1    
    16    8    9 1    
    17    8  134 1    
    18    8  135 1    
    19    9   10 ar   
    20    9   14 ar   
    21   10   11 ar   
    22   10  136 1    
    23   11   12 ar   
    24   11  126 1    
    25   12   13 ar   
    26   12  137 1    
    27   13   14 ar   
    28   13   15 1    
    29   14  138 1    
    30   15   16 1    
    31   15  139 1    
    32   15  140 1    
    33   16   17 1    
    34   17   18 1    
    35   17  141 1    
    36   17  142 1    
    37   18   19 1    
    38   18   67 1    
    39   18  143 1    
    40   19   20 am   BACKBONE|DICT|INTERRES
    41   19  144 1    
    42   20   21 2    
    43   20   22 1    
    44   22   23 1    
    45   22   24 1    
    46   22  145 1    
    47   23  146 1    
    48   23  147 1    
    49   23  148 1    
    50   24   25 am   BACKBONE|DICT|INTERRES
    51   24  149 1    
    52   25   26 2    
    53   25   27 1    
    54   27   28 1    
    55   27   29 1    
    56   27  150 1    
    57   28  151 1    
    58   28  152 1    
    59   28  153 1    
    60   29   30 am   BACKBONE|DICT|INTERRES
    61   29  154 1    
    62   30   31 2    
    63   30   32 1    
    64   32   33 1    
    65   32   34 1    
    66   32  155 1    
    67   33  156 1    
    68   33  157 1    
    69   33  158 1    
    70   34   35 am   BACKBONE|DICT|INTERRES
    71   34  159 1    
    72   35   36 2    
    73   35   37 1    
    74   37   38 1    
    75   37   39 1    
    76   37  160 1    
    77   38  161 1    
    78   38  162 1    
    79   38  163 1    
    80   39   40 am   BACKBONE|DICT|INTERRES
    81   39  164 1    
    82   40   41 2    
    83   40   42 1    
    84   42   43 1    
    85   42   44 1    
    86   42  165 1    
    87   43  166 1    
    88   43  167 1    
    89   43  168 1    
    90   44   45 am   BACKBONE|DICT|INTERRES
    91   44  169 1    
    92   45   46 2    
    93   45   47 1    
    94   47   48 1    
    95   47   49 1    
    96   47  170 1    
    97   48  171 1    
    98   48  172 1    
    99   48  173 1    
   100   49   50 am   BACKBONE|DICT|INTERRES
   101   49  174 1    
   102   50   51 2    
   103   50   52 1    
   104   52   53 1    
   105   52   54 1    
   106   52  175 1    
   107   53  176 1    
   108   53  177 1    
   109   53  178 1    
   110   54   55 am   BACKBONE|DICT|INTERRES
   111   54  179 1    
   112   55   56 2    
   113   55   57 1    
   114   57   58 1    
   115   57   59 1    
   116   57  180 1    
   117   58  181 1    
   118   58  182 1    
   119   58  183 1    
   120   59   60 am   BACKBONE|DICT|INTERRES
   121   59  184 1    
   122   60   61 2    
   123   60   62 1    
   124   62   63 1    
   125   62   64 1    
   126   62  185 1    
   127   63  186 1    
   128   63  187 1    
   129   63  188 1    
   130   64   65 am   BACKBONE|DICT|INTERRES
   131   64  189 1    
   132   65   66 2    
   133   67   68 2    
   134   67   69 am   BACKBONE|DICT|INTERRES
   135   69   70 1    
   136   69  190 1    
   137   70   71 1    
   138   70   72 1    
   139   70  191 1    
   140   71  192 1    
   141   71  193 1    
   142   71  194 1    
   143   72   73 2    
   144   72   74 am   BACKBONE|DICT|INTERRES
   145   74   75 1    
   146   74  195 1    
   147   75   76 1    
   148   75   77 1    
   149   75  196 1    
   150   76  197 1    
   151   76  198 1    
   152   76  199 1    
   153   77   78 2    
   154   77   79 am   BACKBONE|DICT|INTERRES
   155   79   80 1    
   156   79  200 1    
   157   80   81 1    
   158   80   82 1    
   159   80  201 1    
   160   81  202 1    
   161   81  203 1    
   162   81  204 1    
   163   82   83 2    
   164   82   84 am   BACKBONE|DICT|INTERRES
   165   84   85 1    
   166   84  205 1    
   167   85   86 1    
   168   85   87 1    
   169   85  206 1    
   170   86  207 1    
   171   86  208 1    
   172   86  209 1    
   173   87   88 2    
   174   87   89 am   BACKBONE|DICT|INTERRES
   175   89   90 1    
   176   89  210 1    
   177   90   91 1    
   178   90   92 1    
   179   90  211 1    
   180   91  212 1    
   181   91  213 1    
   182   91  214 1    
   183   92   93 2    
   184   92   94 am   BACKBONE|DICT|INTERRES
   185   94   95 1    
   186   94  215 1    
   187   95   96 1    
   188   95   97 1    
   189   95  216 1    
   190   96  217 1    
   191   96  218 1    
   192   96  219 1    
   193   97   98 2    
   194   97   99 am   BACKBONE|DICT|INTERRES
   195   99  100 1    
   196   99  220 1    
   197  100  101 1    
   198  100  102 1    
   199  100  221 1    
   200  101  222 1    
   201  101  223 1    
   202  101  224 1    
   203  102  103 2    
   204  102  104 am   BACKBONE|DICT|INTERRES
   205  104  105 1    
   206  104  225 1    
   207  105  106 1    
   208  105  107 1    
   209  105  226 1    
   210  106  227 1    
   211  106  228 1    
   212  106  229 1    
   213  107  108 2    
   214  107  109 am   BACKBONE|DICT|INTERRES
   215  109  110 1    
   216  109  230 1    
   217  110  111 1    
   218  110  112 1    
   219  110  231 1    
   220  111  232 1    
   221  111  233 1    
   222  111  234 1    
   223  112  113 2    
   224  112  114 am   BACKBONE|DICT|INTERRES
   225  114  115 1    
   226  114  235 1    
   227  115  116 1    
   228  115  117 1    
   229  115  236 1    
   230  116  237 1    
   231  116  238 1    
   232  116  239 1    
   233  117  118 2    
   234  117  119 am   BACKBONE|DICT|INTERRES
   235  119  120 1    
   236  119  240 1    
   237  120  121 1    
   238  120  124 1    
   239  120  241 1    
   240  121  122 am   BACKBONE|DICT|INTERRES
   241  121  123 2    
   242  122  242 1    
   243  122  243 1    
   244  124  125 1    
   245  124  244 1    
   246  124  245 1    
   247  125  126 1    
   248  126  246 1    
   249  126  247 1    
@<TRIPOS>SUBSTRUCTURE
     1 UNK         1 GROUP             0       ****    0 ROOT    
