@<TRIPOS>MOLECULE
3R540
247   249    1
SMALL
USER_CHARGES


@<TRIPOS>ATOM
      1 CA         -7.9628  -14.1919  -47.9822 C.3       0 UNK        -0.1800 
      2 C          -6.7652  -14.4024  -48.8977 C.2       0 UNK         0.5000 
      3 O          -6.7456  -13.8788  -50.0123 O.2       0 UNK        -0.5000 
      4 N          -5.7744  -15.1757  -48.4388 N.am      1 UNK        -0.5000 
      5 CA         -4.5225  -15.4311  -49.1536 C.3       1 UNK         0.1400 
      6 C6         -3.8473  -16.7415  -48.6799 C.3       23 UNK        -0.0398 
      7 S7         -3.3240  -16.7498  -46.9273 S.3       23 UNK        -0.2404 
      8 C8         -3.4537  -18.5238  -46.5273 C.3       23 UNK        -0.0205 
      9 C9         -2.7000  -19.4009  -47.5156 C.ar      23 UNK        -0.0193 
     10 C10        -3.3777  -20.4000  -48.2149 C.ar      23 UNK        -0.1150 
     11 C11        -2.7027  -21.2076  -49.1326 C.ar      23 UNK        -0.0193 
     12 C12        -1.3388  -21.0052  -49.3564 C.ar      23 UNK        -0.1150 
     13 C13        -0.6487  -20.0061  -48.6651 C.ar      23 UNK        -0.0193 
     14 C14        -1.3340  -19.2128  -47.7413 C.ar      23 UNK        -0.1150 
     15 C15         0.8327  -19.7735  -48.9220 C.3       23 UNK        -0.0205 
     16 S16         1.8802  -21.0823  -48.2148 S.3       23 UNK        -0.2404 
     17 C17         1.5295  -20.9214  -46.4302 C.3       23 UNK        -0.0398 
     18 CA          1.1054  -22.2525  -45.7653 C.3       11 UNK         0.1400 
     19 N           1.2605  -22.1789  -44.3107 N.am      11 UNK        -0.5000 
     20 C           1.2087  -23.2160  -43.4643 C.2       10 UNK         0.5000 
     21 O           0.9262  -24.3648  -43.8058 O.2       10 UNK        -0.5000 
     22 CA          1.5249  -22.9124  -41.9909 C.3       10 UNK         0.1400 
     23 CB          3.0381  -22.7375  -41.7865 C.3       10 UNK        -0.1800 
     24 N           0.8376  -21.7019  -41.5454 N.am      10 UNK        -0.5000 
     25 C          -0.3524  -21.6912  -40.9306 C.2       9 UNK         0.5000 
     26 O          -0.9647  -22.7095  -40.6063 O.2       9 UNK        -0.5000 
     27 CA         -0.9772  -20.3125  -40.6317 C.3       9 UNK         0.1400 
     28 CB         -0.5803  -19.8392  -39.2252 C.3       9 UNK        -0.1800 
     29 N          -0.6281  -19.2691  -41.5978 N.am      9 UNK        -0.5000 
     30 C          -0.8855  -19.3169  -42.9127 C.2       8 UNK         0.5000 
     31 O          -1.4436  -20.2581  -43.4733 O.2       8 UNK        -0.5000 
     32 CA         -0.3809  -18.1353  -43.7542 C.3       8 UNK         0.1400 
     33 CB         -1.3630  -16.9589  -43.6535 C.3       8 UNK        -0.1800 
     34 N           0.9552  -17.6743  -43.3758 N.am      8 UNK        -0.5000 
     35 C           2.0669  -18.4172  -43.2794 C.2       7 UNK         0.5000 
     36 O           2.1028  -19.6333  -43.4654 O.2       7 UNK        -0.5000 
     37 CA          3.3463  -17.6755  -42.8676 C.3       7 UNK         0.1400 
     38 CB          3.9292  -16.8898  -44.0528 C.3       7 UNK        -0.1800 
     39 N           3.0802  -16.7630  -41.7577 N.am      7 UNK        -0.5000 
     40 C           3.0869  -17.1218  -40.4673 C.2       6 UNK         0.5000 
     41 O           3.3913  -18.2476  -40.0717 O.2       6 UNK        -0.5000 
     42 CA          2.6780  -16.0464  -39.4418 C.3       6 UNK         0.1400 
     43 CB          3.9111  -15.2668  -38.9605 C.3       6 UNK        -0.1800 
     44 N           1.6828  -15.0996  -39.9492 N.am      6 UNK        -0.5000 
     45 C           0.4154  -15.4158  -40.2474 C.2       5 UNK         0.5000 
     46 O          -0.0520  -16.5510  -40.1434 O.2       5 UNK        -0.5000 
     47 CA         -0.4686  -14.2742  -40.7898 C.3       5 UNK         0.1400 
     48 CB         -1.0200  -13.4308  -39.6300 C.3       5 UNK        -0.1800 
     49 N           0.1695  -13.3847  -41.7716 N.am      5 UNK        -0.5000 
     50 C           0.8487  -13.7684  -42.8612 C.2       4 UNK         0.5000 
     51 O           1.1839  -14.9318  -43.0882 O.2       4 UNK        -0.5000 
     52 CA          1.2503  -12.6701  -43.8614 C.3       4 UNK         0.1400 
     53 CB          2.6087  -12.0676  -43.4726 C.3       4 UNK        -0.1800 
     54 N           1.3466  -13.2236  -45.2139 N.am      4 UNK        -0.5000 
     55 C           0.2976  -13.6159  -45.9489 C.2       3 UNK         0.5000 
     56 O          -0.8769  -13.4054  -45.6372 O.2       3 UNK        -0.5000 
     57 CA          0.6302  -14.4296  -47.2143 C.3       3 UNK         0.1400 
     58 CB          0.7208  -15.9259  -46.8771 C.3       3 UNK        -0.1800 
     59 N          -0.3548  -14.2512  -48.2806 N.am      3 UNK        -0.5000 
     60 C          -0.5169  -13.1271  -48.9904 C.2       2 UNK         0.5000 
     61 O           0.1579  -12.1108  -48.8181 O.2       2 UNK        -0.5000 
     62 CA         -1.5730  -13.1438  -50.1154 C.3       2 UNK         0.1400 
     63 CB         -0.8747  -13.2707  -51.4782 C.3       2 UNK        -0.1800 
     64 N          -2.5718  -14.2113  -49.9909 N.am      2 UNK        -0.5000 
     65 C          -3.5666  -14.2171  -49.0949 C.2       1 UNK         0.5000 
     66 O          -3.7333  -13.3262  -48.2576 O.2       1 UNK        -0.5000 
     67 C          -0.2937  -22.7368  -46.2098 C.2       11 UNK         0.5000 
     68 O          -0.3935  -23.4111  -47.2340 O.2       11 UNK        -0.5000 
     69 N          -1.3348  -22.4763  -45.4033 N.am      12 UNK        -0.5000 
     70 CA         -2.7137  -22.9328  -45.6213 C.3       12 UNK         0.1400 
     71 CB         -3.6242  -22.3276  -44.5417 C.3       12 UNK        -0.1800 
     72 C          -2.9067  -24.4635  -45.7055 C.2       12 UNK         0.5000 
     73 O          -3.9691  -24.9079  -46.1420 O.2       12 UNK        -0.5000 
     74 N          -1.8917  -25.2460  -45.3120 N.am      13 UNK        -0.5000 
     75 CA         -1.8316  -26.6927  -45.5176 C.3       13 UNK         0.1400 
     76 CB         -0.7026  -27.2696  -44.6502 C.3       13 UNK        -0.1800 
     77 C          -1.6365  -27.0989  -46.9959 C.2       13 UNK         0.5000 
     78 O          -1.9525  -28.2378  -47.3447 O.2       13 UNK        -0.5000 
     79 N          -1.1140  -26.1919  -47.8358 N.am      14 UNK        -0.5000 
     80 CA         -0.9224  -26.4064  -49.2707 C.3       14 UNK         0.1400 
     81 CB          0.0279  -25.3306  -49.8209 C.3       14 UNK        -0.1800 
     82 C          -2.2579  -26.3732  -50.0358 C.2       14 UNK         0.5000 
     83 O          -3.1584  -25.6147  -49.6715 O.2       14 UNK        -0.5000 
     84 N          -2.3481  -27.1704  -51.1080 N.am      15 UNK        -0.5000 
     85 CA         -3.5057  -27.2073  -52.0070 C.3       15 UNK         0.1400 
     86 CB         -3.4777  -28.5172  -52.8099 C.3       15 UNK        -0.1800 
     87 C          -3.5602  -25.9943  -52.9567 C.2       15 UNK         0.5000 
     88 O          -4.6508  -25.5651  -53.3344 O.2       15 UNK        -0.5000 
     89 N          -2.3861  -25.4666  -53.3182 N.am      16 UNK        -0.5000 
     90 CA         -2.1841  -24.2914  -54.1556 C.3       16 UNK         0.1400 
     91 CB         -2.3740  -24.6494  -55.6402 C.3       16 UNK        -0.1800 
     92 C          -0.7671  -23.7644  -53.8903 C.2       16 UNK         0.5000 
     93 O           0.1022  -24.5400  -53.4817 O.2       16 UNK        -0.5000 
     94 N          -0.5593  -22.4658  -54.1254 N.am      17 UNK        -0.5000 
     95 CA          0.7129  -21.7755  -53.8880 C.3       17 UNK         0.1400 
     96 CB          0.8464  -21.4557  -52.3869 C.3       17 UNK        -0.1800 
     97 C           0.8845  -20.4925  -54.7247 C.2       17 UNK         0.5000 
     98 O           1.9386  -19.8640  -54.6285 O.2       17 UNK        -0.5000 
     99 N          -0.1489  -20.0939  -55.4851 N.am      18 UNK        -0.5000 
    100 CA        -0.2902  -18.8217  -56.2117 C.3       18 UNK         0.1400 
    101 CB         0.8382  -18.6163  -57.2439 C.3       18 UNK        -0.1800 
    102 C         -0.4794  -17.5985  -55.2843 C.2       18 UNK         0.5000 
    103 O         -0.4188  -16.4593  -55.7501 O.2       18 UNK        -0.5000 
    104 N         -0.7372  -17.8455  -53.9927 N.am      19 UNK        -0.5000 
    105 CA        -0.9130  -16.8459  -52.9424 C.3       19 UNK         0.1400 
    106 CB        -0.5288  -17.4805  -51.5916 C.3       19 UNK        -0.1800 
    107 C         -2.3430  -16.2719  -52.9371 C.2       19 UNK         0.5000 
    108 O         -3.0617  -16.4307  -51.9490 O.2       19 UNK        -0.5000 
    109 N         -2.7281  -15.6130  -54.0378 N.am      20 UNK        -0.5000 
    110 CA        -4.0387  -15.0102  -54.3100 C.3       20 UNK         0.1400 
    111 CB        -4.3334  -13.8290  -53.3589 C.3       20 UNK        -0.1800 
    112 C         -5.1558  -16.0698  -54.3324 C.2       20 UNK         0.5000 
    113 O         -5.3696  -16.6909  -55.3743 O.2       20 UNK        -0.5000 
    114 N         -5.8145  -16.2930  -53.1861 N.am      21 UNK        -0.5000 
    115 CA        -6.8666  -17.2952  -52.9810 C.3       21 UNK         0.1400 
    116 CB        -7.3823  -17.1883  -51.5375 C.3       21 UNK        -0.1800 
    117 C         -6.4235  -18.7410  -53.2865 C.2       21 UNK         0.5000 
    118 O         -7.2423  -19.5430  -53.7370 O.2       21 UNK        -0.5000 
    119 N         -5.1344  -19.0245  -53.0688 N.am      22 UNK        -0.5000 
    120 CA        -4.4614  -20.2798  -53.4372 C.3       22 UNK         0.1400 
    121 C         -3.6407  -20.1659  -54.7546 C.2       22 UNK         0.5000 
    122 N         -3.8382  -19.1512  -55.5866 N.am      22 UNK        -0.7600 
    123 O         -2.8018  -21.0177  -55.0390 O.2       22 UNK        -0.5000 
    124 C124       -3.6233  -20.8274  -52.2538 C.3       23 UNK        -0.0398 
    125 S125       -4.6980  -21.5952  -51.0002 S.3       23 UNK        -0.2404 
    126 C126       -3.4554  -22.2980  -49.8746 C.3       23 UNK        -0.0205 
    127 H127       -8.0872  -13.1309  -47.7659 H         1 UNK         0.0600 
    128 H128       -7.8477  -14.7210  -47.0359 H         1 UNK         0.0600 
    129 H129       -8.8714  -14.5519  -48.4650 H         1 UNK         0.0600 
    130 H130       -5.8196  -15.5463  -47.5005 H         1 UNK         0.3000 
    131 H131       -4.7818  -15.5730  -50.2039 H         1 UNK         0.0600 
    132 H132       -4.5382  -17.5697  -48.8447 H         1 UNK         0.0800 
    133 H133       -2.9760  -16.9699  -49.2957 H         1 UNK         0.0800 
    134 H134       -4.5096  -18.7961  -46.4935 H         1 UNK         0.0800 
    135 H135       -3.0599  -18.7087  -45.5288 H         1 UNK         0.0800 
    136 H136       -4.4346  -20.5545  -48.0486 H         1 UNK         0.1150 
    137 H137       -0.8096  -21.6366  -50.0538 H         1 UNK         0.1150 
    138 H138       -0.8089  -18.4387  -47.2037 H         1 UNK         0.1150 
    139 H139        1.0082  -19.7262  -49.9964 H         1 UNK         0.0800 
    140 H140        1.1490  -18.8096  -48.5222 H         1 UNK         0.0800 
    141 H141        0.7916  -20.1433  -46.2390 H         1 UNK         0.0800 
    142 H142        2.4538  -20.5638  -45.9748 H         1 UNK         0.0800 
    143 H143        1.8100  -23.0180  -46.0978 H         1 UNK         0.0600 
    144 H144        1.5118  -21.2643  -43.9414 H         1 UNK         0.3000 
    145 H145        1.2047  -23.7693  -41.3943 H         1 UNK         0.0600 
    146 H146        3.2758  -22.5793  -40.7345 H         1 UNK         0.0600 
    147 H147        3.5811  -23.6254  -42.1127 H         1 UNK         0.0600 
    148 H148        3.4292  -21.8878  -42.3477 H         1 UNK         0.0600 
    149 H149        1.2507  -20.8189  -41.8174 H         1 UNK         0.3000 
    150 H150       -2.0618  -20.4344  -40.6595 H         1 UNK         0.0600 
    151 H151       -0.8285  -20.5891  -38.4729 H         1 UNK         0.0600 
    152 H152       -1.1058  -18.9230  -38.9551 H         1 UNK         0.0600 
    153 H153        0.4907  -19.6429  -39.1558 H         1 UNK         0.0600 
    154 H154       -0.1884  -18.4358  -41.2233 H         1 UNK         0.3000 
    155 H155       -0.3353  -18.4610  -44.7942 H         1 UNK         0.0600 
    156 H156       -1.4096  -16.5718  -42.6375 H         1 UNK         0.0600 
    157 H157       -2.3748  -17.2561  -43.9257 H         1 UNK         0.0600 
    158 H158       -1.0766  -16.1382  -44.3104 H         1 UNK         0.0600 
    159 H159        1.0406  -16.6727  -43.2079 H         1 UNK         0.3000 
    160 H160        4.0847  -18.4200  -42.5621 H         1 UNK         0.0600 
    161 H161        4.8772  -16.4235  -43.7845 H         1 UNK         0.0600 
    162 H162        3.2559  -16.1023  -44.3915 H         1 UNK         0.0600 
    163 H163        4.1190  -17.5479  -44.9018 H         1 UNK         0.0600 
    164 H164        2.7334  -15.8441  -42.0042 H         1 UNK         0.3000 
    165 H165        2.2438  -16.5617  -38.5823 H         1 UNK         0.0600 
    166 H166        3.6489  -14.5605  -38.1726 H         1 UNK         0.0600 
    167 H167        4.6651  -15.9415  -38.5526 H         1 UNK         0.0600 
    168 H168        4.3762  -14.7075  -39.7733 H         1 UNK         0.0600 
    169 H169        1.9848  -14.1459  -40.0840 H         1 UNK         0.3000 
    170 H170       -1.3200  -14.7358  -41.2909 H         1 UNK         0.0600 
    171 H171       -1.5167  -14.0597  -38.8898 H         1 UNK         0.0600 
    172 H172       -0.2277  -12.8838  -39.1176 H         1 UNK         0.0600 
    173 H173       -1.7547  -12.7066  -39.9822 H         1 UNK         0.0600 
    174 H174       -0.0269  -12.4008  -41.6574 H         1 UNK         0.3000 
    175 H175        0.4932  -11.8832  -43.8535 H         1 UNK         0.0600 
    176 H176        3.3962  -12.8227  -43.4605 H         1 UNK         0.0600 
    177 H177        2.9062  -11.2836  -44.1693 H         1 UNK         0.0600 
    178 H178        2.5688  -11.6194  -42.4790 H         1 UNK         0.0600 
    179 H179        2.2750  -13.4697  -45.5233 H         1 UNK         0.3000 
    180 H180        1.6008  -14.1017  -47.5926 H         1 UNK         0.0600 
    181 H181       -0.2378  -16.3105  -46.5310 H         1 UNK         0.0600 
    182 H182        1.4504  -16.1113  -46.0882 H         1 UNK         0.0600 
    183 H183        1.0253  -16.5080  -47.7463 H         1 UNK         0.0600 
    184 H184       -0.9865  -15.0188  -48.4480 H         1 UNK         0.3000 
    185 H185       -2.0945  -12.1846  -50.0894 H         1 UNK         0.0600 
    186 H186       -0.1858  -12.4408  -51.6412 H         1 UNK         0.0600 
    187 H187       -0.2948  -14.1908  -51.5456 H         1 UNK         0.0600 
    188 H188       -1.5904  -13.2580  -52.2986 H         1 UNK         0.0600 
    189 H189       -2.5256  -14.9695  -50.6624 H         1 UNK         0.3000 
    190 H190       -1.1876  -21.8831  -44.5921 H         1 UNK         0.3000 
    191 H191       -3.0324  -22.5416  -46.5864 H         1 UNK         0.0600 
    192 H192       -3.2871  -22.5928  -43.5389 H         1 UNK         0.0600 
    193 H193       -4.6526  -22.6748  -44.6482 H         1 UNK         0.0600 
    194 H194       -3.6467  -21.2404  -44.6143 H         1 UNK         0.0600 
    195 H195       -1.0536  -24.8064  -44.9524 H         1 UNK         0.3000 
    196 H196       -2.7754  -27.1254  -45.1795 H         1 UNK         0.0600 
    197 H197       -0.6583  -28.3560  -44.7368 H         1 UNK         0.0600 
    198 H198       -0.8528  -27.0330  -43.5966 H         1 UNK         0.0600 
    199 H199        0.2708  -26.8762  -44.9462 H         1 UNK         0.0600 
    200 H200       -0.9166  -25.2542  -47.4967 H         1 UNK         0.3000 
    201 H201       -0.4555  -27.3836  -49.4109 H         1 UNK         0.0600 
    202 H202        0.9658  -25.3070  -49.2658 H         1 UNK         0.0600 
    203 H203       -0.4161  -24.3353  -49.7683 H         1 UNK         0.0600 
    204 H204        0.2731  -25.5225  -50.8658 H         1 UNK         0.0600 
    205 H205       -1.5717  -27.7712  -51.3450 H         1 UNK         0.3000 
    206 H206       -4.4169  -27.1989  -51.4047 H         1 UNK         0.0600 
    207 H207       -4.3410  -28.5863  -53.4731 H         1 UNK         0.0600 
    208 H208       -2.5823  -28.5928  -53.4281 H         1 UNK         0.0600 
    209 H209       -3.5059  -29.3848  -52.1504 H         1 UNK         0.0600 
    210 H210       -1.5278  -25.8525  -52.9453 H         1 UNK         0.3000 
    211 H211       -2.9078  -23.5267  -53.8701 H         1 UNK         0.0600 
    212 H212       -1.6736  -25.4222  -55.9592 H         1 UNK         0.0600 
    213 H213       -2.2151  -23.7764  -56.2745 H         1 UNK         0.0600 
    214 H214       -3.3837  -25.0101  -55.8365 H         1 UNK         0.0600 
    215 H215       -1.3380  -21.9100  -54.4703 H         1 UNK         0.3000 
    216 H216        1.5309  -22.4382  -54.1782 H         1 UNK         0.0600 
    217 H217        1.7992  -20.9726  -52.1672 H         1 UNK         0.0600 
    218 H218        0.8005  -22.3584  -51.7773 H         1 UNK         0.0600 
    219 H219        0.0539  -20.7835  -52.0579 H         1 UNK         0.0600 
    220 H220       -0.9900  -20.6608  -55.4963 H         1 UNK         0.3000 
    221 H221       -1.2189  -18.9096  -56.7753 H         1 UNK         0.0600 
    222 H222        1.7938  -18.3950  -56.7685 H         1 UNK         0.0600 
    223 H223        0.9683  -19.5000  -57.8684 H         1 UNK         0.0600 
    224 H224        0.6095  -17.7820  -57.9079 H         1 UNK         0.0600 
    225 H225       -0.7998  -18.8098  -53.7074 H         1 UNK         0.3000 
    226 H226       -0.2276  -16.0166  -53.1276 H         1 UNK         0.0600 
    227 H227       -0.6041  -16.7565  -50.7793 H         1 UNK         0.0600 
    228 H228       -1.1737  -18.3233  -51.3394 H         1 UNK         0.0600 
    229 H229        0.5002  -17.8399  -51.6067 H         1 UNK         0.0600 
    230 H230       -2.0675  -15.5887  -54.8076 H         1 UNK         0.3000 
    231 H231       -3.9845  -14.6033  -55.3209 H         1 UNK         0.0600 
    232 H232       -3.6111  -13.0262  -53.5026 H         1 UNK         0.0600 
    233 H233       -4.3085  -14.1131  -52.3077 H         1 UNK         0.0600 
    234 H234       -5.3192  -13.4067  -53.5577 H         1 UNK         0.0600 
    235 H235       -5.5401  -15.7588  -52.3751 H         1 UNK         0.3000 
    236 H236       -7.6876  -17.0539  -53.6590 H         1 UNK         0.0600 
    237 H237       -7.7915  -16.1981  -51.3377 H         1 UNK         0.0600 
    238 H238       -8.1784  -17.9104  -51.3517 H         1 UNK         0.0600 
    239 H239       -6.5906  -17.3790  -50.8117 H         1 UNK         0.0600 
    240 H240       -4.5433  -18.2903  -52.7031 H         1 UNK         0.3000 
    241 H241       -5.2131  -21.0341  -53.6763 H         1 UNK         0.0600 
    242 H242       -4.5262  -18.4294  -55.3967 H         1 UNK         0.3800 
    243 H243       -3.3474  -19.1344  -56.4640 H         1 UNK         0.3800 
    244 H244       -2.9127  -21.5892  -52.5712 H         1 UNK         0.0800 
    245 H245       -3.0335  -20.0325  -51.7946 H         1 UNK         0.0800 
    246 H246       -3.9541  -22.9431  -49.1497 H         1 UNK         0.0800 
    247 H247       -2.7723  -22.9387  -50.4346 H         1 UNK         0.0800 
@<TRIPOS>BOND
     1    1    2 1    
     2    1  127 1    
     3    1  128 1    
     4    1  129 1    
     5    2    3 2    
     6    2    4 am   BACKBONE|DICT|INTERRES
     7    4    5 1    
     8    4  130 1    
     9    5    6 1    
    10    5   65 1    
    11    5  131 1    
    12    6    7 1    
    13    6  132 1    
    14    6  133 1    
    15    7    8 1    
    16    8    9 1    
    17    8  134 1    
    18    8  135 1    
    19    9   10 ar   
    20    9   14 ar   
    21   10   11 ar   
    22   10  136 1    
    23   11   12 ar   
    24   11  126 1    
    25   12   13 ar   
    26   12  137 1    
    27   13   14 ar   
    28   13   15 1    
    29   14  138 1    
    30   15   16 1    
    31   15  139 1    
    32   15  140 1    
    33   16   17 1    
    34   17   18 1    
    35   17  141 1    
    36   17  142 1    
    37   18   19 1    
    38   18   67 1    
    39   18  143 1    
    40   19   20 am   BACKBONE|DICT|INTERRES
    41   19  144 1    
    42   20   21 2    
    43   20   22 1    
    44   22   23 1    
    45   22   24 1    
    46   22  145 1    
    47   23  146 1    
    48   23  147 1    
    49   23  148 1    
    50   24   25 am   BACKBONE|DICT|INTERRES
    51   24  149 1    
    52   25   26 2    
    53   25   27 1    
    54   27   28 1    
    55   27   29 1    
    56   27  150 1    
    57   28  151 1    
    58   28  152 1    
    59   28  153 1    
    60   29   30 am   BACKBONE|DICT|INTERRES
    61   29  154 1    
    62   30   31 2    
    63   30   32 1    
    64   32   33 1    
    65   32   34 1    
    66   32  155 1    
    67   33  156 1    
    68   33  157 1    
    69   33  158 1    
    70   34   35 am   BACKBONE|DICT|INTERRES
    71   34  159 1    
    72   35   36 2    
    73   35   37 1    
    74   37   38 1    
    75   37   39 1    
    76   37  160 1    
    77   38  161 1    
    78   38  162 1    
    79   38  163 1    
    80   39   40 am   BACKBONE|DICT|INTERRES
    81   39  164 1    
    82   40   41 2    
    83   40   42 1    
    84   42   43 1    
    85   42   44 1    
    86   42  165 1    
    87   43  166 1    
    88   43  167 1    
    89   43  168 1    
    90   44   45 am   BACKBONE|DICT|INTERRES
    91   44  169 1    
    92   45   46 2    
    93   45   47 1    
    94   47   48 1    
    95   47   49 1    
    96   47  170 1    
    97   48  171 1    
    98   48  172 1    
    99   48  173 1    
   100   49   50 am   BACKBONE|DICT|INTERRES
   101   49  174 1    
   102   50   51 2    
   103   50   52 1    
   104   52   53 1    
   105   52   54 1    
   106   52  175 1    
   107   53  176 1    
   108   53  177 1    
   109   53  178 1    
   110   54   55 am   BACKBONE|DICT|INTERRES
   111   54  179 1    
   112   55   56 2    
   113   55   57 1    
   114   57   58 1    
   115   57   59 1    
   116   57  180 1    
   117   58  181 1    
   118   58  182 1    
   119   58  183 1    
   120   59   60 am   BACKBONE|DICT|INTERRES
   121   59  184 1    
   122   60   61 2    
   123   60   62 1    
   124   62   63 1    
   125   62   64 1    
   126   62  185 1    
   127   63  186 1    
   128   63  187 1    
   129   63  188 1    
   130   64   65 am   BACKBONE|DICT|INTERRES
   131   64  189 1    
   132   65   66 2    
   133   67   68 2    
   134   67   69 am   BACKBONE|DICT|INTERRES
   135   69   70 1    
   136   69  190 1    
   137   70   71 1    
   138   70   72 1    
   139   70  191 1    
   140   71  192 1    
   141   71  193 1    
   142   71  194 1    
   143   72   73 2    
   144   72   74 am   BACKBONE|DICT|INTERRES
   145   74   75 1    
   146   74  195 1    
   147   75   76 1    
   148   75   77 1    
   149   75  196 1    
   150   76  197 1    
   151   76  198 1    
   152   76  199 1    
   153   77   78 2    
   154   77   79 am   BACKBONE|DICT|INTERRES
   155   79   80 1    
   156   79  200 1    
   157   80   81 1    
   158   80   82 1    
   159   80  201 1    
   160   81  202 1    
   161   81  203 1    
   162   81  204 1    
   163   82   83 2    
   164   82   84 am   BACKBONE|DICT|INTERRES
   165   84   85 1    
   166   84  205 1    
   167   85   86 1    
   168   85   87 1    
   169   85  206 1    
   170   86  207 1    
   171   86  208 1    
   172   86  209 1    
   173   87   88 2    
   174   87   89 am   BACKBONE|DICT|INTERRES
   175   89   90 1    
   176   89  210 1    
   177   90   91 1    
   178   90   92 1    
   179   90  211 1    
   180   91  212 1    
   181   91  213 1    
   182   91  214 1    
   183   92   93 2    
   184   92   94 am   BACKBONE|DICT|INTERRES
   185   94   95 1    
   186   94  215 1    
   187   95   96 1    
   188   95   97 1    
   189   95  216 1    
   190   96  217 1    
   191   96  218 1    
   192   96  219 1    
   193   97   98 2    
   194   97   99 am   BACKBONE|DICT|INTERRES
   195   99  100 1    
   196   99  220 1    
   197  100  101 1    
   198  100  102 1    
   199  100  221 1    
   200  101  222 1    
   201  101  223 1    
   202  101  224 1    
   203  102  103 2    
   204  102  104 am   BACKBONE|DICT|INTERRES
   205  104  105 1    
   206  104  225 1    
   207  105  106 1    
   208  105  107 1    
   209  105  226 1    
   210  106  227 1    
   211  106  228 1    
   212  106  229 1    
   213  107  108 2    
   214  107  109 am   BACKBONE|DICT|INTERRES
   215  109  110 1    
   216  109  230 1    
   217  110  111 1    
   218  110  112 1    
   219  110  231 1    
   220  111  232 1    
   221  111  233 1    
   222  111  234 1    
   223  112  113 2    
   224  112  114 am   BACKBONE|DICT|INTERRES
   225  114  115 1    
   226  114  235 1    
   227  115  116 1    
   228  115  117 1    
   229  115  236 1    
   230  116  237 1    
   231  116  238 1    
   232  116  239 1    
   233  117  118 2    
   234  117  119 am   BACKBONE|DICT|INTERRES
   235  119  120 1    
   236  119  240 1    
   237  120  121 1    
   238  120  124 1    
   239  120  241 1    
   240  121  122 am   BACKBONE|DICT|INTERRES
   241  121  123 2    
   242  122  242 1    
   243  122  243 1    
   244  124  125 1    
   245  124  244 1    
   246  124  245 1    
   247  125  126 1    
   248  126  246 1    
   249  126  247 1    
@<TRIPOS>SUBSTRUCTURE
     1 UNK         1 GROUP             0       ****    0 ROOT    
