@<TRIPOS>MOLECULE
3R540
247   249    1
SMALL
USER_CHARGES


@<TRIPOS>ATOM
      1 CA         -3.5557  -15.5615  -45.2285 C.3       0 UNK        -0.1800 
      2 C          -3.2399  -14.0832  -45.4111 C.2       0 UNK         0.5000 
      3 O          -3.5299  -13.2860  -44.5199 O.2       0 UNK        -0.5000 
      4 N          -2.6476  -13.7229  -46.5595 N.am      1 UNK        -0.5000 
      5 CA         -2.3335  -12.3504  -46.9977 C.3       1 UNK         0.1400 
      6 C6         -1.6686  -12.3144  -48.4004 C.3       23 UNK        -0.0398 
      7 S7         -2.4794  -13.3892  -49.6353 S.3       23 UNK        -0.2404 
      8 C8         -1.2367  -14.7133  -49.7679 C.3       23 UNK        -0.0205 
      9 C9         -1.7380  -15.8695  -50.6155 C.ar      23 UNK        -0.0193 
     10 C10        -1.4156  -15.9321  -51.9742 C.ar      23 UNK        -0.1150 
     11 C11        -1.8652  -16.9949  -52.7618 C.ar      23 UNK        -0.0193 
     12 C12        -2.6438  -17.9965  -52.1797 C.ar      23 UNK        -0.1150 
     13 C13        -2.9713  -17.9491  -50.8213 C.ar      23 UNK        -0.0193 
     14 C14        -2.5122  -16.8837  -50.0411 C.ar      23 UNK        -0.1150 
     15 C15        -3.8329  -19.0455  -50.2143 C.3       23 UNK        -0.0205 
     16 S16        -2.9072  -20.6006  -50.0440 S.3       23 UNK        -0.2404 
     17 C17        -2.1316  -20.4338  -48.4019 C.3       23 UNK        -0.0398 
     18 CA         -2.5999  -21.5501  -47.4359 C.3       11 UNK         0.1400 
     19 N          -1.7212  -21.6960  -46.2748 N.am      11 UNK        -0.5000 
     20 C          -1.7406  -22.7409  -45.4337 C.2       10 UNK         0.5000 
     21 O          -2.4665  -23.7250  -45.5781 O.2       10 UNK        -0.5000 
     22 CA         -0.8280  -22.6471  -44.1975 C.3       10 UNK         0.1400 
     23 CB          0.5955  -23.1106  -44.5393 C.3       10 UNK        -0.1800 
     24 N          -0.7832  -21.2935  -43.6409 N.am      10 UNK        -0.5000 
     25 C          -1.8323  -20.6850  -43.0643 C.2       9 UNK         0.5000 
     26 O          -2.9242  -21.2248  -42.9022 O.2       9 UNK        -0.5000 
     27 CA         -1.6577  -19.2124  -42.6459 C.3       9 UNK         0.1400 
     28 CB         -1.0991  -19.1412  -41.2167 C.3       9 UNK        -0.1800 
     29 N          -0.7835  -18.4604  -43.5459 N.am      9 UNK        -0.5000 
     30 C          -0.9480  -18.3406  -44.8723 C.2       8 UNK         0.5000 
     31 O          -1.9540  -18.7252  -45.4693 O.2       8 UNK        -0.5000 
     32 CA          0.2281  -17.7565  -45.6800 C.3       8 UNK         0.1400 
     33 CB         -0.1119  -16.3668  -46.2363 C.3       8 UNK        -0.1800 
     34 N           1.4821  -17.6815  -44.9284 N.am      8 UNK        -0.5000 
     35 C           2.1907  -18.7250  -44.4688 C.2       7 UNK         0.5000 
     36 O           1.8432  -19.8972  -44.6241 O.2       7 UNK        -0.5000 
     37 CA          3.4601  -18.3920  -43.6543 C.3       7 UNK         0.1400 
     38 CB          4.5671  -19.4549  -43.8095 C.3       7 UNK        -0.1800 
     39 N           3.9643  -17.0361  -43.9112 N.am      7 UNK        -0.5000 
     40 C           4.4838  -16.5597  -45.0539 C.2       6 UNK         0.5000 
     41 O           4.7145  -17.2521  -46.0454 O.2       6 UNK        -0.5000 
     42 CA          4.7441  -15.0434  -45.1244 C.3       6 UNK         0.1400 
     43 CB          3.8520  -14.3967  -46.1979 C.3       6 UNK        -0.1800 
     44 N           4.4917  -14.3695  -43.8494 N.am      6 UNK        -0.5000 
     45 C           5.4174  -14.1334  -42.9126 C.2       5 UNK         0.5000 
     46 O           6.5957  -14.4785  -43.0074 O.2       5 UNK        -0.5000 
     47 CA          4.9392  -13.3910  -41.6557 C.3       5 UNK         0.1400 
     48 CB          4.7573  -11.8934  -41.9460 C.3       5 UNK        -0.1800 
     49 N           3.6857  -13.9368  -41.1338 N.am      5 UNK        -0.5000 
     50 C           3.6087  -14.9852  -40.3042 C.2       4 UNK         0.5000 
     51 O           4.5842  -15.6524  -39.9588 O.2       4 UNK        -0.5000 
     52 CA          2.2213  -15.3365  -39.7351 C.3       4 UNK         0.1400 
     53 CB          2.0489  -14.7169  -38.3395 C.3       4 UNK        -0.1800 
     54 N           1.1143  -14.8939  -40.5844 N.am      4 UNK        -0.5000 
     55 C           0.6404  -15.6039  -41.6138 C.2       3 UNK         0.5000 
     56 O           1.1179  -16.6742  -41.9930 O.2       3 UNK        -0.5000 
     57 CA         -0.5699  -15.0165  -42.3604 C.3       3 UNK         0.1400 
     58 CB         -1.8299  -15.0409  -41.4809 C.3       3 UNK        -0.1800 
     59 N          -0.4059  -13.6714  -42.9197 N.am      3 UNK        -0.5000 
     60 C           0.6730  -13.1399  -43.5130 C.2       2 UNK         0.5000 
     61 O           1.7932  -13.6508  -43.5245 O.2       2 UNK        -0.5000 
     62 CA          0.3943  -11.8751  -44.3343 C.3       2 UNK         0.1400 
     63 CB          1.6597  -11.2154  -44.9118 C.3       2 UNK        -0.1800 
     64 N          -0.4830  -12.3002  -45.4156 N.am      2 UNK        -0.5000 
     65 C          -1.4479  -11.5799  -45.9938 C.2       1 UNK         0.5000 
     66 O          -1.6630  -10.3905  -45.7577 O.2       1 UNK        -0.5000 
     67 C          -4.0657  -21.3671  -46.9978 C.2       11 UNK         0.5000 
     68 O          -4.9474  -22.0499  -47.5199 O.2       11 UNK        -0.5000 
     69 N          -4.2892  -20.4912  -46.0086 N.am      12 UNK        -0.5000 
     70 CA         -5.6009  -20.2475  -45.4080 C.3       12 UNK         0.1400 
     71 CB         -5.4939  -19.0811  -44.4145 C.3       12 UNK        -0.1800 
     72 C          -6.1983  -21.4975  -44.7298 C.2       12 UNK         0.5000 
     73 O          -7.4023  -21.7309  -44.8431 O.2       12 UNK        -0.5000 
     74 N          -5.3482  -22.2774  -44.0492 N.am      13 UNK        -0.5000 
     75 CA         -5.7291  -23.4969  -43.3443 C.3       13 UNK         0.1400 
     76 CB         -4.6520  -23.8503  -42.3063 C.3       13 UNK        -0.1800 
     77 C          -5.9831  -24.6938  -44.2761 C.2       13 UNK         0.5000 
     78 O          -6.9978  -25.3719  -44.1050 O.2       13 UNK        -0.5000 
     79 N          -5.0501  -24.9736  -45.1988 N.am      14 UNK        -0.5000 
     80 CA         -4.9873  -26.2612  -45.8968 C.3       14 UNK         0.1400 
     81 CB         -4.2031  -27.2654  -45.0266 C.3       14 UNK        -0.1800 
     82 C          -4.4269  -26.1711  -47.3278 C.2       14 UNK         0.5000 
     83 O          -3.9116  -27.1717  -47.8298 O.2       14 UNK        -0.5000 
     84 N          -4.5316  -25.0008  -47.9748 N.am      15 UNK        -0.5000 
     85 CA         -4.1579  -24.6907  -49.3671 C.3       15 UNK         0.1400 
     86 CB         -4.9401  -25.5637  -50.3674 C.3       15 UNK        -0.1800 
     87 C          -2.6474  -24.7222  -49.6784 C.2       15 UNK         0.5000 
     88 O          -2.1827  -23.8900  -50.4583 O.2       15 UNK        -0.5000 
     89 N          -1.9096  -25.6690  -49.0820 N.am      16 UNK        -0.5000 
     90 CA         -0.4471  -25.8249  -49.0735 C.3       16 UNK         0.1400 
     91 CB          0.1800  -24.6921  -48.2348 C.3       16 UNK        -0.1800 
     92 C           0.2139  -25.9410  -50.4672 C.2       16 UNK         0.5000 
     93 O           1.4193  -25.7194  -50.5876 O.2       16 UNK        -0.5000 
     94 N          -0.5932  -26.2406  -51.4971 N.am      17 UNK        -0.5000 
     95 CA         -0.2928  -26.1726  -52.9349 C.3       17 UNK         0.1400 
     96 CB          0.8187  -27.1692  -53.3230 C.3       17 UNK        -0.1800 
     97 C          -0.0041  -24.7423  -53.4542 C.2       17 UNK         0.5000 
     98 O           0.3682  -24.5857  -54.6177 O.2       17 UNK        -0.5000 
     99 N          -0.2041  -23.7240  -52.6068 N.am      18 UNK        -0.5000 
    100 CA        -0.0233  -22.3090  -52.9213 C.3       18 UNK         0.1400 
    101 CB         0.4214  -21.5687  -51.6510 C.3       18 UNK        -0.1800 
    102 C         -1.3096  -21.6906  -53.4891 C.2       18 UNK         0.5000 
    103 O         -1.2277  -20.7719  -54.3040 O.2       18 UNK        -0.5000 
    104 N         -2.4719  -22.2278  -53.0850 N.am      19 UNK        -0.5000 
    105 CA        -3.8074  -21.7879  -53.5024 C.3       19 UNK         0.1400 
    106 CB        -4.8648  -22.6595  -52.8126 C.3       19 UNK        -0.1800 
    107 C         -4.0198  -21.7962  -55.0270 C.2       19 UNK         0.5000 
    108 O         -4.7149  -20.9259  -55.5494 O.2       19 UNK        -0.5000 
    109 N         -3.3749  -22.7501  -55.7126 N.am      20 UNK        -0.5000 
    110 CA        -3.3910  -22.9146  -57.1660 C.3       20 UNK         0.1400 
    111 CB        -2.6511  -24.2130  -57.5224 C.3       20 UNK        -0.1800 
    112 C         -2.7931  -21.7245  -57.9436 C.2       20 UNK         0.5000 
    113 O         -3.1861  -21.5016  -59.0891 O.2       20 UNK        -0.5000 
    114 N         -1.8773  -20.9701  -57.3179 N.am      21 UNK        -0.5000 
    115 CA        -1.2440  -19.7894  -57.9103 C.3       21 UNK         0.1400 
    116 CB         0.0798  -19.5084  -57.1817 C.3       21 UNK        -0.1800 
    117 C         -2.1488  -18.5407  -57.8958 C.2       21 UNK         0.5000 
    118 O         -1.8715  -17.5963  -58.6364 O.2       21 UNK        -0.5000 
    119 N         -3.1994  -18.5536  -57.0656 N.am      22 UNK        -0.5000 
    120 CA        -4.1610  -17.4535  -56.8810 C.3       22 UNK         0.1400 
    121 C         -5.6223  -17.8591  -57.2353 C.2       22 UNK         0.5000 
    122 N         -5.8625  -18.9982  -57.8733 N.am      22 UNK        -0.7600 
    123 O         -6.5592  -17.1149  -56.9581 O.2       22 UNK        -0.5000 
    124 C124       -4.0408  -16.8322  -55.4625 C.3       23 UNK        -0.0398 
    125 S125       -2.4726  -15.9202  -55.2457 S.3       23 UNK        -0.2404 
    126 C126       -1.4910  -17.0700  -54.2338 C.3       23 UNK        -0.0205 
    127 H127       -4.6061  -15.6875  -44.9667 H         1 UNK         0.0600 
    128 H128       -2.9538  -15.9810  -44.4232 H         1 UNK         0.0600 
    129 H129       -3.3651  -16.1366  -46.1347 H         1 UNK         0.0600 
    130 H130       -2.4885  -14.4282  -47.2630 H         1 UNK         0.3000 
    131 H131       -3.2861  -11.8207  -47.0626 H         1 UNK         0.0600 
    132 H132       -1.6835  -11.2944  -48.7885 H         1 UNK         0.0800 
    133 H133       -0.6135  -12.5888  -48.3388 H         1 UNK         0.0800 
    134 H134       -0.3199  -14.3038  -50.1954 H         1 UNK         0.0800 
    135 H135       -0.9729  -15.0762  -48.7755 H         1 UNK         0.0800 
    136 H136       -0.8152  -15.1526  -52.4221 H         1 UNK         0.1150 
    137 H137       -2.9864  -18.8203  -52.7858 H         1 UNK         0.1150 
    138 H138       -2.7624  -16.8393  -48.9906 H         1 UNK         0.1150 
    139 H139       -4.2440  -18.7421  -49.2502 H         1 UNK         0.0800 
    140 H140       -4.6896  -19.2227  -50.8659 H         1 UNK         0.0800 
    141 H141       -1.0534  -20.5029  -48.5514 H         1 UNK         0.0800 
    142 H142       -2.3150  -19.4405  -47.9905 H         1 UNK         0.0800 
    143 H143       -2.5409  -22.4948  -47.9757 H         1 UNK         0.0600 
    144 H144       -1.1419  -20.9028  -46.0433 H         1 UNK         0.3000 
    145 H145       -1.2299  -23.3154  -43.4331 H         1 UNK         0.0600 
    146 H146        1.2438  -23.0728  -43.6638 H         1 UNK         0.0600 
    147 H147        0.5943  -24.1404  -44.8984 H         1 UNK         0.0600 
    148 H148        1.0466  -22.4921  -45.3163 H         1 UNK         0.0600 
    149 H149        0.0810  -20.7785  -43.7678 H         1 UNK         0.3000 
    150 H150       -2.6402  -18.7375  -42.6612 H         1 UNK         0.0600 
    151 H151       -1.7332  -19.6926  -40.5212 H         1 UNK         0.0600 
    152 H152       -1.0450  -18.1155  -40.8573 H         1 UNK         0.0600 
    153 H153       -0.0965  -19.5666  -41.1559 H         1 UNK         0.0600 
    154 H154        0.0650  -18.0875  -43.1354 H         1 UNK         0.3000 
    155 H155        0.3905  -18.4270  -46.5263 H         1 UNK         0.0600 
    156 H156        0.6745  -16.0072  -46.9003 H         1 UNK         0.0600 
    157 H157       -1.0337  -16.4018  -46.8164 H         1 UNK         0.0600 
    158 H158       -0.2437  -15.6301  -45.4456 H         1 UNK         0.0600 
    159 H159        1.8246  -16.7579  -44.7097 H         1 UNK         0.3000 
    160 H160        3.1514  -18.4001  -42.6082 H         1 UNK         0.0600 
    161 H161        4.8622  -19.5892  -44.8503 H         1 UNK         0.0600 
    162 H162        4.2288  -20.4246  -43.4427 H         1 UNK         0.0600 
    163 H163        5.4558  -19.1854  -43.2389 H         1 UNK         0.0600 
    164 H164        3.8139  -16.3709  -43.1657 H         1 UNK         0.3000 
    165 H165        5.7860  -14.9033  -45.4197 H         1 UNK         0.0600 
    166 H166        4.0237  -14.8460  -47.1768 H         1 UNK         0.0600 
    167 H167        4.0632  -13.3316  -46.2919 H         1 UNK         0.0600 
    168 H168        2.7925  -14.5106  -45.9660 H         1 UNK         0.0600 
    169 H169        3.5346  -14.0586  -43.6870 H         1 UNK         0.3000 
    170 H170        5.7163  -13.4880  -40.8940 H         1 UNK         0.0600 
    171 H171        5.6801  -11.4542  -42.3272 H         1 UNK         0.0600 
    172 H172        3.9795  -11.7193  -42.6887 H         1 UNK         0.0600 
    173 H173        4.4863  -11.3472  -41.0424 H         1 UNK         0.0600 
    174 H174        2.8304  -13.4926  -41.4366 H         1 UNK         0.3000 
    175 H175        2.1771  -16.4226  -39.6261 H         1 UNK         0.0600 
    176 H176        2.0793  -13.6272  -38.3754 H         1 UNK         0.0600 
    177 H177        1.0998  -15.0123  -37.8918 H         1 UNK         0.0600 
    178 H178        2.8407  -15.0454  -37.6648 H         1 UNK         0.0600 
    179 H179        0.6727  -14.0174  -40.3479 H         1 UNK         0.3000 
    180 H180       -0.7596  -15.6747  -43.2066 H         1 UNK         0.0600 
    181 H181       -1.7553  -14.3393  -40.6494 H         1 UNK         0.0600 
    182 H182       -2.0047  -16.0307  -41.0603 H         1 UNK         0.0600 
    183 H183       -2.7173  -14.7787  -42.0575 H         1 UNK         0.0600 
    184 H184       -1.2663  -13.1469  -43.0029 H         1 UNK         0.3000 
    185 H185       -0.1200  -11.1592  -43.6897 H         1 UNK         0.0600 
    186 H186        2.2152  -11.8983  -45.5543 H         1 UNK         0.0600 
    187 H187        2.3270  -10.8891  -44.1149 H         1 UNK         0.0600 
    188 H188        1.4081  -10.3346  -45.5026 H         1 UNK         0.0600 
    189 H189       -0.4118  -13.2762  -45.6639 H         1 UNK         0.3000 
    190 H190       -3.5086  -19.9506  -45.6489 H         1 UNK         0.3000 
    191 H191       -6.2796  -19.9494  -46.2098 H         1 UNK         0.0600 
    192 H192       -5.1051  -18.1855  -44.8986 H         1 UNK         0.0600 
    193 H193       -6.4715  -18.8309  -44.0008 H         1 UNK         0.0600 
    194 H194       -4.8370  -19.3226  -43.5791 H         1 UNK         0.0600 
    195 H195       -4.3872  -21.9700  -43.9339 H         1 UNK         0.3000 
    196 H196       -6.6557  -23.2994  -42.8008 H         1 UNK         0.0600 
    197 H197       -4.9115  -24.7616  -41.7661 H         1 UNK         0.0600 
    198 H198       -4.5421  -23.0561  -41.5677 H         1 UNK         0.0600 
    199 H199       -3.6792  -24.0102  -42.7728 H         1 UNK         0.0600 
    200 H200       -4.2268  -24.3812  -45.2859 H         1 UNK         0.3000 
    201 H201       -5.9989  -26.6512  -46.0256 H         1 UNK         0.0600 
    202 H202       -4.6544  -27.3747  -44.0404 H         1 UNK         0.0600 
    203 H203       -3.1696  -26.9457  -44.8878 H         1 UNK         0.0600 
    204 H204       -4.1852  -28.2579  -45.4783 H         1 UNK         0.0600 
    205 H205       -4.9257  -24.2155  -47.4689 H         1 UNK         0.3000 
    206 H206       -4.4729  -23.6600  -49.5317 H         1 UNK         0.0600 
    207 H207       -6.0153  -25.4393  -50.2399 H         1 UNK         0.0600 
    208 H208       -4.7014  -25.2909  -51.3947 H         1 UNK         0.0600 
    209 H209       -4.7097  -26.6235  -50.2599 H         1 UNK         0.0600 
    210 H210       -2.4270  -26.3414  -48.5196 H         1 UNK         0.3000 
    211 H211       -0.2440  -26.7682  -48.5650 H         1 UNK         0.0600 
    212 H212        0.0363  -23.7165  -48.7009 H         1 UNK         0.0600 
    213 H213        1.2525  -24.8397  -48.1031 H         1 UNK         0.0600 
    214 H214       -0.2620  -24.6558  -47.2400 H         1 UNK         0.0600 
    215 H215       -1.5644  -26.4013  -51.2705 H         1 UNK         0.3000 
    216 H216       -1.2052  -26.4904  -53.4414 H         1 UNK         0.0600 
    217 H217        0.5992  -28.1700  -52.9512 H         1 UNK         0.0600 
    218 H218        1.7905  -26.8697  -52.9304 H         1 UNK         0.0600 
    219 H219        0.9167  -27.2416  -54.4067 H         1 UNK         0.0600 
    220 H220       -0.5855  -23.9297  -51.6898 H         1 UNK         0.3000 
    221 H221        0.7606  -22.1959  -53.6731 H         1 UNK         0.0600 
    222 H222       -0.2820  -21.7177  -50.8318 H         1 UNK         0.0600 
    223 H223        1.3977  -21.9188  -51.3159 H         1 UNK         0.0600 
    224 H224        0.5008  -20.4950  -51.8274 H         1 UNK         0.0600 
    225 H225       -2.4358  -22.9352  -52.3607 H         1 UNK         0.3000 
    226 H226       -3.9426  -20.7635  -53.1576 H         1 UNK         0.0600 
    227 H227       -4.7677  -22.6124  -51.7283 H         1 UNK         0.0600 
    228 H228       -5.8717  -22.3228  -53.0621 H         1 UNK         0.0600 
    229 H229       -4.7823  -23.7026  -53.1184 H         1 UNK         0.0600 
    230 H230       -2.8065  -23.4015  -55.1919 H         1 UNK         0.3000 
    231 H231       -4.4329  -23.0161  -57.4764 H         1 UNK         0.0600 
    232 H232       -2.6574  -24.3846  -58.5997 H         1 UNK         0.0600 
    233 H233       -3.1225  -25.0777  -57.0548 H         1 UNK         0.0600 
    234 H234       -1.6092  -24.1830  -57.2002 H         1 UNK         0.0600 
    235 H235       -1.6346  -21.1769  -56.3553 H         1 UNK         0.3000 
    236 H236       -1.0089  -20.0089  -58.9540 H         1 UNK         0.0600 
    237 H237        0.7376  -20.3772  -57.2069 H         1 UNK         0.0600 
    238 H238        0.6147  -18.6820  -57.6512 H         1 UNK         0.0600 
    239 H239       -0.0812  -19.2395  -56.1381 H         1 UNK         0.0600 
    240 H240       -3.3826  -19.3868  -56.5206 H         1 UNK         0.3000 
    241 H241       -3.9406  -16.6602  -57.5971 H         1 UNK         0.0600 
    242 H242       -6.8118  -19.2473  -58.1018 H         1 UNK         0.3800 
    243 H243       -5.1083  -19.6217  -58.1138 H         1 UNK         0.3800 
    244 H244       -4.1472  -17.5999  -54.6952 H         1 UNK         0.0800 
    245 H245       -4.8421  -16.1140  -55.2823 H         1 UNK         0.0800 
    246 H246       -0.4342  -16.8252  -54.3480 H         1 UNK         0.0800 
    247 H247       -1.6091  -18.0857  -54.6130 H         1 UNK         0.0800 
@<TRIPOS>BOND
     1    1    2 1    
     2    1  127 1    
     3    1  128 1    
     4    1  129 1    
     5    2    3 2    
     6    2    4 am   BACKBONE|DICT|INTERRES
     7    4    5 1    
     8    4  130 1    
     9    5    6 1    
    10    5   65 1    
    11    5  131 1    
    12    6    7 1    
    13    6  132 1    
    14    6  133 1    
    15    7    8 1    
    16    8    9 1    
    17    8  134 1    
    18    8  135 1    
    19    9   10 ar   
    20    9   14 ar   
    21   10   11 ar   
    22   10  136 1    
    23   11   12 ar   
    24   11  126 1    
    25   12   13 ar   
    26   12  137 1    
    27   13   14 ar   
    28   13   15 1    
    29   14  138 1    
    30   15   16 1    
    31   15  139 1    
    32   15  140 1    
    33   16   17 1    
    34   17   18 1    
    35   17  141 1    
    36   17  142 1    
    37   18   19 1    
    38   18   67 1    
    39   18  143 1    
    40   19   20 am   BACKBONE|DICT|INTERRES
    41   19  144 1    
    42   20   21 2    
    43   20   22 1    
    44   22   23 1    
    45   22   24 1    
    46   22  145 1    
    47   23  146 1    
    48   23  147 1    
    49   23  148 1    
    50   24   25 am   BACKBONE|DICT|INTERRES
    51   24  149 1    
    52   25   26 2    
    53   25   27 1    
    54   27   28 1    
    55   27   29 1    
    56   27  150 1    
    57   28  151 1    
    58   28  152 1    
    59   28  153 1    
    60   29   30 am   BACKBONE|DICT|INTERRES
    61   29  154 1    
    62   30   31 2    
    63   30   32 1    
    64   32   33 1    
    65   32   34 1    
    66   32  155 1    
    67   33  156 1    
    68   33  157 1    
    69   33  158 1    
    70   34   35 am   BACKBONE|DICT|INTERRES
    71   34  159 1    
    72   35   36 2    
    73   35   37 1    
    74   37   38 1    
    75   37   39 1    
    76   37  160 1    
    77   38  161 1    
    78   38  162 1    
    79   38  163 1    
    80   39   40 am   BACKBONE|DICT|INTERRES
    81   39  164 1    
    82   40   41 2    
    83   40   42 1    
    84   42   43 1    
    85   42   44 1    
    86   42  165 1    
    87   43  166 1    
    88   43  167 1    
    89   43  168 1    
    90   44   45 am   BACKBONE|DICT|INTERRES
    91   44  169 1    
    92   45   46 2    
    93   45   47 1    
    94   47   48 1    
    95   47   49 1    
    96   47  170 1    
    97   48  171 1    
    98   48  172 1    
    99   48  173 1    
   100   49   50 am   BACKBONE|DICT|INTERRES
   101   49  174 1    
   102   50   51 2    
   103   50   52 1    
   104   52   53 1    
   105   52   54 1    
   106   52  175 1    
   107   53  176 1    
   108   53  177 1    
   109   53  178 1    
   110   54   55 am   BACKBONE|DICT|INTERRES
   111   54  179 1    
   112   55   56 2    
   113   55   57 1    
   114   57   58 1    
   115   57   59 1    
   116   57  180 1    
   117   58  181 1    
   118   58  182 1    
   119   58  183 1    
   120   59   60 am   BACKBONE|DICT|INTERRES
   121   59  184 1    
   122   60   61 2    
   123   60   62 1    
   124   62   63 1    
   125   62   64 1    
   126   62  185 1    
   127   63  186 1    
   128   63  187 1    
   129   63  188 1    
   130   64   65 am   BACKBONE|DICT|INTERRES
   131   64  189 1    
   132   65   66 2    
   133   67   68 2    
   134   67   69 am   BACKBONE|DICT|INTERRES
   135   69   70 1    
   136   69  190 1    
   137   70   71 1    
   138   70   72 1    
   139   70  191 1    
   140   71  192 1    
   141   71  193 1    
   142   71  194 1    
   143   72   73 2    
   144   72   74 am   BACKBONE|DICT|INTERRES
   145   74   75 1    
   146   74  195 1    
   147   75   76 1    
   148   75   77 1    
   149   75  196 1    
   150   76  197 1    
   151   76  198 1    
   152   76  199 1    
   153   77   78 2    
   154   77   79 am   BACKBONE|DICT|INTERRES
   155   79   80 1    
   156   79  200 1    
   157   80   81 1    
   158   80   82 1    
   159   80  201 1    
   160   81  202 1    
   161   81  203 1    
   162   81  204 1    
   163   82   83 2    
   164   82   84 am   BACKBONE|DICT|INTERRES
   165   84   85 1    
   166   84  205 1    
   167   85   86 1    
   168   85   87 1    
   169   85  206 1    
   170   86  207 1    
   171   86  208 1    
   172   86  209 1    
   173   87   88 2    
   174   87   89 am   BACKBONE|DICT|INTERRES
   175   89   90 1    
   176   89  210 1    
   177   90   91 1    
   178   90   92 1    
   179   90  211 1    
   180   91  212 1    
   181   91  213 1    
   182   91  214 1    
   183   92   93 2    
   184   92   94 am   BACKBONE|DICT|INTERRES
   185   94   95 1    
   186   94  215 1    
   187   95   96 1    
   188   95   97 1    
   189   95  216 1    
   190   96  217 1    
   191   96  218 1    
   192   96  219 1    
   193   97   98 2    
   194   97   99 am   BACKBONE|DICT|INTERRES
   195   99  100 1    
   196   99  220 1    
   197  100  101 1    
   198  100  102 1    
   199  100  221 1    
   200  101  222 1    
   201  101  223 1    
   202  101  224 1    
   203  102  103 2    
   204  102  104 am   BACKBONE|DICT|INTERRES
   205  104  105 1    
   206  104  225 1    
   207  105  106 1    
   208  105  107 1    
   209  105  226 1    
   210  106  227 1    
   211  106  228 1    
   212  106  229 1    
   213  107  108 2    
   214  107  109 am   BACKBONE|DICT|INTERRES
   215  109  110 1    
   216  109  230 1    
   217  110  111 1    
   218  110  112 1    
   219  110  231 1    
   220  111  232 1    
   221  111  233 1    
   222  111  234 1    
   223  112  113 2    
   224  112  114 am   BACKBONE|DICT|INTERRES
   225  114  115 1    
   226  114  235 1    
   227  115  116 1    
   228  115  117 1    
   229  115  236 1    
   230  116  237 1    
   231  116  238 1    
   232  116  239 1    
   233  117  118 2    
   234  117  119 am   BACKBONE|DICT|INTERRES
   235  119  120 1    
   236  119  240 1    
   237  120  121 1    
   238  120  124 1    
   239  120  241 1    
   240  121  122 am   BACKBONE|DICT|INTERRES
   241  121  123 2    
   242  122  242 1    
   243  122  243 1    
   244  124  125 1    
   245  124  244 1    
   246  124  245 1    
   247  125  126 1    
   248  126  246 1    
   249  126  247 1    
@<TRIPOS>SUBSTRUCTURE
     1 UNK         1 GROUP             0       ****    0 ROOT    
