@<TRIPOS>MOLECULE
3R540
247   249    1
SMALL
USER_CHARGES


@<TRIPOS>ATOM
      1 CA         -2.0670  -13.2395  -50.4511 C.3       0 UNK        -0.1800 
      2 C          -1.1981  -13.3581  -49.2075 C.2       0 UNK         0.5000 
      3 O          -1.3944  -14.2765  -48.4133 O.2       0 UNK        -0.5000 
      4 N          -0.2409  -12.4331  -49.0478 N.am      1 UNK        -0.5000 
      5 CA          0.7437  -12.3717  -47.9568 C.3       1 UNK         0.1400 
      6 C6          1.7594  -13.5446  -47.9678 C.3       23 UNK        -0.0398 
      7 S7          2.7189  -13.6200  -49.5165 S.3       23 UNK        -0.2404 
      8 C8          3.4672  -15.2815  -49.3808 C.3       23 UNK        -0.0205 
      9 C9          2.5156  -16.4709  -49.5370 C.ar      23 UNK        -0.0193 
     10 C10         1.2029  -16.3442  -50.0091 C.ar      23 UNK        -0.1150 
     11 C11         0.3776  -17.4635  -50.1474 C.ar      23 UNK        -0.0193 
     12 C12         0.8673  -18.7270  -49.8068 C.ar      23 UNK        -0.1150 
     13 C13         2.1793  -18.8748  -49.3466 C.ar      23 UNK        -0.0193 
     14 C14         2.9936  -17.7451  -49.2186 C.ar      23 UNK        -0.1150 
     15 C15         2.7287  -20.2534  -49.0103 C.3       23 UNK        -0.0205 
     16 S16         3.1822  -20.3781  -47.2537 S.3       23 UNK        -0.2404 
     17 C17         3.6139  -22.1396  -47.1009 C.3       23 UNK        -0.0398 
     18 CA          2.5075  -23.0297  -46.4823 C.3       11 UNK         0.1400 
     19 N           2.0266  -22.5576  -45.1774 N.am      11 UNK        -0.5000 
     20 C           1.5261  -23.3741  -44.2376 C.2       10 UNK         0.5000 
     21 O           1.4544  -24.5968  -44.3655 O.2       10 UNK        -0.5000 
     22 CA          1.0008  -22.7304  -42.9411 C.3       10 UNK         0.1400 
     23 CB          2.1601  -22.3909  -41.9921 C.3       10 UNK        -0.1800 
     24 N           0.1829  -21.5399  -43.1693 N.am      10 UNK        -0.5000 
     25 C          -0.9808  -21.5263  -43.8349 C.2       9 UNK         0.5000 
     26 O          -1.4964  -22.5288  -44.3279 O.2       9 UNK        -0.5000 
     27 CA         -1.6674  -20.1580  -44.0134 C.3       9 UNK         0.1400 
     28 CB         -2.5417  -19.8217  -42.7971 C.3       9 UNK        -0.1800 
     29 N          -0.7150  -19.0729  -44.2511 N.am      9 UNK        -0.5000 
     30 C           0.1067  -19.0077  -45.3086 C.2       8 UNK         0.5000 
     31 O           0.1052  -19.8359  -46.2177 O.2       8 UNK        -0.5000 
     32 CA          1.1314  -17.8603  -45.3157 C.3       8 UNK         0.1400 
     33 CB          0.5062  -16.5638  -45.8497 C.3       8 UNK        -0.1800 
     34 N           1.6913  -17.6412  -43.9795 N.am      8 UNK        -0.5000 
     35 C           2.5840  -18.4596  -43.4004 C.2       7 UNK         0.5000 
     36 O           3.0880  -19.4289  -43.9658 O.2       7 UNK        -0.5000 
     37 CA          2.9441  -18.1876  -41.9271 C.3       7 UNK         0.1400 
     38 CB          4.1693  -17.2710  -41.8085 C.3       7 UNK        -0.1800 
     39 N           1.8284  -17.6212  -41.1691 N.am      7 UNK        -0.5000 
     40 C           0.7478  -18.3275  -40.8068 C.2       6 UNK         0.5000 
     41 O           0.6113  -19.5267  -41.0447 O.2       6 UNK        -0.5000 
     42 CA         -0.3923  -17.5661  -40.1044 C.3       6 UNK         0.1400 
     43 CB         -0.1973  -17.5916  -38.5815 C.3       6 UNK        -0.1800 
     44 N          -0.5315  -16.1789  -40.5484 N.am      6 UNK        -0.5000 
     45 C          -0.7743  -15.7869  -41.8064 C.2       5 UNK         0.5000 
     46 O          -0.9262  -16.5707  -42.7435 O.2       5 UNK        -0.5000 
     47 CA         -0.8195  -14.2701  -42.0741 C.3       5 UNK         0.1400 
     48 CB         -1.1442  -13.4363  -40.8146 C.3       5 UNK        -0.1800 
     49 N           0.4084  -13.7719  -42.7020 N.am      5 UNK        -0.5000 
     50 C           1.6696  -13.8931  -42.2564 C.2       4 UNK         0.5000 
     51 O           1.9996  -14.5780  -41.2872 O.2       4 UNK        -0.5000 
     52 CA          2.7418  -13.0766  -43.0011 C.3       4 UNK         0.1400 
     53 CB          3.3263  -13.8686  -44.1806 C.3       4 UNK        -0.1800 
     54 N           2.1983  -11.8084  -43.4916 N.am      4 UNK        -0.5000 
     55 C           2.0938  -10.6914  -42.7564 C.2       3 UNK         0.5000 
     56 O           2.5159  -10.5920  -41.6037 O.2       3 UNK        -0.5000 
     57 CA          1.4048   -9.4767  -43.4124 C.3       3 UNK         0.1400 
     58 CB          2.4472   -8.5606  -44.0715 C.3       3 UNK        -0.1800 
     59 N           0.4051   -9.8558  -44.4123 N.am      3 UNK        -0.5000 
     60 C          -0.7940  -10.3843  -44.1295 C.2       2 UNK         0.5000 
     61 O          -1.2255  -10.5197  -42.9854 O.2       2 UNK        -0.5000 
     62 CA         -1.6466  -10.8712  -45.3202 C.3       2 UNK         0.1400 
     63 CB         -2.6974   -9.8161  -45.6969 C.3       2 UNK        -0.1800 
     64 N          -0.8738  -11.2228  -46.5173 N.am      2 UNK        -0.5000 
     65 C           0.0683  -12.1751  -46.5806 C.2       1 UNK         0.5000 
     66 O           0.4124  -12.8477  -45.6064 O.2       1 UNK        -0.5000 
     67 C           1.3541  -23.3138  -47.4671 C.2       11 UNK         0.5000 
     68 O           1.4980  -24.2067  -48.3037 O.2       11 UNK        -0.5000 
     69 N           0.2296  -22.5888  -47.3480 N.am      12 UNK        -0.5000 
     70 CA         -1.0037  -22.8639  -48.0920 C.3       12 UNK         0.1400 
     71 CB         -2.0124  -21.7258  -47.8797 C.3       12 UNK        -0.1800 
     72 C          -1.6270  -24.2161  -47.6981 C.2       12 UNK         0.5000 
     73 O          -2.0839  -24.9520  -48.5739 O.2       12 UNK        -0.5000 
     74 N          -1.5985  -24.5231  -46.3920 N.am      13 UNK        -0.5000 
     75 CA         -2.0365  -25.7621  -45.7500 C.3       13 UNK         0.1400 
     76 CB         -1.0821  -26.9210  -46.1151 C.3       13 UNK        -0.1800 
     77 C          -3.5221  -26.0536  -46.0365 C.2       13 UNK         0.5000 
     78 O          -4.3878  -25.3896  -45.4645 O.2       13 UNK        -0.5000 
     79 N          -3.7920  -27.0195  -46.9241 N.am      14 UNK        -0.5000 
     80 CA         -5.1307  -27.3714  -47.3983 C.3       14 UNK         0.1400 
     81 CB         -5.0585  -28.7225  -48.1267 C.3       14 UNK        -0.1800 
     82 C          -5.7614  -26.3014  -48.3130 C.2       14 UNK         0.5000 
     83 O          -6.9866  -26.2781  -48.4390 O.2       14 UNK        -0.5000 
     84 N          -4.9259  -25.4458  -48.9258 N.am      15 UNK        -0.5000 
     85 CA         -5.2788  -24.3830  -49.8692 C.3       15 UNK         0.1400 
     86 CB         -6.0168  -23.2399  -49.1362 C.3       15 UNK        -0.1800 
     87 C          -6.0182  -24.9524  -51.0997 C.2       15 UNK         0.5000 
     88 O          -5.4702  -25.8357  -51.7626 O.2       15 UNK        -0.5000 
     89 N          -7.2328  -24.4539  -51.3738 N.am      16 UNK        -0.5000 
     90 CA         -8.1813  -24.8456  -52.4263 C.3       16 UNK         0.1400 
     91 CB         -8.6106  -26.3184  -52.2788 C.3       16 UNK        -0.1800 
     92 C          -7.7102  -24.5365  -53.8603 C.2       16 UNK         0.5000 
     93 O          -8.4245  -23.8555  -54.5974 O.2       16 UNK        -0.5000 
     94 N          -6.5216  -25.0250  -54.2293 N.am      17 UNK        -0.5000 
     95 CA         -5.8389  -24.7125  -55.4809 C.3       17 UNK         0.1400 
     96 CB         -4.7022  -25.7225  -55.6978 C.3       17 UNK        -0.1800 
     97 C          -5.2790  -23.2843  -55.4246 C.2       17 UNK         0.5000 
     98 O          -4.6838  -22.9133  -54.4108 O.2       17 UNK        -0.5000 
     99 N          -5.4430  -22.5201  -56.5117 N.am      18 UNK        -0.5000 
    100 CA        -5.0569  -21.1070  -56.6128 C.3       18 UNK         0.1400 
    101 CB        -5.4852  -20.5634  -57.9838 C.3       18 UNK        -0.1800 
    102 C         -3.5597  -20.8350  -56.3703 C.2       18 UNK         0.5000 
    103 O         -3.2144  -19.7706  -55.8603 O.2       18 UNK        -0.5000 
    104 N         -2.7044  -21.8127  -56.6976 N.am      19 UNK        -0.5000 
    105 CA        -1.2620  -21.7747  -56.4505 C.3       19 UNK         0.1400 
    106 CB        -0.5986  -22.9341  -57.2099 C.3       19 UNK        -0.1800 
    107 C         -0.8884  -21.8289  -54.9543 C.2       19 UNK         0.5000 
    108 O          0.1795  -21.3384  -54.5868 O.2       19 UNK        -0.5000 
    109 N         -1.7594  -22.4235  -54.1280 N.am      20 UNK        -0.5000 
    110 CA        -1.5901  -22.5366  -52.6808 C.3       20 UNK         0.1400 
    111 CB        -1.9905  -23.9535  -52.2389 C.3       20 UNK        -0.1800 
    112 C         -2.4316  -21.4848  -51.9426 C.2       20 UNK         0.5000 
    113 O         -1.9399  -20.8686  -50.9997 O.2       20 UNK        -0.5000 
    114 N         -3.6862  -21.3081  -52.3765 N.am      21 UNK        -0.5000 
    115 CA        -4.6675  -20.4134  -51.7658 C.3       21 UNK         0.1400 
    116 CB        -6.0637  -20.7924  -52.2864 C.3       21 UNK        -0.1800 
    117 C         -4.3982  -18.9204  -52.0270 C.2       21 UNK         0.5000 
    118 O         -4.8033  -18.0919  -51.2104 O.2       21 UNK        -0.5000 
    119 N         -3.7478  -18.6086  -53.1564 N.am      22 UNK        -0.5000 
    120 CA        -3.5379  -17.2565  -53.7012 C.3       22 UNK         0.1400 
    121 C         -4.8562  -16.5735  -54.1858 C.2       22 UNK         0.5000 
    122 N         -4.7966  -15.3309  -54.6483 N.am      22 UNK        -0.7600 
    123 O         -5.9359  -17.1620  -54.1937 O.2       22 UNK        -0.5000 
    124 C124       -2.6821  -16.3444  -52.7757 C.3       23 UNK        -0.0398 
    125 S125       -1.0103  -17.0120  -52.4793 S.3       23 UNK        -0.2404 
    126 C126       -1.0353  -17.2928  -50.6816 C.3       23 UNK        -0.0205 
    127 H127       -1.7746  -13.9950  -51.1795 H         1 UNK         0.0600 
    128 H128       -1.9721  -12.2592  -50.9187 H         1 UNK         0.0600 
    129 H129       -3.1159  -13.3941  -50.1973 H         1 UNK         0.0600 
    130 H130       -0.1415  -11.7145  -49.7511 H         1 UNK         0.3000 
    131 H131        1.3144  -11.4570  -48.1242 H         1 UNK         0.0600 
    132 H132        2.4744  -13.4434  -47.1506 H         1 UNK         0.0800 
    133 H133        1.2446  -14.4926  -47.8159 H         1 UNK         0.0800 
    134 H134        3.9777  -15.3517  -48.4189 H         1 UNK         0.0800 
    135 H135        4.2405  -15.3652  -50.1455 H         1 UNK         0.0800 
    136 H136        0.8091  -15.3782  -50.2869 H         1 UNK         0.1150 
    137 H137        0.2307  -19.5947  -49.9131 H         1 UNK         0.1150 
    138 H138        4.0088  -17.8626  -48.8656 H         1 UNK         0.1150 
    139 H139        1.9947  -21.0233  -49.2511 H         1 UNK         0.0800 
    140 H140        3.6060  -20.4519  -49.6273 H         1 UNK         0.0800 
    141 H141        4.5011  -22.1941  -46.4689 H         1 UNK         0.0800 
    142 H142        3.9281  -22.5285  -48.0712 H         1 UNK         0.0800 
    143 H143        2.9840  -23.9987  -46.3153 H         1 UNK         0.0600 
    144 H144        2.0597  -21.5592  -45.0141 H         1 UNK         0.3000 
    145 H145        0.3678  -23.4681  -42.4436 H         1 UNK         0.0600 
    146 H146        1.7914  -22.0296  -41.0321 H         1 UNK         0.0600 
    147 H147        2.7723  -23.2714  -41.7930 H         1 UNK         0.0600 
    148 H148        2.8136  -21.6254  -42.4100 H         1 UNK         0.0600 
    149 H149        0.4976  -20.6822  -42.7292 H         1 UNK         0.3000 
    150 H150       -2.3173  -20.2208  -44.8880 H         1 UNK         0.0600 
    151 H151       -3.3254  -20.5687  -42.6654 H         1 UNK         0.0600 
    152 H152       -3.0293  -18.8536  -42.9140 H         1 UNK         0.0600 
    153 H153       -1.9592  -19.7963  -41.8770 H         1 UNK         0.0600 
    154 H154       -0.6952  -18.3159  -43.5743 H         1 UNK         0.3000 
    155 H155        1.9442  -18.1306  -45.9905 H         1 UNK         0.0600 
    156 H156        1.2344  -15.7562  -45.8586 H         1 UNK         0.0600 
    157 H157       -0.3467  -16.2374  -45.2555 H         1 UNK         0.0600 
    158 H158        0.1574  -16.6968  -46.8750 H         1 UNK         0.0600 
    159 H159        1.2634  -16.9138  -43.4243 H         1 UNK         0.3000 
    160 H160        3.2086  -19.1475  -41.4778 H         1 UNK         0.0600 
    161 H161        3.9565  -16.2651  -42.1638 H         1 UNK         0.0600 
    162 H162        5.0071  -17.6576  -42.3903 H         1 UNK         0.0600 
    163 H163        4.5008  -17.1931  -40.7730 H         1 UNK         0.0600 
    164 H164        1.8589  -16.6253  -40.9746 H         1 UNK         0.3000 
    165 H165       -1.3261  -18.0804  -40.3368 H         1 UNK         0.0600 
    166 H166       -1.0420  -17.1328  -38.0673 H         1 UNK         0.0600 
    167 H167       -0.1133  -18.6159  -38.2158 H         1 UNK         0.0600 
    168 H168        0.7076  -17.0607  -38.2830 H         1 UNK         0.0600 
    169 H169       -0.3787  -15.4653  -39.8508 H         1 UNK         0.3000 
    170 H170       -1.6235  -14.1093  -42.7938 H         1 UNK         0.0600 
    171 H171       -2.0586  -13.7870  -40.3341 H         1 UNK         0.0600 
    172 H172       -0.3431  -13.4701  -40.0756 H         1 UNK         0.0600 
    173 H173       -1.3020  -12.3897  -41.0723 H         1 UNK         0.0600 
    174 H174        0.2751  -13.2651  -43.5699 H         1 UNK         0.3000 
    175 H175        3.5544  -12.8713  -42.3009 H         1 UNK         0.0600 
    176 H176        2.5533  -14.1789  -44.8800 H         1 UNK         0.0600 
    177 H177        4.0572  -13.2757  -44.7306 H         1 UNK         0.0600 
    178 H178        3.8344  -14.7692  -43.8404 H         1 UNK         0.0600 
    179 H179        1.7673  -11.8338  -44.4069 H         1 UNK         0.3000 
    180 H180        0.9060   -8.9117  -42.6219 H         1 UNK         0.0600 
    181 H181        3.1953   -8.2362  -43.3469 H         1 UNK         0.0600 
    182 H182        1.9820   -7.6632  -44.4798 H         1 UNK         0.0600 
    183 H183        2.9733   -9.0661  -44.8823 H         1 UNK         0.0600 
    184 H184        0.6687   -9.7571  -45.3812 H         1 UNK         0.3000 
    185 H185       -2.1695  -11.7723  -44.9929 H         1 UNK         0.0600 
    186 H186       -3.3694  -10.1865  -46.4713 H         1 UNK         0.0600 
    187 H187       -3.3123   -9.5511  -44.8356 H         1 UNK         0.0600 
    188 H188       -2.2334   -8.8995  -46.0633 H         1 UNK         0.0600 
    189 H189       -1.1047  -10.7222  -47.3633 H         1 UNK         0.3000 
    190 H190        0.2084  -21.8061  -46.7017 H         1 UNK         0.3000 
    191 H191       -0.7551  -22.9023  -49.1545 H         1 UNK         0.0600 
    192 H192       -2.3081  -21.6361  -46.8352 H         1 UNK         0.0600 
    193 H193       -2.9174  -21.8951  -48.4645 H         1 UNK         0.0600 
    194 H194       -1.5980  -20.7683  -48.1960 H         1 UNK         0.0600 
    195 H195       -1.2963  -23.7993  -45.7453 H         1 UNK         0.3000 
    196 H196       -1.9560  -25.5961  -44.6747 H         1 UNK         0.0600 
    197 H197       -1.3837  -27.8481  -45.6259 H         1 UNK         0.0600 
    198 H198       -0.0667  -26.7003  -45.7849 H         1 UNK         0.0600 
    199 H199       -1.0413  -27.1065  -47.1888 H         1 UNK         0.0600 
    200 H200       -3.0167  -27.4938  -47.3640 H         1 UNK         0.3000 
    201 H201       -5.7820  -27.4858  -46.5292 H         1 UNK         0.0600 
    202 H202       -4.6788  -29.5059  -47.4705 H         1 UNK         0.0600 
    203 H203       -4.4104  -28.6725  -49.0027 H         1 UNK         0.0600 
    204 H204       -6.0462  -29.0360  -48.4674 H         1 UNK         0.0600 
    205 H205       -3.9289  -25.5483  -48.7577 H         1 UNK         0.3000 
    206 H206       -4.3374  -23.9774  -50.2417 H         1 UNK         0.0600 
    207 H207       -5.4178  -22.8666  -48.3052 H         1 UNK         0.0600 
    208 H208       -6.2012  -22.3937  -49.7968 H         1 UNK         0.0600 
    209 H209       -6.9757  -23.5610  -48.7281 H         1 UNK         0.0600 
    210 H210       -7.5718  -23.7281  -50.7586 H         1 UNK         0.3000 
    211 H211       -9.0699  -24.2358  -52.2553 H         1 UNK         0.0600 
    212 H212       -7.7822  -27.0072  -52.4456 H         1 UNK         0.0600 
    213 H213       -9.3910  -26.5691  -52.9983 H         1 UNK         0.0600 
    214 H214       -9.0105  -26.5130  -51.2835 H         1 UNK         0.0600 
    215 H215       -5.9791  -25.5049  -53.5154 H         1 UNK         0.3000 
    216 H216       -6.5500  -24.7961  -56.3054 H         1 UNK         0.0600 
    217 H217       -4.1756  -25.5253  -56.6323 H         1 UNK         0.0600 
    218 H218       -5.0861  -26.7415  -55.7494 H         1 UNK         0.0600 
    219 H219       -3.9685  -25.6823  -54.8911 H         1 UNK         0.0600 
    220 H220       -5.9287  -22.9060  -57.3087 H         1 UNK         0.3000 
    221 H221       -5.6096  -20.5623  -55.8446 H         1 UNK         0.0600 
    222 H222       -4.9919  -21.0941  -58.7991 H         1 UNK         0.0600 
    223 H223       -6.5623  -20.6537  -58.1257 H         1 UNK         0.0600 
    224 H224       -5.2345  -19.5060  -58.0806 H         1 UNK         0.0600 
    225 H225       -3.0747  -22.6548  -57.1127 H         1 UNK         0.3000 
    226 H226       -0.8741  -20.8360  -56.8519 H         1 UNK         0.0600 
    227 H227       -0.7891  -22.8651  -58.2810 H         1 UNK         0.0600 
    228 H228        0.4835  -22.9230  -57.0724 H         1 UNK         0.0600 
    229 H229       -0.9635  -23.9022  -56.8643 H         1 UNK         0.0600 
    230 H230       -2.6398  -22.7556  -54.5035 H         1 UNK         0.3000 
    231 H231       -0.5448  -22.3827  -52.4045 H         1 UNK         0.0600 
    232 H232       -1.3560  -24.7047  -52.7091 H         1 UNK         0.0600 
    233 H233       -3.0251  -24.1842  -52.4964 H         1 UNK         0.0600 
    234 H234       -1.8857  -24.0708  -51.1602 H         1 UNK         0.0600 
    235 H235       -4.0232  -21.8777  -53.1509 H         1 UNK         0.3000 
    236 H236       -4.6457  -20.5729  -50.6857 H         1 UNK         0.0600 
    237 H237       -6.8399  -20.2257  -51.7710 H         1 UNK         0.0600 
    238 H238       -6.1615  -20.5871  -53.3531 H         1 UNK         0.0600 
    239 H239       -6.2738  -21.8503  -52.1363 H         1 UNK         0.0600 
    240 H240       -3.4818  -19.3575  -53.7832 H         1 UNK         0.3000 
    241 H241       -2.9657  -17.4132  -54.6158 H         1 UNK         0.0600 
    242 H242       -5.6453  -14.8960  -54.9761 H         1 UNK         0.3800 
    243 H243       -3.9299  -14.8198  -54.7046 H         1 UNK         0.3800 
    244 H244       -2.5374  -15.3634  -53.2283 H         1 UNK         0.0800 
    245 H245       -3.1924  -16.1585  -51.8304 H         1 UNK         0.0800 
    246 H246       -1.5067  -16.4488  -50.1769 H         1 UNK         0.0800 
    247 H247       -1.6462  -18.1693  -50.4597 H         1 UNK         0.0800 
@<TRIPOS>BOND
     1    1    2 1    
     2    1  127 1    
     3    1  128 1    
     4    1  129 1    
     5    2    3 2    
     6    2    4 am   BACKBONE|DICT|INTERRES
     7    4    5 1    
     8    4  130 1    
     9    5    6 1    
    10    5   65 1    
    11    5  131 1    
    12    6    7 1    
    13    6  132 1    
    14    6  133 1    
    15    7    8 1    
    16    8    9 1    
    17    8  134 1    
    18    8  135 1    
    19    9   10 ar   
    20    9   14 ar   
    21   10   11 ar   
    22   10  136 1    
    23   11   12 ar   
    24   11  126 1    
    25   12   13 ar   
    26   12  137 1    
    27   13   14 ar   
    28   13   15 1    
    29   14  138 1    
    30   15   16 1    
    31   15  139 1    
    32   15  140 1    
    33   16   17 1    
    34   17   18 1    
    35   17  141 1    
    36   17  142 1    
    37   18   19 1    
    38   18   67 1    
    39   18  143 1    
    40   19   20 am   BACKBONE|DICT|INTERRES
    41   19  144 1    
    42   20   21 2    
    43   20   22 1    
    44   22   23 1    
    45   22   24 1    
    46   22  145 1    
    47   23  146 1    
    48   23  147 1    
    49   23  148 1    
    50   24   25 am   BACKBONE|DICT|INTERRES
    51   24  149 1    
    52   25   26 2    
    53   25   27 1    
    54   27   28 1    
    55   27   29 1    
    56   27  150 1    
    57   28  151 1    
    58   28  152 1    
    59   28  153 1    
    60   29   30 am   BACKBONE|DICT|INTERRES
    61   29  154 1    
    62   30   31 2    
    63   30   32 1    
    64   32   33 1    
    65   32   34 1    
    66   32  155 1    
    67   33  156 1    
    68   33  157 1    
    69   33  158 1    
    70   34   35 am   BACKBONE|DICT|INTERRES
    71   34  159 1    
    72   35   36 2    
    73   35   37 1    
    74   37   38 1    
    75   37   39 1    
    76   37  160 1    
    77   38  161 1    
    78   38  162 1    
    79   38  163 1    
    80   39   40 am   BACKBONE|DICT|INTERRES
    81   39  164 1    
    82   40   41 2    
    83   40   42 1    
    84   42   43 1    
    85   42   44 1    
    86   42  165 1    
    87   43  166 1    
    88   43  167 1    
    89   43  168 1    
    90   44   45 am   BACKBONE|DICT|INTERRES
    91   44  169 1    
    92   45   46 2    
    93   45   47 1    
    94   47   48 1    
    95   47   49 1    
    96   47  170 1    
    97   48  171 1    
    98   48  172 1    
    99   48  173 1    
   100   49   50 am   BACKBONE|DICT|INTERRES
   101   49  174 1    
   102   50   51 2    
   103   50   52 1    
   104   52   53 1    
   105   52   54 1    
   106   52  175 1    
   107   53  176 1    
   108   53  177 1    
   109   53  178 1    
   110   54   55 am   BACKBONE|DICT|INTERRES
   111   54  179 1    
   112   55   56 2    
   113   55   57 1    
   114   57   58 1    
   115   57   59 1    
   116   57  180 1    
   117   58  181 1    
   118   58  182 1    
   119   58  183 1    
   120   59   60 am   BACKBONE|DICT|INTERRES
   121   59  184 1    
   122   60   61 2    
   123   60   62 1    
   124   62   63 1    
   125   62   64 1    
   126   62  185 1    
   127   63  186 1    
   128   63  187 1    
   129   63  188 1    
   130   64   65 am   BACKBONE|DICT|INTERRES
   131   64  189 1    
   132   65   66 2    
   133   67   68 2    
   134   67   69 am   BACKBONE|DICT|INTERRES
   135   69   70 1    
   136   69  190 1    
   137   70   71 1    
   138   70   72 1    
   139   70  191 1    
   140   71  192 1    
   141   71  193 1    
   142   71  194 1    
   143   72   73 2    
   144   72   74 am   BACKBONE|DICT|INTERRES
   145   74   75 1    
   146   74  195 1    
   147   75   76 1    
   148   75   77 1    
   149   75  196 1    
   150   76  197 1    
   151   76  198 1    
   152   76  199 1    
   153   77   78 2    
   154   77   79 am   BACKBONE|DICT|INTERRES
   155   79   80 1    
   156   79  200 1    
   157   80   81 1    
   158   80   82 1    
   159   80  201 1    
   160   81  202 1    
   161   81  203 1    
   162   81  204 1    
   163   82   83 2    
   164   82   84 am   BACKBONE|DICT|INTERRES
   165   84   85 1    
   166   84  205 1    
   167   85   86 1    
   168   85   87 1    
   169   85  206 1    
   170   86  207 1    
   171   86  208 1    
   172   86  209 1    
   173   87   88 2    
   174   87   89 am   BACKBONE|DICT|INTERRES
   175   89   90 1    
   176   89  210 1    
   177   90   91 1    
   178   90   92 1    
   179   90  211 1    
   180   91  212 1    
   181   91  213 1    
   182   91  214 1    
   183   92   93 2    
   184   92   94 am   BACKBONE|DICT|INTERRES
   185   94   95 1    
   186   94  215 1    
   187   95   96 1    
   188   95   97 1    
   189   95  216 1    
   190   96  217 1    
   191   96  218 1    
   192   96  219 1    
   193   97   98 2    
   194   97   99 am   BACKBONE|DICT|INTERRES
   195   99  100 1    
   196   99  220 1    
   197  100  101 1    
   198  100  102 1    
   199  100  221 1    
   200  101  222 1    
   201  101  223 1    
   202  101  224 1    
   203  102  103 2    
   204  102  104 am   BACKBONE|DICT|INTERRES
   205  104  105 1    
   206  104  225 1    
   207  105  106 1    
   208  105  107 1    
   209  105  226 1    
   210  106  227 1    
   211  106  228 1    
   212  106  229 1    
   213  107  108 2    
   214  107  109 am   BACKBONE|DICT|INTERRES
   215  109  110 1    
   216  109  230 1    
   217  110  111 1    
   218  110  112 1    
   219  110  231 1    
   220  111  232 1    
   221  111  233 1    
   222  111  234 1    
   223  112  113 2    
   224  112  114 am   BACKBONE|DICT|INTERRES
   225  114  115 1    
   226  114  235 1    
   227  115  116 1    
   228  115  117 1    
   229  115  236 1    
   230  116  237 1    
   231  116  238 1    
   232  116  239 1    
   233  117  118 2    
   234  117  119 am   BACKBONE|DICT|INTERRES
   235  119  120 1    
   236  119  240 1    
   237  120  121 1    
   238  120  124 1    
   239  120  241 1    
   240  121  122 am   BACKBONE|DICT|INTERRES
   241  121  123 2    
   242  122  242 1    
   243  122  243 1    
   244  124  125 1    
   245  124  244 1    
   246  124  245 1    
   247  125  126 1    
   248  126  246 1    
   249  126  247 1    
@<TRIPOS>SUBSTRUCTURE
     1 UNK         1 GROUP             0       ****    0 ROOT    
