@<TRIPOS>MOLECULE
3R540
247   249    1
SMALL
USER_CHARGES


@<TRIPOS>ATOM
      1 CA         -5.8739  -15.8377  -48.2184 C.3       0 UNK        -0.1800 
      2 C          -4.8805  -14.7237  -48.5119 C.2       0 UNK         0.5000 
      3 O          -5.2841  -13.6352  -48.9217 O.2       0 UNK        -0.5000 
      4 N          -3.5843  -14.9983  -48.3204 N.am      1 UNK        -0.5000 
      5 CA         -2.4854  -14.0430  -48.4972 C.3       1 UNK         0.1400 
      6 C6         -1.1048  -14.7415  -48.4291 C.3       23 UNK        -0.0398 
      7 S7         -0.8207  -15.8829  -49.8227 S.3       23 UNK        -0.2404 
      8 C8         -0.5415  -17.4727  -48.9811 C.3       23 UNK        -0.0205 
      9 C9          0.5153  -18.2827  -49.7119 C.ar      23 UNK        -0.0193 
     10 C10         0.1715  -19.0437  -50.8324 C.ar      23 UNK        -0.1150 
     11 C11         1.1493  -19.7504  -51.5388 C.ar      23 UNK        -0.0193 
     12 C12         2.4754  -19.7081  -51.0999 C.ar      23 UNK        -0.1150 
     13 C13         2.8278  -18.9730  -49.9648 C.ar      23 UNK        -0.0193 
     14 C14         1.8447  -18.2535  -49.2800 C.ar      23 UNK        -0.1150 
     15 C15         4.2719  -18.9628  -49.4813 C.3       23 UNK        -0.0205 
     16 S16         4.4810  -19.8199  -47.8861 S.3       23 UNK        -0.2404 
     17 C17         3.5860  -21.3814  -48.1858 C.3       23 UNK        -0.0398 
     18 CA          4.0535  -22.5432  -47.2772 C.3       11 UNK         0.1400 
     19 N           3.8541  -22.2425  -45.8529 N.am      11 UNK        -0.5000 
     20 C           4.4872  -22.8522  -44.8418 C.2       10 UNK         0.5000 
     21 O           5.3770  -23.6886  -45.0001 O.2       10 UNK        -0.5000 
     22 CA          4.0137  -22.5099  -43.4145 C.3       10 UNK         0.1400 
     23 CB          4.7644  -21.2898  -42.8600 C.3       10 UNK        -0.1800 
     24 N           2.5673  -22.2842  -43.3332 N.am      10 UNK        -0.5000 
     25 C           1.6427  -23.2357  -43.5328 C.2       9 UNK         0.5000 
     26 O           1.9173  -24.4132  -43.7627 O.2       9 UNK        -0.5000 
     27 CA          0.1658  -22.8012  -43.5255 C.3       9 UNK         0.1400 
     28 CB         -0.3857  -22.7813  -42.0924 C.3       9 UNK        -0.1800 
     29 N          -0.0543  -21.4991  -44.1537 N.am      9 UNK        -0.5000 
     30 C           0.1905  -21.2183  -45.4408 C.2       8 UNK         0.5000 
     31 O           0.6121  -22.0422  -46.2507 O.2       8 UNK        -0.5000 
     32 CA         -0.0016  -19.7550  -45.8815 C.3       8 UNK         0.1400 
     33 CB         -1.4879  -19.4304  -46.0789 C.3       8 UNK        -0.1800 
     34 N           0.5857  -18.8050  -44.9363 N.am      8 UNK        -0.5000 
     35 C           1.8854  -18.7784  -44.6071 C.2       7 UNK         0.5000 
     36 O           2.7283  -19.5344  -45.0852 O.2       7 UNK        -0.5000 
     37 CA          2.3001  -17.7799  -43.5175 C.3       7 UNK         0.1400 
     38 CB          2.4580  -16.3722  -44.1031 C.3       7 UNK        -0.1800 
     39 N           1.3347  -17.7552  -42.4203 N.am      7 UNK        -0.5000 
     40 C           1.1873  -18.7497  -41.5333 C.2       6 UNK         0.5000 
     41 O           1.8848  -19.7646  -41.5206 O.2       6 UNK        -0.5000 
     42 CA          0.0381  -18.6037  -40.5189 C.3       6 UNK         0.1400 
     43 CB          0.4604  -17.7099  -39.3432 C.3       6 UNK        -0.1800 
     44 N          -1.1831  -18.0670  -41.1221 N.am      6 UNK        -0.5000 
     45 C          -1.8944  -18.6883  -42.0732 C.2       5 UNK         0.5000 
     46 O          -1.6136  -19.7990  -42.5178 O.2       5 UNK        -0.5000 
     47 CA         -3.1047  -17.9371  -42.6536 C.3       5 UNK         0.1400 
     48 CB         -4.3874  -18.3328  -41.9074 C.3       5 UNK        -0.1800 
     49 N          -2.9702  -16.4800  -42.6380 N.am      5 UNK        -0.5000 
     50 C          -2.0287  -15.7740  -43.2791 C.2       4 UNK         0.5000 
     51 O          -1.1143  -16.2866  -43.9318 O.2       4 UNK        -0.5000 
     52 CA         -2.1791  -14.2453  -43.1694 C.3       4 UNK         0.1400 
     53 CB         -2.1880  -13.7576  -41.7034 C.3       4 UNK        -0.1800 
     54 N          -1.2164  -13.4992  -43.9824 N.am      4 UNK        -0.5000 
     55 C           0.0869  -13.2727  -43.7550 C.2       3 UNK         0.5000 
     56 O           0.6996  -13.7063  -42.7787 O.2       3 UNK        -0.5000 
     57 CA          0.8431  -12.3935  -44.7810 C.3       3 UNK         0.1400 
     58 CB          1.9894  -13.1729  -45.4446 C.3       3 UNK        -0.1800 
     59 N          -0.0108  -11.8495  -45.8393 N.am      3 UNK        -0.5000 
     60 C          -0.8923  -10.8484  -45.7057 C.2       2 UNK         0.5000 
     61 O          -1.0152  -10.1774  -44.6811 O.2       2 UNK        -0.5000 
     62 CA         -1.8234  -10.5852  -46.9096 C.3       2 UNK         0.1400 
     63 CB         -1.3142   -9.3920  -47.7324 C.3       2 UNK        -0.1800 
     64 N          -1.9844  -11.7451  -47.7982 N.am      2 UNK        -0.5000 
     65 C          -2.5387  -12.9145  -47.4453 C.2       1 UNK         0.5000 
     66 O          -2.9953  -13.1372  -46.3214 O.2       1 UNK        -0.5000 
     67 C           3.3534  -23.8524  -47.7148 C.2       11 UNK         0.5000 
     68 O           3.6094  -24.3210  -48.8246 O.2       11 UNK        -0.5000 
     69 N           2.4756  -24.4009  -46.8605 N.am      12 UNK        -0.5000 
     70 CA          1.5784  -25.5372  -47.0968 C.3       12 UNK         0.1400 
     71 CB          2.3684  -26.8348  -47.3683 C.3       12 UNK        -0.1800 
     72 C           0.4996  -25.2390  -48.1618 C.2       12 UNK         0.5000 
     73 O           0.0772  -26.1412  -48.8880 O.2       12 UNK        -0.5000 
     74 N           0.0609  -23.9760  -48.2212 N.am      13 UNK        -0.5000 
     75 CA         -1.0565  -23.5035  -49.0326 C.3       13 UNK         0.1400 
     76 CB         -0.8307  -22.0158  -49.3445 C.3       13 UNK        -0.1800 
     77 C          -2.3961  -23.7249  -48.3016 C.2       13 UNK         0.5000 
     78 O          -2.4148  -24.0789  -47.1198 O.2       13 UNK        -0.5000 
     79 N          -3.5030  -23.5084  -49.0246 N.am      14 UNK        -0.5000 
     80 CA         -4.8715  -23.7412  -48.5505 C.3       14 UNK         0.1400 
     81 CB         -5.8381  -23.6565  -49.7430 C.3       14 UNK        -0.1800 
     82 C          -5.3383  -22.7858  -47.4356 C.2       14 UNK         0.5000 
     83 O          -6.2672  -23.1333  -46.7066 O.2       14 UNK        -0.5000 
     84 N          -4.7344  -21.5899  -47.3541 N.am      15 UNK        -0.5000 
     85 CA         -4.9870  -20.4924  -46.4038 C.3       15 UNK         0.1400 
     86 CB         -4.7625  -20.9442  -44.9482 C.3       15 UNK        -0.1800 
     87 C          -6.3458  -19.7804  -46.5685 C.2       15 UNK         0.5000 
     88 O          -6.4315  -18.5829  -46.2999 O.2       15 UNK        -0.5000 
     89 N          -7.3663  -20.4989  -47.0500 N.am      16 UNK        -0.5000 
     90 CA         -8.6560  -19.9612  -47.4883 C.3       16 UNK         0.1400 
     91 CB         -9.6697  -21.1139  -47.5539 C.3       16 UNK        -0.1800 
     92 C          -8.5681  -19.2409  -48.8513 C.2       16 UNK         0.5000 
     93 O          -9.4821  -18.4939  -49.2024 O.2       16 UNK        -0.5000 
     94 N          -7.4766  -19.4775  -49.5873 N.am      17 UNK        -0.5000 
     95 CA         -7.1187  -18.8327  -50.8434 C.3       17 UNK         0.1400 
     96 CB         -7.3589  -19.8148  -52.0018 C.3       17 UNK        -0.1800 
     97 C          -5.6468  -18.3985  -50.7668 C.2       17 UNK         0.5000 
     98 O          -4.8911  -18.9308  -49.9472 O.2       17 UNK        -0.5000 
     99 N          -5.2861  -17.4211  -51.6070 N.am      18 UNK        -0.5000 
    100 CA        -3.9563  -16.8165  -51.6821 C.3       18 UNK         0.1400 
    101 CB        -4.1100  -15.3487  -52.1300 C.3       18 UNK        -0.1800 
    102 C         -3.0041  -17.6344  -52.5823 C.2       18 UNK         0.5000 
    103 O         -3.0754  -18.8631  -52.5949 O.2       18 UNK        -0.5000 
    104 N         -2.1273  -16.9469  -53.3299 N.am      19 UNK        -0.5000 
    105 CA        -1.0645  -17.5100  -54.1739 C.3       19 UNK         0.1400 
    106 CB        -0.3219  -16.3608  -54.8706 C.3       19 UNK        -0.1800 
    107 C         -1.5239  -18.5582  -55.2096 C.2       19 UNK         0.5000 
    108 O         -0.7444  -19.4433  -55.5641 O.2       19 UNK        -0.5000 
    109 N         -2.7885  -18.4671  -55.6427 N.am      20 UNK        -0.5000 
    110 CA        -3.4510  -19.4231  -56.5310 C.3       20 UNK         0.1400 
    111 CB        -4.8287  -18.8647  -56.9182 C.3       20 UNK        -0.1800 
    112 C         -3.5963  -20.8395  -55.9356 C.2       20 UNK         0.5000 
    113 O         -3.6822  -21.8019  -56.7001 O.2       20 UNK        -0.5000 
    114 N         -3.5968  -20.9578  -54.5976 N.am      21 UNK        -0.5000 
    115 CA        -3.7237  -22.2216  -53.8640 C.3       21 UNK         0.1400 
    116 CB        -3.8090  -21.9254  -52.3612 C.3       21 UNK        -0.1800 
    117 C         -2.5769  -23.2161  -54.1231 C.2       21 UNK         0.5000 
    118 O         -2.7812  -24.4231  -53.9899 O.2       21 UNK        -0.5000 
    119 N         -1.4021  -22.6921  -54.4885 N.am      22 UNK        -0.5000 
    120 CA        -0.2126  -23.4732  -54.8529 C.3       22 UNK         0.1400 
    121 C         -0.2168  -23.9651  -56.3322 C.2       22 UNK         0.5000 
    122 N         -1.2031  -23.6255  -57.1560 N.am      22 UNK        -0.7600 
    123 O          0.6912  -24.6834  -56.7416 O.2       22 UNK        -0.5000 
    124 C124        1.0930  -22.7095  -54.5167 C.3       23 UNK        -0.0398 
    125 S125        1.2376  -22.2688  -52.7473 S.3       23 UNK        -0.2404 
    126 C126        0.7864  -20.5063  -52.8086 C.3       23 UNK        -0.0205 
    127 H127       -6.4428  -15.6088  -47.3175 H         1 UNK         0.0600 
    128 H128       -5.3715  -16.7937  -48.0705 H         1 UNK         0.0600 
    129 H129       -6.5741  -15.9488  -49.0462 H         1 UNK         0.0600 
    130 H130       -3.3212  -15.9042  -47.9635 H         1 UNK         0.3000 
    131 H131       -2.5982  -13.5869  -49.4833 H         1 UNK         0.0600 
    132 H132       -0.2976  -14.0081  -48.4703 H         1 UNK         0.0800 
    133 H133       -0.9878  -15.2591  -47.4754 H         1 UNK         0.0800 
    134 H134       -0.2196  -17.3099  -47.9522 H         1 UNK         0.0800 
    135 H135       -1.4791  -18.0289  -48.9334 H         1 UNK         0.0800 
    136 H136       -0.8554  -19.0652  -51.1657 H         1 UNK         0.1150 
    137 H137        3.2329  -20.2534  -51.6452 H         1 UNK         0.1150 
    138 H138        2.1177  -17.6744  -48.4089 H         1 UNK         0.1150 
    139 H139        4.9287  -19.4274  -50.2184 H         1 UNK         0.0800 
    140 H140        4.6101  -17.9310  -49.3772 H         1 UNK         0.0800 
    141 H141        2.5183  -21.1955  -48.0541 H         1 UNK         0.0800 
    142 H142        3.7232  -21.6485  -49.2354 H         1 UNK         0.0800 
    143 H143        5.1225  -22.6885  -47.4464 H         1 UNK         0.0600 
    144 H144        3.1879  -21.5076  -45.6377 H         1 UNK         0.3000 
    145 H145        4.2508  -23.3643  -42.7771 H         1 UNK         0.0600 
    146 H146        4.4619  -21.0723  -41.8355 H         1 UNK         0.0600 
    147 H147        4.5869  -20.3965  -43.4579 H         1 UNK         0.0600 
    148 H148        5.8404  -21.4673  -42.8512 H         1 UNK         0.0600 
    149 H149        2.2633  -21.3400  -43.1296 H         1 UNK         0.3000 
    150 H150       -0.3986  -23.5412  -44.0969 H         1 UNK         0.0600 
    151 H151       -0.2382  -23.7441  -41.6018 H         1 UNK         0.0600 
    152 H152       -1.4559  -22.5739  -42.0860 H         1 UNK         0.0600 
    153 H153        0.1057  -22.0214  -41.4835 H         1 UNK         0.0600 
    154 H154       -0.4492  -20.7742  -43.5583 H         1 UNK         0.3000 
    155 H155        0.5092  -19.6243  -46.8378 H         1 UNK         0.0600 
    156 H156       -1.9053  -20.0193  -46.8947 H         1 UNK         0.0600 
    157 H157       -1.6441  -18.3789  -46.3180 H         1 UNK         0.0600 
    158 H158       -2.0670  -19.6549  -45.1849 H         1 UNK         0.0600 
    159 H159       -0.0382  -18.1372  -44.4993 H         1 UNK         0.3000 
    160 H160        3.2683  -18.0937  -43.1213 H         1 UNK         0.0600 
    161 H161        1.5185  -16.0024  -44.5136 H         1 UNK         0.0600 
    162 H162        3.1949  -16.3630  -44.9072 H         1 UNK         0.0600 
    163 H163        2.7934  -15.6661  -43.3434 H         1 UNK         0.0600 
    164 H164        0.6898  -16.9770  -42.4008 H         1 UNK         0.3000 
    165 H165       -0.1882  -19.5984  -40.1288 H         1 UNK         0.0600 
    166 H166       -0.3174  -17.6681  -38.5805 H         1 UNK         0.0600 
    167 H167        1.3624  -18.0948  -38.8654 H         1 UNK         0.0600 
    168 H168        0.6697  -16.6893  -39.6664 H         1 UNK         0.0600 
    169 H169       -1.4839  -17.1539  -40.8156 H         1 UNK         0.3000 
    170 H170       -3.2100  -18.2422  -43.6957 H         1 UNK         0.0600 
    171 H171       -4.5146  -19.4162  -41.8920 H         1 UNK         0.0600 
    172 H172       -4.3722  -17.9915  -40.8716 H         1 UNK         0.0600 
    173 H173       -5.2700  -17.9108  -42.3887 H         1 UNK         0.0600 
    174 H174       -3.6855  -15.9789  -42.1314 H         1 UNK         0.3000 
    175 H175       -3.1529  -14.0057  -43.5988 H         1 UNK         0.0600 
    176 H176       -1.3082  -14.0949  -41.1547 H         1 UNK         0.0600 
    177 H177       -2.2189  -12.6692  -41.6504 H         1 UNK         0.0600 
    178 H178       -3.0627  -14.1263  -41.1674 H         1 UNK         0.0600 
    179 H179       -1.6111  -13.1394  -44.8439 H         1 UNK         0.3000 
    180 H180        1.2769  -11.5582  -44.2276 H         1 UNK         0.0600 
    181 H181        2.6981  -13.5353  -44.6996 H         1 UNK         0.0600 
    182 H182        2.5483  -12.5411  -46.1352 H         1 UNK         0.0600 
    183 H183        1.6210  -14.0350  -46.0017 H         1 UNK         0.0600 
    184 H184        0.0325  -12.3195  -46.7299 H         1 UNK         0.3000 
    185 H185       -2.8075  -10.3314  -46.5100 H         1 UNK         0.0600 
    186 H186       -1.2104   -8.5029  -47.1088 H         1 UNK         0.0600 
    187 H187       -0.3394   -9.5961  -48.1772 H         1 UNK         0.0600 
    188 H188       -2.0062   -9.1426  -48.5370 H         1 UNK         0.0600 
    189 H189       -1.6296  -11.6336  -48.7376 H         1 UNK         0.3000 
    190 H190        2.3376  -23.9281  -45.9768 H         1 UNK         0.3000 
    191 H191        1.0350  -25.6810  -46.1620 H         1 UNK         0.0600 
    192 H192        1.7053  -27.7005  -47.3705 H         1 UNK         0.0600 
    193 H193        3.1211  -27.0059  -46.5987 H         1 UNK         0.0600 
    194 H194        2.8732  -26.8109  -48.3342 H         1 UNK         0.0600 
    195 H195        0.4053  -23.3143  -47.5281 H         1 UNK         0.3000 
    196 H196       -1.0792  -24.0566  -49.9740 H         1 UNK         0.0600 
    197 H197       -0.8462  -21.4052  -48.4437 H         1 UNK         0.0600 
    198 H198        0.1351  -21.8645  -49.8261 H         1 UNK         0.0600 
    199 H199       -1.5922  -21.6251  -50.0185 H         1 UNK         0.0600 
    200 H200       -3.4067  -23.2178  -49.9855 H         1 UNK         0.3000 
    201 H201       -4.9163  -24.7552  -48.1475 H         1 UNK         0.0600 
    202 H202       -6.8587  -23.8887  -49.4356 H         1 UNK         0.0600 
    203 H203       -5.5691  -24.3680  -50.5239 H         1 UNK         0.0600 
    204 H204       -5.8510  -22.6582  -50.1821 H         1 UNK         0.0600 
    205 H205       -4.0224  -21.3971  -48.0439 H         1 UNK         0.3000 
    206 H206       -4.2377  -19.7348  -46.6318 H         1 UNK         0.0600 
    207 H207       -3.7772  -21.3925  -44.8187 H         1 UNK         0.0600 
    208 H208       -4.8278  -20.0961  -44.2674 H         1 UNK         0.0600 
    209 H209       -5.5066  -21.6729  -44.6266 H         1 UNK         0.0600 
    210 H210       -7.2210  -21.4978  -47.1554 H         1 UNK         0.3000 
    211 H211       -9.0032  -19.2353  -46.7502 H         1 UNK         0.0600 
    212 H212       -9.3676  -21.8741  -48.2756 H         1 UNK         0.0600 
    213 H213      -10.6555  -20.7525  -47.8496 H         1 UNK         0.0600 
    214 H214       -9.7797  -21.5978  -46.5832 H         1 UNK         0.0600 
    215 H215       -6.7369  -20.0329  -49.1804 H         1 UNK         0.3000 
    216 H216       -7.7254  -17.9376  -50.9965 H         1 UNK         0.0600 
    217 H217       -8.4222  -20.0250  -52.1177 H         1 UNK         0.0600 
    218 H218       -6.8529  -20.7654  -51.8359 H         1 UNK         0.0600 
    219 H219       -7.0022  -19.4094  -52.9495 H         1 UNK         0.0600 
    220 H220       -5.9666  -17.0729  -52.2662 H         1 UNK         0.3000 
    221 H221       -3.5204  -16.8166  -50.6819 H         1 UNK         0.0600 
    222 H222       -3.1725  -14.8008  -52.0283 H         1 UNK         0.0600 
    223 H223       -4.4368  -15.2723  -53.1680 H         1 UNK         0.0600 
    224 H224       -4.8442  -14.8256  -51.5177 H         1 UNK         0.0600 
    225 H225       -2.1447  -15.9397  -53.2652 H         1 UNK         0.3000 
    226 H226       -0.3585  -18.0036  -53.5070 H         1 UNK         0.0600 
    227 H227        0.1126  -15.6739  -54.1440 H         1 UNK         0.0600 
    228 H228        0.4959  -16.7389  -55.4858 H         1 UNK         0.0600 
    229 H229       -0.9855  -15.7892  -55.5207 H         1 UNK         0.0600 
    230 H230       -3.3560  -17.7121  -55.2877 H         1 UNK         0.3000 
    231 H231       -2.8477  -19.5104  -57.4369 H         1 UNK         0.0600 
    232 H232       -5.3441  -19.5369  -57.6056 H         1 UNK         0.0600 
    233 H233       -4.7382  -17.8997  -57.4172 H         1 UNK         0.0600 
    234 H234       -5.4692  -18.7341  -56.0449 H         1 UNK         0.0600 
    235 H235       -3.4836  -20.1241  -54.0271 H         1 UNK         0.3000 
    236 H236       -4.6551  -22.6971  -54.1778 H         1 UNK         0.0600 
    237 H237       -4.6258  -21.2432  -52.1329 H         1 UNK         0.0600 
    238 H238       -3.9756  -22.8435  -51.8002 H         1 UNK         0.0600 
    239 H239       -2.8879  -21.4736  -51.9927 H         1 UNK         0.0600 
    240 H240       -1.3325  -21.6909  -54.6049 H         1 UNK         0.3000 
    241 H241       -0.2102  -24.3819  -54.2478 H         1 UNK         0.0600 
    242 H242       -1.9744  -23.0475  -56.8452 H         1 UNK         0.3800 
    243 H243       -1.1871  -23.9608  -58.1062 H         1 UNK         0.3800 
    244 H244        1.1777  -21.8137  -55.1341 H         1 UNK         0.0800 
    245 H245        1.9615  -23.3230  -54.7621 H         1 UNK         0.0800 
    246 H246       -0.2843  -20.4337  -53.0030 H         1 UNK         0.0800 
    247 H247        1.2940  -20.0246  -53.6452 H         1 UNK         0.0800 
@<TRIPOS>BOND
     1    1    2 1    
     2    1  127 1    
     3    1  128 1    
     4    1  129 1    
     5    2    3 2    
     6    2    4 am   BACKBONE|DICT|INTERRES
     7    4    5 1    
     8    4  130 1    
     9    5    6 1    
    10    5   65 1    
    11    5  131 1    
    12    6    7 1    
    13    6  132 1    
    14    6  133 1    
    15    7    8 1    
    16    8    9 1    
    17    8  134 1    
    18    8  135 1    
    19    9   10 ar   
    20    9   14 ar   
    21   10   11 ar   
    22   10  136 1    
    23   11   12 ar   
    24   11  126 1    
    25   12   13 ar   
    26   12  137 1    
    27   13   14 ar   
    28   13   15 1    
    29   14  138 1    
    30   15   16 1    
    31   15  139 1    
    32   15  140 1    
    33   16   17 1    
    34   17   18 1    
    35   17  141 1    
    36   17  142 1    
    37   18   19 1    
    38   18   67 1    
    39   18  143 1    
    40   19   20 am   BACKBONE|DICT|INTERRES
    41   19  144 1    
    42   20   21 2    
    43   20   22 1    
    44   22   23 1    
    45   22   24 1    
    46   22  145 1    
    47   23  146 1    
    48   23  147 1    
    49   23  148 1    
    50   24   25 am   BACKBONE|DICT|INTERRES
    51   24  149 1    
    52   25   26 2    
    53   25   27 1    
    54   27   28 1    
    55   27   29 1    
    56   27  150 1    
    57   28  151 1    
    58   28  152 1    
    59   28  153 1    
    60   29   30 am   BACKBONE|DICT|INTERRES
    61   29  154 1    
    62   30   31 2    
    63   30   32 1    
    64   32   33 1    
    65   32   34 1    
    66   32  155 1    
    67   33  156 1    
    68   33  157 1    
    69   33  158 1    
    70   34   35 am   BACKBONE|DICT|INTERRES
    71   34  159 1    
    72   35   36 2    
    73   35   37 1    
    74   37   38 1    
    75   37   39 1    
    76   37  160 1    
    77   38  161 1    
    78   38  162 1    
    79   38  163 1    
    80   39   40 am   BACKBONE|DICT|INTERRES
    81   39  164 1    
    82   40   41 2    
    83   40   42 1    
    84   42   43 1    
    85   42   44 1    
    86   42  165 1    
    87   43  166 1    
    88   43  167 1    
    89   43  168 1    
    90   44   45 am   BACKBONE|DICT|INTERRES
    91   44  169 1    
    92   45   46 2    
    93   45   47 1    
    94   47   48 1    
    95   47   49 1    
    96   47  170 1    
    97   48  171 1    
    98   48  172 1    
    99   48  173 1    
   100   49   50 am   BACKBONE|DICT|INTERRES
   101   49  174 1    
   102   50   51 2    
   103   50   52 1    
   104   52   53 1    
   105   52   54 1    
   106   52  175 1    
   107   53  176 1    
   108   53  177 1    
   109   53  178 1    
   110   54   55 am   BACKBONE|DICT|INTERRES
   111   54  179 1    
   112   55   56 2    
   113   55   57 1    
   114   57   58 1    
   115   57   59 1    
   116   57  180 1    
   117   58  181 1    
   118   58  182 1    
   119   58  183 1    
   120   59   60 am   BACKBONE|DICT|INTERRES
   121   59  184 1    
   122   60   61 2    
   123   60   62 1    
   124   62   63 1    
   125   62   64 1    
   126   62  185 1    
   127   63  186 1    
   128   63  187 1    
   129   63  188 1    
   130   64   65 am   BACKBONE|DICT|INTERRES
   131   64  189 1    
   132   65   66 2    
   133   67   68 2    
   134   67   69 am   BACKBONE|DICT|INTERRES
   135   69   70 1    
   136   69  190 1    
   137   70   71 1    
   138   70   72 1    
   139   70  191 1    
   140   71  192 1    
   141   71  193 1    
   142   71  194 1    
   143   72   73 2    
   144   72   74 am   BACKBONE|DICT|INTERRES
   145   74   75 1    
   146   74  195 1    
   147   75   76 1    
   148   75   77 1    
   149   75  196 1    
   150   76  197 1    
   151   76  198 1    
   152   76  199 1    
   153   77   78 2    
   154   77   79 am   BACKBONE|DICT|INTERRES
   155   79   80 1    
   156   79  200 1    
   157   80   81 1    
   158   80   82 1    
   159   80  201 1    
   160   81  202 1    
   161   81  203 1    
   162   81  204 1    
   163   82   83 2    
   164   82   84 am   BACKBONE|DICT|INTERRES
   165   84   85 1    
   166   84  205 1    
   167   85   86 1    
   168   85   87 1    
   169   85  206 1    
   170   86  207 1    
   171   86  208 1    
   172   86  209 1    
   173   87   88 2    
   174   87   89 am   BACKBONE|DICT|INTERRES
   175   89   90 1    
   176   89  210 1    
   177   90   91 1    
   178   90   92 1    
   179   90  211 1    
   180   91  212 1    
   181   91  213 1    
   182   91  214 1    
   183   92   93 2    
   184   92   94 am   BACKBONE|DICT|INTERRES
   185   94   95 1    
   186   94  215 1    
   187   95   96 1    
   188   95   97 1    
   189   95  216 1    
   190   96  217 1    
   191   96  218 1    
   192   96  219 1    
   193   97   98 2    
   194   97   99 am   BACKBONE|DICT|INTERRES
   195   99  100 1    
   196   99  220 1    
   197  100  101 1    
   198  100  102 1    
   199  100  221 1    
   200  101  222 1    
   201  101  223 1    
   202  101  224 1    
   203  102  103 2    
   204  102  104 am   BACKBONE|DICT|INTERRES
   205  104  105 1    
   206  104  225 1    
   207  105  106 1    
   208  105  107 1    
   209  105  226 1    
   210  106  227 1    
   211  106  228 1    
   212  106  229 1    
   213  107  108 2    
   214  107  109 am   BACKBONE|DICT|INTERRES
   215  109  110 1    
   216  109  230 1    
   217  110  111 1    
   218  110  112 1    
   219  110  231 1    
   220  111  232 1    
   221  111  233 1    
   222  111  234 1    
   223  112  113 2    
   224  112  114 am   BACKBONE|DICT|INTERRES
   225  114  115 1    
   226  114  235 1    
   227  115  116 1    
   228  115  117 1    
   229  115  236 1    
   230  116  237 1    
   231  116  238 1    
   232  116  239 1    
   233  117  118 2    
   234  117  119 am   BACKBONE|DICT|INTERRES
   235  119  120 1    
   236  119  240 1    
   237  120  121 1    
   238  120  124 1    
   239  120  241 1    
   240  121  122 am   BACKBONE|DICT|INTERRES
   241  121  123 2    
   242  122  242 1    
   243  122  243 1    
   244  124  125 1    
   245  124  244 1    
   246  124  245 1    
   247  125  126 1    
   248  126  246 1    
   249  126  247 1    
@<TRIPOS>SUBSTRUCTURE
     1 UNK         1 GROUP             0       ****    0 ROOT    
