@<TRIPOS>MOLECULE
3R540
247   249    1
SMALL
USER_CHARGES


@<TRIPOS>ATOM
      1 CA          4.0866   -9.7541  -47.7067 C.3       0 UNK        -0.1800 
      2 C           4.8794  -10.9932  -48.0978 C.2       0 UNK         0.5000 
      3 O           6.0995  -11.0165  -47.9355 O.2       0 UNK        -0.5000 
      4 N           4.1919  -12.0217  -48.6130 N.am      1 UNK        -0.5000 
      5 CA          4.7805  -13.3090  -49.0093 C.3       1 UNK         0.1400 
      6 C6          3.8270  -14.0948  -49.9443 C.3       23 UNK        -0.0398 
      7 S7          4.7163  -15.2631  -51.0258 S.3       23 UNK        -0.2404 
      8 C8          3.3533  -15.9125  -52.0386 C.3       23 UNK        -0.0205 
      9 C9          2.4254  -16.8189  -51.2433 C.ar      23 UNK        -0.0193 
     10 C10         1.1618  -16.3671  -50.8493 C.ar      23 UNK        -0.1150 
     11 C11         0.2851  -17.2191  -50.1721 C.ar      23 UNK        -0.0193 
     12 C12         0.6867  -18.5240  -49.8772 C.ar      23 UNK        -0.1150 
     13 C13         1.9496  -18.9856  -50.2550 C.ar      23 UNK        -0.0193 
     14 C14         2.8159  -18.1267  -50.9372 C.ar      23 UNK        -0.1150 
     15 C15         2.3500  -20.4287  -49.9840 C.3       23 UNK        -0.0205 
     16 S16         3.2203  -20.6543  -48.3960 S.3       23 UNK        -0.2404 
     17 C17         1.9415  -20.2935  -47.1419 C.3       23 UNK        -0.0398 
     18 CA          1.1177  -21.5310  -46.7029 C.3       11 UNK         0.1400 
     19 N           0.5270  -21.3483  -45.3749 N.am      11 UNK        -0.5000 
     20 C          -0.1160  -22.2975  -44.6802 C.2       10 UNK         0.5000 
     21 O          -0.2102  -23.4681  -45.0487 O.2       10 UNK        -0.5000 
     22 CA         -0.8239  -21.8503  -43.3871 C.3       10 UNK         0.1400 
     23 CB          0.1606  -21.7982  -42.2099 C.3       10 UNK        -0.1800 
     24 N          -1.4949  -20.5563  -43.5361 N.am      10 UNK        -0.5000 
     25 C          -2.5240  -20.3339  -44.3670 C.2       9 UNK         0.5000 
     26 O          -3.0549  -21.2158  -45.0398 O.2       9 UNK        -0.5000 
     27 CA         -3.0126  -18.8819  -44.5151 C.3       9 UNK         0.1400 
     28 CB         -3.9714  -18.5071  -43.3759 C.3       9 UNK        -0.1800 
     29 N          -1.9122  -17.9197  -44.5787 N.am      9 UNK        -0.5000 
     30 C          -0.9981  -17.8714  -45.5584 C.2       8 UNK         0.5000 
     31 O          -1.0200  -18.6027  -46.5477 O.2       8 UNK        -0.5000 
     32 CA          0.1682  -16.8825  -45.3741 C.3       8 UNK         0.1400 
     33 CB         -0.2451  -15.4622  -45.7870 C.3       8 UNK        -0.1800 
     34 N           0.6774  -16.8777  -44.0006 N.am      8 UNK        -0.5000 
     35 C           1.2606  -17.9315  -43.4101 C.2       7 UNK         0.5000 
     36 O           1.4943  -18.9914  -43.9893 O.2       7 UNK        -0.5000 
     37 CA          1.5783  -17.8072  -41.9094 C.3       7 UNK         0.1400 
     38 CB          2.9307  -17.1197  -41.6691 C.3       7 UNK        -0.1800 
     39 N           0.5241  -17.0939  -41.1899 N.am      7 UNK        -0.5000 
     40 C          -0.6894  -17.6043  -40.9372 C.2       6 UNK         0.5000 
     41 O          -1.0262  -18.7462  -41.2481 O.2       6 UNK        -0.5000 
     42 CA         -1.7080  -16.6678  -40.2611 C.3       6 UNK         0.1400 
     43 CB         -1.5326  -16.6902  -38.7356 C.3       6 UNK        -0.1800 
     44 N          -1.6059  -15.2884  -40.7400 N.am      6 UNK        -0.5000 
     45 C          -1.8948  -14.8952  -41.9890 C.2       5 UNK         0.5000 
     46 O          -2.3338  -15.6488  -42.8558 O.2       5 UNK        -0.5000 
     47 CA         -1.5855  -13.4283  -42.3438 C.3       5 UNK         0.1400 
     48 CB         -2.7886  -12.5295  -42.0228 C.3       5 UNK        -0.1800 
     49 N          -0.3954  -12.9141  -41.6595 N.am      5 UNK        -0.5000 
     50 C           0.8421  -13.3972  -41.8270 C.2       4 UNK         0.5000 
     51 O           1.1203  -14.3177  -42.6013 O.2       4 UNK        -0.5000 
     52 CA          1.9317  -12.7975  -40.9313 C.3       4 UNK         0.1400 
     53 CB          1.8256  -13.3571  -39.5001 C.3       4 UNK        -0.1800 
     54 N           3.2371  -13.1260  -41.4898 N.am      4 UNK        -0.5000 
     55 C           4.3692  -12.4495  -41.2710 C.2       3 UNK         0.5000 
     56 O           4.4372  -11.4553  -40.5464 O.2       3 UNK        -0.5000 
     57 CA          5.6499  -12.9647  -41.9598 C.3       3 UNK         0.1400 
     58 CB          6.5425  -13.6941  -40.9429 C.3       3 UNK        -0.1800 
     59 N           5.4204  -13.8561  -43.1016 N.am      3 UNK        -0.5000 
     60 C           4.8946  -13.4834  -44.2746 C.2       2 UNK         0.5000 
     61 O           4.4659  -12.3494  -44.5068 O.2       2 UNK        -0.5000 
     62 CA          4.8408  -14.5675  -45.3621 C.3       2 UNK         0.1400 
     63 CB          3.7475  -15.6047  -45.0634 C.3       2 UNK        -0.1800 
     64 N           4.5540  -13.9370  -46.6445 N.am      2 UNK        -0.5000 
     65 C           5.2055  -14.1626  -47.7907 C.2       1 UNK         0.5000 
     66 O           6.1134  -14.9874  -47.9073 O.2       1 UNK        -0.5000 
     67 C           0.0440  -21.9140  -47.7440 C.2       11 UNK         0.5000 
     68 O           0.2379  -22.8755  -48.4863 O.2       11 UNK        -0.5000 
     69 N          -1.0861  -21.1915  -47.7548 N.am      12 UNK        -0.5000 
     70 CA         -2.2279  -21.4610  -48.6314 C.3       12 UNK         0.1400 
     71 CB         -3.2560  -20.3257  -48.5195 C.3       12 UNK        -0.1800 
     72 C          -2.8866  -22.8272  -48.3635 C.2       12 UNK         0.5000 
     73 O          -3.2645  -23.5156  -49.3107 O.2       12 UNK        -0.5000 
     74 N          -2.9779  -23.2183  -47.0850 N.am      13 UNK        -0.5000 
     75 CA         -3.4492  -24.5338  -46.6530 C.3       13 UNK         0.1400 
     76 CB         -3.6383  -24.5480  -45.1290 C.3       13 UNK        -0.1800 
     77 C          -2.5136  -25.6694  -47.1064 C.2       13 UNK         0.5000 
     78 O          -2.9995  -26.6890  -47.5954 O.2       13 UNK        -0.5000 
     79 N          -1.1939  -25.4582  -46.9916 N.am      14 UNK        -0.5000 
     80 CA         -0.1593  -26.3741  -47.4827 C.3       14 UNK         0.1400 
     81 CB          1.2157  -25.9244  -46.9659 C.3       14 UNK        -0.1800 
     82 C          -0.1561  -26.5062  -49.0193 C.2       14 UNK         0.5000 
     83 O           0.0614  -27.6024  -49.5360 O.2       14 UNK        -0.5000 
     84 N          -0.4453  -25.3997  -49.7174 N.am      15 UNK        -0.5000 
     85 CA         -0.6460  -25.3335  -51.1677 C.3       15 UNK         0.1400 
     86 CB         -0.4770  -23.8749  -51.6219 C.3       15 UNK        -0.1800 
     87 C          -2.0068  -25.9000  -51.6341 C.2       15 UNK         0.5000 
     88 O          -2.2259  -26.0115  -52.8410 O.2       15 UNK        -0.5000 
     89 N          -2.8863  -26.2494  -50.6833 N.am      16 UNK        -0.5000 
     90 CA         -4.2250  -26.8194  -50.8537 C.3       16 UNK         0.1400 
     91 CB         -4.1550  -28.2037  -51.5326 C.3       16 UNK        -0.1800 
     92 C          -5.2282  -25.8610  -51.5286 C.2       16 UNK         0.5000 
     93 O          -6.1280  -26.3196  -52.2341 O.2       16 UNK        -0.5000 
     94 N          -5.0667  -24.5505  -51.2910 N.am      17 UNK        -0.5000 
     95 CA         -5.9252  -23.4183  -51.6752 C.3       17 UNK         0.1400 
     96 CB         -7.3041  -23.5407  -51.0009 C.3       17 UNK        -0.1800 
     97 C          -6.0826  -23.1406  -53.1872 C.2       17 UNK         0.5000 
     98 O          -6.3654  -22.0003  -53.5539 O.2       17 UNK        -0.5000 
     99 N          -5.9052  -24.1565  -54.0404 N.am      18 UNK        -0.5000 
    100 CA        -6.0729  -24.1309  -55.4945 C.3       18 UNK         0.1400 
    101 CB        -4.9589  -23.2883  -56.1565 C.3       18 UNK        -0.1800 
    102 C         -7.5088  -23.7185  -55.8897 C.2       18 UNK         0.5000 
    103 O         -8.4597  -24.3715  -55.4552 O.2       18 UNK        -0.5000 
    104 N         -7.6484  -22.6661  -56.7070 N.am      19 UNK        -0.5000 
    105 CA        -8.9280  -22.1588  -57.2060 C.3       19 UNK         0.1400 
    106 CB        -8.6612  -21.2111  -58.3857 C.3       19 UNK        -0.1800 
    107 C         -9.7821  -21.4522  -56.1347 C.2       19 UNK         0.5000 
    108 O        -11.0094  -21.4805  -56.2361 O.2       19 UNK        -0.5000 
    109 N         -9.1319  -20.8344  -55.1405 N.am      20 UNK        -0.5000 
    110 CA        -9.7623  -20.1114  -54.0358 C.3       20 UNK         0.1400 
    111 CB       -10.4715  -18.8295  -54.5225 C.3       20 UNK        -0.1800 
    112 C         -8.7016  -19.7861  -52.9793 C.2       20 UNK         0.5000 
    113 O         -8.8261  -20.2221  -51.8348 O.2       20 UNK        -0.5000 
    114 N         -7.6643  -19.0545  -53.4015 N.am      21 UNK        -0.5000 
    115 CA        -6.4631  -18.7313  -52.6398 C.3       21 UNK         0.1400 
    116 CB        -6.7876  -17.7500  -51.4949 C.3       21 UNK        -0.1800 
    117 C         -5.4379  -18.1051  -53.6068 C.2       21 UNK         0.5000 
    118 O         -5.8535  -17.5058  -54.6008 O.2       21 UNK        -0.5000 
    119 N         -4.1271  -18.1790  -53.3410 N.am      22 UNK        -0.5000 
    120 CA        -3.4754  -19.0063  -52.3093 C.3       22 UNK         0.1400 
    121 C         -3.2820  -20.4865  -52.7482 C.2       22 UNK         0.5000 
    122 N         -3.3400  -20.8126  -54.0329 N.am      22 UNK        -0.7600 
    123 O         -3.0900  -21.3536  -51.9060 O.2       22 UNK        -0.5000 
    124 C124       -2.1178  -18.4147  -51.8619 C.3       23 UNK        -0.0398 
    125 S125       -2.2427  -16.7100  -51.2139 S.3       23 UNK        -0.2404 
    126 C126       -1.1091  -16.7470  -49.7853 C.3       23 UNK        -0.0205 
    127 H127        4.1832   -9.5719  -46.6363 H         1 UNK         0.0600 
    128 H128        3.0266   -9.8599  -47.9392 H         1 UNK         0.0600 
    129 H129        4.4658   -8.8815  -48.2386 H         1 UNK         0.0600 
    130 H130        3.1919  -11.9370  -48.7296 H         1 UNK         0.3000 
    131 H131        5.6897  -13.0782  -49.5695 H         1 UNK         0.0600 
    132 H132        3.0602  -14.6252  -49.3763 H         1 UNK         0.0800 
    133 H133        3.2940  -13.4035  -50.5989 H         1 UNK         0.0800 
    134 H134        2.8007  -15.0833  -52.4832 H         1 UNK         0.0800 
    135 H135        3.7746  -16.4761  -52.8724 H         1 UNK         0.0800 
    136 H136        0.8477  -15.3615  -51.0915 H         1 UNK         0.1150 
    137 H137        0.0033  -19.1882  -49.3686 H         1 UNK         0.1150 
    138 H138        3.7896  -18.4803  -51.2466 H         1 UNK         0.1150 
    139 H139        1.4753  -21.0762  -50.0335 H         1 UNK         0.0800 
    140 H140        3.0084  -20.7742  -50.7824 H         1 UNK         0.0800 
    141 H141        1.3050  -19.4695  -47.4568 H         1 UNK         0.0800 
    142 H142        2.4886  -19.9084  -46.2808 H         1 UNK         0.0800 
    143 H143        1.8026  -22.3774  -46.6174 H         1 UNK         0.0600 
    144 H144        0.6112  -20.4229  -44.9645 H         1 UNK         0.3000 
    145 H145       -1.5876  -22.5947  -43.1534 H         1 UNK         0.0600 
    146 H146       -0.3479  -21.5346  -41.2823 H         1 UNK         0.0600 
    147 H147        0.6351  -22.7682  -42.0568 H         1 UNK         0.0600 
    148 H148        0.9529  -21.0691  -42.3759 H         1 UNK         0.0600 
    149 H149       -1.1535  -19.7934  -42.9607 H         1 UNK         0.3000 
    150 H150       -3.5647  -18.8133  -45.4545 H         1 UNK         0.0600 
    151 H151       -4.8147  -19.1975  -43.3331 H         1 UNK         0.0600 
    152 H152       -4.3780  -17.5055  -43.5169 H         1 UNK         0.0600 
    153 H153       -3.4764  -18.5334  -42.4056 H         1 UNK         0.0600 
    154 H154       -1.8664  -17.2320  -43.8322 H         1 UNK         0.3000 
    155 H155        0.9811  -17.2012  -46.0301 H         1 UNK         0.0600 
    156 H156       -1.0743  -15.0914  -45.1855 H         1 UNK         0.0600 
    157 H157       -0.5626  -15.4395  -46.8300 H         1 UNK         0.0600 
    158 H158        0.5817  -14.7600  -45.6842 H         1 UNK         0.0600 
    159 H159        0.5703  -16.0193  -43.4699 H         1 UNK         0.3000 
    160 H160        1.6445  -18.8180  -41.5017 H         1 UNK         0.0600 
    161 H161        2.9409  -16.0964  -42.0403 H         1 UNK         0.0600 
    162 H162        3.7348  -17.6605  -42.1695 H         1 UNK         0.0600 
    163 H163        3.1731  -17.0903  -40.6067 H         1 UNK         0.0600 
    164 H164        0.7060  -16.1304  -40.9541 H         1 UNK         0.3000 
    165 H165       -2.7085  -17.0368  -40.4963 H         1 UNK         0.0600 
    166 H166       -2.2964  -16.0888  -38.2422 H         1 UNK         0.0600 
    167 H167       -1.6201  -17.7062  -38.3481 H         1 UNK         0.0600 
    168 H168       -0.5566  -16.3068  -38.4350 H         1 UNK         0.0600 
    169 H169       -1.2583  -14.6020  -40.0873 H         1 UNK         0.3000 
    170 H170       -1.4003  -13.3801  -43.4187 H         1 UNK         0.0600 
    171 H171       -3.6848  -12.8794  -42.5371 H         1 UNK         0.0600 
    172 H172       -3.0078  -12.5143  -40.9545 H         1 UNK         0.0600 
    173 H173       -2.6111  -11.5032  -42.3445 H         1 UNK         0.0600 
    174 H174       -0.5446  -12.1611  -41.0030 H         1 UNK         0.3000 
    175 H175        1.8038  -11.7131  -40.9174 H         1 UNK         0.0600 
    176 H176        1.9560  -14.4399  -39.4816 H         1 UNK         0.0600 
    177 H177        2.5823  -12.9207  -38.8479 H         1 UNK         0.0600 
    178 H178        0.8546  -13.1336  -39.0571 H         1 UNK         0.0600 
    179 H179        3.2312  -13.8925  -42.1492 H         1 UNK         0.3000 
    180 H180        6.1930  -12.0895  -42.3226 H         1 UNK         0.0600 
    181 H181        6.0601  -14.5936  -40.5580 H         1 UNK         0.0600 
    182 H182        6.7699  -13.0534  -40.0898 H         1 UNK         0.0600 
    183 H183        7.4936  -13.9860  -41.3888 H         1 UNK         0.0600 
    184 H184        5.7408  -14.8073  -42.9912 H         1 UNK         0.3000 
    185 H185        5.8126  -15.0646  -45.3914 H         1 UNK         0.0600 
    186 H186        3.6084  -16.2911  -45.8990 H         1 UNK         0.0600 
    187 H187        4.0117  -16.2075  -44.1961 H         1 UNK         0.0600 
    188 H188        2.7894  -15.1276  -44.8575 H         1 UNK         0.0600 
    189 H189        3.8993  -13.1676  -46.6016 H         1 UNK         0.3000 
    190 H190       -1.1614  -20.3844  -47.1404 H         1 UNK         0.3000 
    191 H191       -1.8472  -21.4728  -49.6529 H         1 UNK         0.0600 
    192 H192       -3.6656  -20.2498  -47.5127 H         1 UNK         0.0600 
    193 H193       -4.0905  -20.4905  -49.2023 H         1 UNK         0.0600 
    194 H194       -2.8129  -19.3641  -48.7741 H         1 UNK         0.0600 
    195 H195       -2.7215  -22.5602  -46.3541 H         1 UNK         0.3000 
    196 H196       -4.4243  -24.7039  -47.1142 H         1 UNK         0.0600 
    197 H197       -4.0276  -25.5100  -44.7937 H         1 UNK         0.0600 
    198 H198       -4.3466  -23.7819  -44.8131 H         1 UNK         0.0600 
    199 H199       -2.7004  -24.3727  -44.6027 H         1 UNK         0.0600 
    200 H200       -0.8717  -24.6094  -46.5360 H         1 UNK         0.3000 
    201 H201       -0.3678  -27.3626  -47.0681 H         1 UNK         0.0600 
    202 H202        1.2354  -25.8918  -45.8764 H         1 UNK         0.0600 
    203 H203        1.4825  -24.9338  -47.3337 H         1 UNK         0.0600 
    204 H204        1.9973  -26.6145  -47.2857 H         1 UNK         0.0600 
    205 H205       -0.5244  -24.5213  -49.2126 H         1 UNK         0.3000 
    206 H206        0.1323  -25.9292  -51.6487 H         1 UNK         0.0600 
    207 H207        0.4999  -23.4821  -51.3396 H         1 UNK         0.0600 
    208 H208       -0.5636  -23.7859  -52.7054 H         1 UNK         0.0600 
    209 H209       -1.2365  -23.2305  -51.1806 H         1 UNK         0.0600 
    210 H210       -2.6137  -26.0914  -49.7216 H         1 UNK         0.3000 
    211 H211       -4.6078  -26.9763  -49.8446 H         1 UNK         0.0600 
    212 H212       -3.8533  -28.1294  -52.5777 H         1 UNK         0.0600 
    213 H213       -5.1254  -28.7006  -51.5086 H         1 UNK         0.0600 
    214 H214       -3.4459  -28.8564  -51.0234 H         1 UNK         0.0600 
    215 H215       -4.2778  -24.2827  -50.7047 H         1 UNK         0.3000 
    216 H216       -5.4391  -22.5360  -51.2570 H         1 UNK         0.0600 
    217 H217       -7.9105  -22.6553  -51.1911 H         1 UNK         0.0600 
    218 H218       -7.2071  -23.6404  -49.9198 H         1 UNK         0.0600 
    219 H219       -7.8627  -24.4008  -51.3709 H         1 UNK         0.0600 
    220 H220       -5.7848  -25.0744  -53.6232 H         1 UNK         0.3000 
    221 H221       -5.9499  -25.1606  -55.8324 H         1 UNK         0.0600 
    222 H222       -5.0284  -22.2323  -55.8952 H         1 UNK         0.0600 
    223 H223       -3.9736  -23.6400  -55.8501 H         1 UNK         0.0600 
    224 H224       -4.9997  -23.3668  -57.2436 H         1 UNK         0.0600 
    225 H225       -6.8178  -22.1803  -57.0121 H         1 UNK         0.3000 
    226 H226       -9.5065  -23.0070  -57.5785 H         1 UNK         0.0600 
    227 H227       -8.1312  -21.7212  -59.1903 H         1 UNK         0.0600 
    228 H228       -9.5959  -20.8336  -58.8027 H         1 UNK         0.0600 
    229 H229       -8.0654  -20.3490  -58.0831 H         1 UNK         0.0600 
    230 H230       -8.1262  -20.9358  -55.0797 H         1 UNK         0.3000 
    231 H231      -10.5021  -20.7672  -53.5720 H         1 UNK         0.0600 
    232 H232      -10.8368  -18.2421  -53.6791 H         1 UNK         0.0600 
    233 H233      -11.3349  -19.0606  -55.1457 H         1 UNK         0.0600 
    234 H234       -9.8041  -18.1919  -55.1030 H         1 UNK         0.0600 
    235 H235       -7.6411  -18.7150  -54.3552 H         1 UNK         0.3000 
    236 H236       -6.0771  -19.6655  -52.2317 H         1 UNK         0.0600 
    237 H237       -7.4482  -18.1991  -50.7538 H         1 UNK         0.0600 
    238 H238       -5.8827  -17.4419  -50.9699 H         1 UNK         0.0600 
    239 H239       -7.2702  -16.8466  -51.8697 H         1 UNK         0.0600 
    240 H240       -3.4917  -17.7005  -53.9612 H         1 UNK         0.3000 
    241 H241       -4.1018  -19.0269  -51.4175 H         1 UNK         0.0600 
    242 H242       -3.2215  -21.7769  -54.2946 H         1 UNK         0.3800 
    243 H243       -3.5098  -20.1158  -54.7397 H         1 UNK         0.3800 
    244 H244       -1.6907  -19.0534  -51.0888 H         1 UNK         0.0800 
    245 H245       -1.4031  -18.4140  -52.6868 H         1 UNK         0.0800 
    246 H246       -1.5285  -17.3825  -49.0047 H         1 UNK         0.0800 
    247 H247       -1.0467  -15.7453  -49.3585 H         1 UNK         0.0800 
@<TRIPOS>BOND
     1    1    2 1    
     2    1  127 1    
     3    1  128 1    
     4    1  129 1    
     5    2    3 2    
     6    2    4 am   BACKBONE|DICT|INTERRES
     7    4    5 1    
     8    4  130 1    
     9    5    6 1    
    10    5   65 1    
    11    5  131 1    
    12    6    7 1    
    13    6  132 1    
    14    6  133 1    
    15    7    8 1    
    16    8    9 1    
    17    8  134 1    
    18    8  135 1    
    19    9   10 ar   
    20    9   14 ar   
    21   10   11 ar   
    22   10  136 1    
    23   11   12 ar   
    24   11  126 1    
    25   12   13 ar   
    26   12  137 1    
    27   13   14 ar   
    28   13   15 1    
    29   14  138 1    
    30   15   16 1    
    31   15  139 1    
    32   15  140 1    
    33   16   17 1    
    34   17   18 1    
    35   17  141 1    
    36   17  142 1    
    37   18   19 1    
    38   18   67 1    
    39   18  143 1    
    40   19   20 am   BACKBONE|DICT|INTERRES
    41   19  144 1    
    42   20   21 2    
    43   20   22 1    
    44   22   23 1    
    45   22   24 1    
    46   22  145 1    
    47   23  146 1    
    48   23  147 1    
    49   23  148 1    
    50   24   25 am   BACKBONE|DICT|INTERRES
    51   24  149 1    
    52   25   26 2    
    53   25   27 1    
    54   27   28 1    
    55   27   29 1    
    56   27  150 1    
    57   28  151 1    
    58   28  152 1    
    59   28  153 1    
    60   29   30 am   BACKBONE|DICT|INTERRES
    61   29  154 1    
    62   30   31 2    
    63   30   32 1    
    64   32   33 1    
    65   32   34 1    
    66   32  155 1    
    67   33  156 1    
    68   33  157 1    
    69   33  158 1    
    70   34   35 am   BACKBONE|DICT|INTERRES
    71   34  159 1    
    72   35   36 2    
    73   35   37 1    
    74   37   38 1    
    75   37   39 1    
    76   37  160 1    
    77   38  161 1    
    78   38  162 1    
    79   38  163 1    
    80   39   40 am   BACKBONE|DICT|INTERRES
    81   39  164 1    
    82   40   41 2    
    83   40   42 1    
    84   42   43 1    
    85   42   44 1    
    86   42  165 1    
    87   43  166 1    
    88   43  167 1    
    89   43  168 1    
    90   44   45 am   BACKBONE|DICT|INTERRES
    91   44  169 1    
    92   45   46 2    
    93   45   47 1    
    94   47   48 1    
    95   47   49 1    
    96   47  170 1    
    97   48  171 1    
    98   48  172 1    
    99   48  173 1    
   100   49   50 am   BACKBONE|DICT|INTERRES
   101   49  174 1    
   102   50   51 2    
   103   50   52 1    
   104   52   53 1    
   105   52   54 1    
   106   52  175 1    
   107   53  176 1    
   108   53  177 1    
   109   53  178 1    
   110   54   55 am   BACKBONE|DICT|INTERRES
   111   54  179 1    
   112   55   56 2    
   113   55   57 1    
   114   57   58 1    
   115   57   59 1    
   116   57  180 1    
   117   58  181 1    
   118   58  182 1    
   119   58  183 1    
   120   59   60 am   BACKBONE|DICT|INTERRES
   121   59  184 1    
   122   60   61 2    
   123   60   62 1    
   124   62   63 1    
   125   62   64 1    
   126   62  185 1    
   127   63  186 1    
   128   63  187 1    
   129   63  188 1    
   130   64   65 am   BACKBONE|DICT|INTERRES
   131   64  189 1    
   132   65   66 2    
   133   67   68 2    
   134   67   69 am   BACKBONE|DICT|INTERRES
   135   69   70 1    
   136   69  190 1    
   137   70   71 1    
   138   70   72 1    
   139   70  191 1    
   140   71  192 1    
   141   71  193 1    
   142   71  194 1    
   143   72   73 2    
   144   72   74 am   BACKBONE|DICT|INTERRES
   145   74   75 1    
   146   74  195 1    
   147   75   76 1    
   148   75   77 1    
   149   75  196 1    
   150   76  197 1    
   151   76  198 1    
   152   76  199 1    
   153   77   78 2    
   154   77   79 am   BACKBONE|DICT|INTERRES
   155   79   80 1    
   156   79  200 1    
   157   80   81 1    
   158   80   82 1    
   159   80  201 1    
   160   81  202 1    
   161   81  203 1    
   162   81  204 1    
   163   82   83 2    
   164   82   84 am   BACKBONE|DICT|INTERRES
   165   84   85 1    
   166   84  205 1    
   167   85   86 1    
   168   85   87 1    
   169   85  206 1    
   170   86  207 1    
   171   86  208 1    
   172   86  209 1    
   173   87   88 2    
   174   87   89 am   BACKBONE|DICT|INTERRES
   175   89   90 1    
   176   89  210 1    
   177   90   91 1    
   178   90   92 1    
   179   90  211 1    
   180   91  212 1    
   181   91  213 1    
   182   91  214 1    
   183   92   93 2    
   184   92   94 am   BACKBONE|DICT|INTERRES
   185   94   95 1    
   186   94  215 1    
   187   95   96 1    
   188   95   97 1    
   189   95  216 1    
   190   96  217 1    
   191   96  218 1    
   192   96  219 1    
   193   97   98 2    
   194   97   99 am   BACKBONE|DICT|INTERRES
   195   99  100 1    
   196   99  220 1    
   197  100  101 1    
   198  100  102 1    
   199  100  221 1    
   200  101  222 1    
   201  101  223 1    
   202  101  224 1    
   203  102  103 2    
   204  102  104 am   BACKBONE|DICT|INTERRES
   205  104  105 1    
   206  104  225 1    
   207  105  106 1    
   208  105  107 1    
   209  105  226 1    
   210  106  227 1    
   211  106  228 1    
   212  106  229 1    
   213  107  108 2    
   214  107  109 am   BACKBONE|DICT|INTERRES
   215  109  110 1    
   216  109  230 1    
   217  110  111 1    
   218  110  112 1    
   219  110  231 1    
   220  111  232 1    
   221  111  233 1    
   222  111  234 1    
   223  112  113 2    
   224  112  114 am   BACKBONE|DICT|INTERRES
   225  114  115 1    
   226  114  235 1    
   227  115  116 1    
   228  115  117 1    
   229  115  236 1    
   230  116  237 1    
   231  116  238 1    
   232  116  239 1    
   233  117  118 2    
   234  117  119 am   BACKBONE|DICT|INTERRES
   235  119  120 1    
   236  119  240 1    
   237  120  121 1    
   238  120  124 1    
   239  120  241 1    
   240  121  122 am   BACKBONE|DICT|INTERRES
   241  121  123 2    
   242  122  242 1    
   243  122  243 1    
   244  124  125 1    
   245  124  244 1    
   246  124  245 1    
   247  125  126 1    
   248  126  246 1    
   249  126  247 1    
@<TRIPOS>SUBSTRUCTURE
     1 UNK         1 GROUP             0       ****    0 ROOT    
