@<TRIPOS>MOLECULE
3R540
247   249    1
SMALL
USER_CHARGES


@<TRIPOS>ATOM
      1 CA          2.6016  -15.0589  -50.8027 C.3       0 UNK        -0.1800 
      2 C           2.3779  -14.9200  -49.3043 C.2       0 UNK         0.5000 
      3 O           3.0703  -15.5659  -48.5169 O.2       0 UNK        -0.5000 
      4 N           1.4106  -14.0866  -48.9023 N.am      1 UNK        -0.5000 
      5 CA          1.0103  -13.8421  -47.5115 C.3       1 UNK         0.1400 
      6 C6         -0.4450  -13.3041  -47.4060 C.3       23 UNK        -0.0398 
      7 S7         -1.6851  -14.1746  -48.4329 S.3       23 UNK        -0.2404 
      8 C8         -1.7880  -15.8311  -47.6849 C.3       23 UNK        -0.0205 
      9 C9         -1.3126  -16.8989  -48.6588 C.ar      23 UNK        -0.0193 
     10 C10        -2.1700  -17.3763  -49.6548 C.ar      23 UNK        -0.1150 
     11 C11        -1.7338  -18.3411  -50.5691 C.ar      23 UNK        -0.0193 
     12 C12        -0.4259  -18.8292  -50.4793 C.ar      23 UNK        -0.1150 
     13 C13         0.4447  -18.3507  -49.4954 C.ar      23 UNK        -0.0193 
     14 C14        -0.0099  -17.3955  -48.5817 C.ar      23 UNK        -0.1150 
     15 C15         1.8948  -18.8150  -49.4556 C.3       23 UNK        -0.0205 
     16 S16         2.0989  -20.4842  -48.7657 S.3       23 UNK        -0.2404 
     17 C17         1.5314  -20.2608  -47.0451 C.3       23 UNK        -0.0398 
     18 CA          0.5443  -21.3643  -46.6064 C.3       11 UNK         0.1400 
     19 N           0.3784  -21.3965  -45.1543 N.am      11 UNK        -0.5000 
     20 C          -0.2022  -22.3983  -44.4814 C.2       10 UNK         0.5000 
     21 O          -0.6318  -23.4220  -45.0139 O.2       10 UNK        -0.5000 
     22 CA         -0.3739  -22.1998  -42.9655 C.3       10 UNK         0.1400 
     23 CB          0.9448  -22.4695  -42.2259 C.3       10 UNK        -0.1800 
     24 N          -0.8684  -20.8633  -42.6296 N.am      10 UNK        -0.5000 
     25 C          -2.0652  -20.3891  -43.0059 C.2       9 UNK         0.5000 
     26 O          -2.8891  -21.0448  -43.6428 O.2       9 UNK        -0.5000 
     27 CA         -2.3873  -18.9298  -42.6432 C.3       9 UNK         0.1400 
     28 CB         -2.8363  -18.8243  -41.1784 C.3       9 UNK        -0.1800 
     29 N          -1.2679  -18.0197  -42.8894 N.am      9 UNK        -0.5000 
     30 C          -0.7475  -17.7649  -44.0989 C.2       8 UNK         0.5000 
     31 O          -1.1677  -18.2584  -45.1431 O.2       8 UNK        -0.5000 
     32 CA          0.4867  -16.8483  -44.1514 C.3       8 UNK         0.1400 
     33 CB          0.0975  -15.3745  -43.9582 C.3       8 UNK        -0.1800 
     34 N           1.4960  -17.2193  -43.1635 N.am      8 UNK        -0.5000 
     35 C           2.1165  -18.4057  -43.1053 C.2       7 UNK         0.5000 
     36 O           1.9430  -19.3150  -43.9163 O.2       7 UNK        -0.5000 
     37 CA          3.0516  -18.6278  -41.9065 C.3       7 UNK         0.1400 
     38 CB          4.4128  -17.9580  -42.1440 C.3       7 UNK        -0.1800 
     39 N           2.4652  -18.1296  -40.6623 N.am      7 UNK        -0.5000 
     40 C           1.4063  -18.6813  -40.0529 C.2       6 UNK         0.5000 
     41 O           0.8205  -19.6817  -40.4668 O.2       6 UNK        -0.5000 
     42 CA          0.8942  -17.9692  -38.7884 C.3       6 UNK         0.1400 
     43 CB          1.7637  -18.3231  -37.5725 C.3       6 UNK        -0.1800 
     44 N           0.8419  -16.5147  -38.9448 N.am      6 UNK        -0.5000 
     45 C           0.0155  -15.8796  -39.7870 C.2       5 UNK         0.5000 
     46 O          -0.7915  -16.4526  -40.5167 O.2       5 UNK        -0.5000 
     47 CA          0.1341  -14.3480  -39.8562 C.3       5 UNK         0.1400 
     48 CB         -0.6821  -13.6924  -38.7323 C.3       5 UNK        -0.1800 
     49 N           1.5095  -13.8460  -39.8137 N.am      5 UNK        -0.5000 
     50 C           2.4825  -14.1757  -40.6730 C.2       4 UNK         0.5000 
     51 O           2.3738  -15.0421  -41.5423 O.2       4 UNK        -0.5000 
     52 CA          3.7872  -13.3706  -40.5684 C.3       4 UNK         0.1400 
     53 CB          5.0188  -14.2899  -40.5585 C.3       4 UNK        -0.1800 
     54 N           3.8932  -12.4424  -41.6902 N.am      4 UNK        -0.5000 
     55 C           3.1260  -11.3655  -41.8894 C.2       3 UNK         0.5000 
     56 O           2.2725  -10.9840  -41.0872 O.2       3 UNK        -0.5000 
     57 CA          3.3382  -10.5673  -43.1915 C.3       3 UNK         0.1400 
     58 CB          4.4849   -9.5518  -43.0280 C.3       3 UNK        -0.1800 
     59 N           3.5111  -11.3618  -44.4173 N.am      3 UNK        -0.5000 
     60 C           4.4997  -12.1916  -44.7736 C.2       2 UNK         0.5000 
     61 O           5.4134  -12.5284  -44.0180 O.2       2 UNK        -0.5000 
     62 CA          4.4739  -12.7047  -46.2317 C.3       2 UNK         0.1400 
     63 CB          5.6803  -13.6034  -46.5602 C.3       2 UNK        -0.1800 
     64 N           3.2563  -13.4214  -46.6207 N.am      2 UNK        -0.5000 
     65 C           2.0360  -12.9088  -46.8217 C.2       1 UNK         0.5000 
     66 O           1.7374  -11.7437  -46.5521 O.2       1 UNK        -0.5000 
     67 C          -0.8118  -21.2873  -47.3399 C.2       11 UNK         0.5000 
     68 O          -0.9951  -22.0006  -48.3233 O.2       11 UNK        -0.5000 
     69 N          -1.7588  -20.4906  -46.8233 N.am      12 UNK        -0.5000 
     70 CA         -3.1231  -20.4007  -47.3453 C.3       12 UNK         0.1400 
     71 CB         -3.8727  -19.2478  -46.6630 C.3       12 UNK        -0.1800 
     72 C          -3.9069  -21.7192  -47.2055 C.2       12 UNK         0.5000 
     73 O          -4.6182  -22.1009  -48.1343 O.2       12 UNK        -0.5000 
     74 N          -3.7397  -22.4098  -46.0680 N.am      13 UNK        -0.5000 
     75 CA         -4.3261  -23.7249  -45.7995 C.3       13 UNK         0.1400 
     76 CB         -4.1398  -24.0799  -44.3166 C.3       13 UNK        -0.1800 
     77 C          -3.7508  -24.8304  -46.7054 C.2       13 UNK         0.5000 
     78 O          -4.5042  -25.6825  -47.1773 O.2       13 UNK        -0.5000 
     79 N          -2.4353  -24.7804  -46.9563 N.am      14 UNK        -0.5000 
     80 CA         -1.7291  -25.6619  -47.8906 C.3       14 UNK         0.1400 
     81 CB         -0.2249  -25.5999  -47.5819 C.3       14 UNK        -0.1800 
     82 C          -1.9815  -25.3118  -49.3726 C.2       14 UNK         0.5000 
     83 O          -1.6810  -26.1257  -50.2467 O.2       14 UNK        -0.5000 
     84 N          -2.4803  -24.0960  -49.6272 N.am      15 UNK        -0.5000 
     85 CA         -2.7256  -23.4129  -50.9000 C.3       15 UNK         0.1400 
     86 CB         -3.7292  -24.1790  -51.7824 C.3       15 UNK        -0.1800 
     87 C          -1.4500  -23.0457  -51.6821 C.2       15 UNK         0.5000 
     88 O          -1.3885  -21.9496  -52.2365 O.2       15 UNK        -0.5000 
     89 N          -0.4713  -23.9635  -51.7395 N.am      16 UNK        -0.5000 
     90 CA          0.8134  -23.8598  -52.4518 C.3       16 UNK         0.1400 
     91 CB          1.7128  -22.8002  -51.7829 C.3       16 UNK        -0.1800 
     92 C           0.6603  -23.6352  -53.9760 C.2       16 UNK         0.5000 
     93 O           1.5683  -23.1154  -54.6268 O.2       16 UNK        -0.5000 
     94 N          -0.4987  -24.0378  -54.5028 N.am      17 UNK        -0.5000 
     95 CA         -1.0491  -23.8265  -55.8348 C.3       17 UNK         0.1400 
     96 CB         -1.1636  -22.3166  -56.1510 C.3       17 UNK        -0.1800 
     97 C          -2.4304  -24.5097  -55.8254 C.2       17 UNK         0.5000 
     98 O          -2.7142  -25.3025  -54.9205 O.2       17 UNK        -0.5000 
     99 N          -3.2853  -24.1849  -56.8021 N.am      18 UNK        -0.5000 
    100 CA        -4.6955  -24.5707  -56.7988 C.3       18 UNK         0.1400 
    101 CB        -5.3127  -24.2477  -58.1681 C.3       18 UNK        -0.1800 
    102 C         -5.4591  -23.8360  -55.6816 C.2       18 UNK         0.5000 
    103 O         -5.2693  -22.6295  -55.5034 O.2       18 UNK        -0.5000 
    104 N         -6.3446  -24.5542  -54.9802 N.am      19 UNK        -0.5000 
    105 CA        -7.1895  -24.0033  -53.9156 C.3       19 UNK         0.1400 
    106 CB        -7.9508  -25.1435  -53.2246 C.3       19 UNK        -0.1800 
    107 C         -8.1638  -22.9230  -54.4223 C.2       19 UNK         0.5000 
    108 O         -8.4290  -21.9588  -53.7057 O.2       19 UNK        -0.5000 
    109 N         -8.6294  -23.0756  -55.6699 N.am      20 UNK        -0.5000 
    110 CA        -9.4684  -22.1060  -56.3750 C.3       20 UNK         0.1400 
    111 CB       -10.0351  -22.7666  -57.6411 C.3       20 UNK        -0.1800 
    112 C         -8.7279  -20.8019  -56.7345 C.2       20 UNK         0.5000 
    113 O         -9.3730  -19.7589  -56.8466 O.2       20 UNK        -0.5000 
    114 N         -7.3999  -20.8766  -56.9078 N.am      21 UNK        -0.5000 
    115 CA        -6.5408  -19.7195  -57.1575 C.3       21 UNK         0.1400 
    116 CB        -5.2774  -20.1591  -57.9153 C.3       21 UNK        -0.1800 
    117 C         -6.1778  -19.0035  -55.8460 C.2       21 UNK         0.5000 
    118 O         -6.1983  -17.7727  -55.8046 O.2       21 UNK        -0.5000 
    119 N         -5.8619  -19.7829  -54.8023 N.am      22 UNK        -0.5000 
    120 CA        -5.5713  -19.2790  -53.4521 C.3       22 UNK         0.1400 
    121 C         -6.8188  -18.6921  -52.7280 C.2       22 UNK         0.5000 
    122 N         -7.9816  -19.3267  -52.8049 N.am      22 UNK        -0.7600 
    123 O         -6.7392  -17.6330  -52.1116 O.2       22 UNK        -0.5000 
    124 C124       -4.8345  -20.3501  -52.6072 C.3       23 UNK        -0.0398 
    125 S125       -4.1048  -19.7129  -51.0584 S.3       23 UNK        -0.2404 
    126 C126       -2.6544  -18.8103  -51.6878 C.3       23 UNK        -0.0205 
    127 H127        3.6299  -14.7998  -51.0546 H         1 UNK         0.0600 
    128 H128        1.9362  -14.4107  -51.3733 H         1 UNK         0.0600 
    129 H129        2.4211  -16.0882  -51.1125 H         1 UNK         0.0600 
    130 H130        0.8758  -13.5831  -49.5956 H         1 UNK         0.3000 
    131 H131        1.0397  -14.7936  -46.9777 H         1 UNK         0.0600 
    132 H132       -0.7793  -13.3153  -46.3677 H         1 UNK         0.0800 
    133 H133       -0.4855  -12.2591  -47.7184 H         1 UNK         0.0800 
    134 H134       -2.8235  -16.0253  -47.4035 H         1 UNK         0.0800 
    135 H135       -1.2103  -15.8761  -46.7631 H         1 UNK         0.0800 
    136 H136       -3.1756  -16.9866  -49.7282 H         1 UNK         0.1150 
    137 H137       -0.0764  -19.5673  -51.1881 H         1 UNK         0.1150 
    138 H138        0.6610  -17.0199  -47.8232 H         1 UNK         0.1150 
    139 H139        2.5067  -18.1222  -48.8774 H         1 UNK         0.0800 
    140 H140        2.3009  -18.8032  -50.4678 H         1 UNK         0.0800 
    141 H141        1.0968  -19.2731  -46.8923 H         1 UNK         0.0800 
    142 H142        2.4213  -20.2921  -46.4153 H         1 UNK         0.0800 
    143 H143        0.9934  -22.3220  -46.8795 H         1 UNK         0.0600 
    144 H144        0.7377  -20.5968  -44.6388 H         1 UNK         0.3000 
    145 H145       -1.1118  -22.9259  -42.6181 H         1 UNK         0.0600 
    146 H146        0.8061  -22.4232  -41.1457 H         1 UNK         0.0600 
    147 H147        1.3297  -23.4623  -42.4621 H         1 UNK         0.0600 
    148 H148        1.7140  -21.7451  -42.4951 H         1 UNK         0.0600 
    149 H149       -0.2568  -20.2778  -42.0696 H         1 UNK         0.3000 
    150 H150       -3.2187  -18.6091  -43.2742 H         1 UNK         0.0600 
    151 H151       -3.6671  -19.5006  -40.9733 H         1 UNK         0.0600 
    152 H152       -3.1741  -17.8151  -40.9426 H         1 UNK         0.0600 
    153 H153       -2.0282  -19.0762  -40.4906 H         1 UNK         0.0600 
    154 H154       -0.8887  -17.5429  -42.0755 H         1 UNK         0.3000 
    155 H155        0.9357  -16.9552  -45.1411 H         1 UNK         0.0600 
    156 H156       -0.2798  -15.1894  -42.9530 H         1 UNK         0.0600 
    157 H157        0.9523  -14.7169  -44.1182 H         1 UNK         0.0600 
    158 H158       -0.6841  -15.0745  -44.6548 H         1 UNK         0.0600 
    159 H159        1.7340  -16.5121  -42.4712 H         1 UNK         0.3000 
    160 H160        3.2145  -19.7024  -41.8004 H         1 UNK         0.0600 
    161 H161        4.3120  -16.8828  -42.2908 H         1 UNK         0.0600 
    162 H162        4.8949  -18.3645  -43.0339 H         1 UNK         0.0600 
    163 H163        5.0878  -18.1220  -41.3040 H         1 UNK         0.0600 
    164 H164        2.8451  -17.2710  -40.2923 H         1 UNK         0.3000 
    165 H165       -0.1202  -18.3253  -38.5957 H         1 UNK         0.0600 
    166 H166        1.3574  -17.8900  -36.6584 H         1 UNK         0.0600 
    167 H167        1.8087  -19.4033  -37.4270 H         1 UNK         0.0600 
    168 H168        2.7872  -17.9644  -37.6882 H         1 UNK         0.0600 
    169 H169        1.4805  -15.9662  -38.3880 H         1 UNK         0.3000 
    170 H170       -0.2938  -14.0318  -40.8094 H         1 UNK         0.0600 
    171 H171       -1.7180  -14.0341  -38.7511 H         1 UNK         0.0600 
    172 H172       -0.2759  -13.9287  -37.7481 H         1 UNK         0.0600 
    173 H173       -0.6981  -12.6074  -38.8379 H         1 UNK         0.0600 
    174 H174        1.6864  -13.0997  -39.1567 H         1 UNK         0.3000 
    175 H175        3.7824  -12.7985  -39.6383 H         1 UNK         0.0600 
    176 H176        5.1417  -14.8092  -41.5092 H         1 UNK         0.0600 
    177 H177        5.9299  -13.7206  -40.3736 H         1 UNK         0.0600 
    178 H178        4.9411  -15.0448  -39.7752 H         1 UNK         0.0600 
    179 H179        4.5594  -12.6759  -42.4230 H         1 UNK         0.3000 
    180 H180        2.4224   -9.9957  -43.3502 H         1 UNK         0.0600 
    181 H181        5.4448  -10.0435  -42.8672 H         1 UNK         0.0600 
    182 H182        4.3073   -8.8982  -42.1730 H         1 UNK         0.0600 
    183 H183        4.5769   -8.9160  -43.9086 H         1 UNK         0.0600 
    184 H184        2.7806  -11.2326  -45.1145 H         1 UNK         0.3000 
    185 H185        4.5489  -11.8200  -46.8671 H         1 UNK         0.0600 
    186 H186        6.6215  -13.0923  -46.3530 H         1 UNK         0.0600 
    187 H187        5.6669  -14.5225  -45.9731 H         1 UNK         0.0600 
    188 H188        5.6906  -13.8804  -47.6147 H         1 UNK         0.0600 
    189 H189        3.3992  -14.3725  -46.9460 H         1 UNK         0.3000 
    190 H190       -1.5287  -19.8768  -46.0462 H         1 UNK         0.3000 
    191 H191       -3.0461  -20.1703  -48.4082 H         1 UNK         0.0600 
    192 H192       -3.9628  -19.4045  -45.5882 H         1 UNK         0.0600 
    193 H193       -4.8797  -19.1441  -47.0684 H         1 UNK         0.0600 
    194 H194       -3.3604  -18.3001  -46.8211 H         1 UNK         0.0600 
    195 H195       -3.1887  -21.9956  -45.3213 H         1 UNK         0.3000 
    196 H196       -5.3978  -23.6590  -45.9983 H         1 UNK         0.0600 
    197 H197       -4.5858  -25.0485  -44.0875 H         1 UNK         0.0600 
    198 H198       -4.6170  -23.3413  -43.6724 H         1 UNK         0.0600 
    199 H199       -3.0859  -24.1300  -44.0425 H         1 UNK         0.0600 
    200 H200       -1.8729  -24.0866  -46.4729 H         1 UNK         0.3000 
    201 H201       -2.0707  -26.6864  -47.7301 H         1 UNK         0.0600 
    202 H202       -0.0212  -25.8887  -46.5506 H         1 UNK         0.0600 
    203 H203        0.1733  -24.5958  -47.7329 H         1 UNK         0.0600 
    204 H204        0.3368  -26.2769  -48.2267 H         1 UNK         0.0600 
    205 H205       -2.5826  -23.4896  -48.8229 H         1 UNK         0.3000 
    206 H206       -3.1945  -22.4691  -50.6219 H         1 UNK         0.0600 
    207 H207       -4.6679  -24.3482  -51.2549 H         1 UNK         0.0600 
    208 H208       -3.9605  -23.6129  -52.6859 H         1 UNK         0.0600 
    209 H209       -3.3413  -25.1471  -52.0994 H         1 UNK         0.0600 
    210 H210       -0.6540  -24.8485  -51.2752 H         1 UNK         0.3000 
    211 H211        1.3024  -24.8279  -52.3375 H         1 UNK         0.0600 
    212 H212        1.3120  -21.7933  -51.9042 H         1 UNK         0.0600 
    213 H213        2.7158  -22.8070  -52.2107 H         1 UNK         0.0600 
    214 H214        1.8154  -22.9906  -50.7146 H         1 UNK         0.0600 
    215 H215       -1.1567  -24.5120  -53.8945 H         1 UNK         0.3000 
    216 H216       -0.4129  -24.3222  -56.5696 H         1 UNK         0.0600 
    217 H217       -1.5494  -22.1452  -57.1561 H         1 UNK         0.0600 
    218 H218       -0.1963  -21.8178  -56.1042 H         1 UNK         0.0600 
    219 H219       -1.8304  -21.8123  -55.4495 H         1 UNK         0.0600 
    220 H220       -3.0045  -23.5064  -57.4940 H         1 UNK         0.3000 
    221 H221       -4.7625  -25.6480  -56.6323 H         1 UNK         0.0600 
    222 H222       -5.2563  -23.1830  -58.3968 H         1 UNK         0.0600 
    223 H223       -4.8037  -24.7882  -58.9663 H         1 UNK         0.0600 
    224 H224       -6.3643  -24.5353  -58.2019 H         1 UNK         0.0600 
    225 H225       -6.4489  -25.5395  -55.1764 H         1 UNK         0.3000 
    226 H226       -6.5357  -23.5339  -53.1776 H         1 UNK         0.0600 
    227 H227       -7.2631  -25.8686  -52.7888 H         1 UNK         0.0600 
    228 H228       -8.5740  -24.7617  -52.4147 H         1 UNK         0.0600 
    229 H229       -8.6032  -25.6731  -53.9199 H         1 UNK         0.0600 
    230 H230       -8.3617  -23.9023  -56.1831 H         1 UNK         0.3000 
    231 H231      -10.3037  -21.8416  -55.7229 H         1 UNK         0.0600 
    232 H232      -10.6894  -22.0802  -58.1804 H         1 UNK         0.0600 
    233 H233      -10.6253  -23.6497  -57.3953 H         1 UNK         0.0600 
    234 H234       -9.2425  -23.0708  -58.3259 H         1 UNK         0.0600 
    235 H235       -6.9337  -21.7577  -56.7448 H         1 UNK         0.3000 
    236 H236       -7.0752  -19.0090  -57.7920 H         1 UNK         0.0600 
    237 H237       -5.5323  -20.6469  -58.8560 H         1 UNK         0.0600 
    238 H238       -4.6522  -19.2983  -58.1555 H         1 UNK         0.0600 
    239 H239       -4.6677  -20.8494  -57.3325 H         1 UNK         0.0600 
    240 H240       -5.8242  -20.7876  -54.9368 H         1 UNK         0.3000 
    241 H241       -4.8772  -18.4477  -53.5859 H         1 UNK         0.0600 
    242 H242       -8.0686  -20.2329  -53.2608 H         1 UNK         0.3800 
    243 H243       -8.7853  -18.9313  -52.3448 H         1 UNK         0.3800 
    244 H244       -4.0324  -20.8033  -53.1925 H         1 UNK         0.0800 
    245 H245       -5.5138  -21.1665  -52.3565 H         1 UNK         0.0800 
    246 H246       -2.9882  -17.9394  -52.2525 H         1 UNK         0.0800 
    247 H247       -2.1105  -19.4419  -52.3907 H         1 UNK         0.0800 
@<TRIPOS>BOND
     1    1    2 1    
     2    1  127 1    
     3    1  128 1    
     4    1  129 1    
     5    2    3 2    
     6    2    4 am   BACKBONE|DICT|INTERRES
     7    4    5 1    
     8    4  130 1    
     9    5    6 1    
    10    5   65 1    
    11    5  131 1    
    12    6    7 1    
    13    6  132 1    
    14    6  133 1    
    15    7    8 1    
    16    8    9 1    
    17    8  134 1    
    18    8  135 1    
    19    9   10 ar   
    20    9   14 ar   
    21   10   11 ar   
    22   10  136 1    
    23   11   12 ar   
    24   11  126 1    
    25   12   13 ar   
    26   12  137 1    
    27   13   14 ar   
    28   13   15 1    
    29   14  138 1    
    30   15   16 1    
    31   15  139 1    
    32   15  140 1    
    33   16   17 1    
    34   17   18 1    
    35   17  141 1    
    36   17  142 1    
    37   18   19 1    
    38   18   67 1    
    39   18  143 1    
    40   19   20 am   BACKBONE|DICT|INTERRES
    41   19  144 1    
    42   20   21 2    
    43   20   22 1    
    44   22   23 1    
    45   22   24 1    
    46   22  145 1    
    47   23  146 1    
    48   23  147 1    
    49   23  148 1    
    50   24   25 am   BACKBONE|DICT|INTERRES
    51   24  149 1    
    52   25   26 2    
    53   25   27 1    
    54   27   28 1    
    55   27   29 1    
    56   27  150 1    
    57   28  151 1    
    58   28  152 1    
    59   28  153 1    
    60   29   30 am   BACKBONE|DICT|INTERRES
    61   29  154 1    
    62   30   31 2    
    63   30   32 1    
    64   32   33 1    
    65   32   34 1    
    66   32  155 1    
    67   33  156 1    
    68   33  157 1    
    69   33  158 1    
    70   34   35 am   BACKBONE|DICT|INTERRES
    71   34  159 1    
    72   35   36 2    
    73   35   37 1    
    74   37   38 1    
    75   37   39 1    
    76   37  160 1    
    77   38  161 1    
    78   38  162 1    
    79   38  163 1    
    80   39   40 am   BACKBONE|DICT|INTERRES
    81   39  164 1    
    82   40   41 2    
    83   40   42 1    
    84   42   43 1    
    85   42   44 1    
    86   42  165 1    
    87   43  166 1    
    88   43  167 1    
    89   43  168 1    
    90   44   45 am   BACKBONE|DICT|INTERRES
    91   44  169 1    
    92   45   46 2    
    93   45   47 1    
    94   47   48 1    
    95   47   49 1    
    96   47  170 1    
    97   48  171 1    
    98   48  172 1    
    99   48  173 1    
   100   49   50 am   BACKBONE|DICT|INTERRES
   101   49  174 1    
   102   50   51 2    
   103   50   52 1    
   104   52   53 1    
   105   52   54 1    
   106   52  175 1    
   107   53  176 1    
   108   53  177 1    
   109   53  178 1    
   110   54   55 am   BACKBONE|DICT|INTERRES
   111   54  179 1    
   112   55   56 2    
   113   55   57 1    
   114   57   58 1    
   115   57   59 1    
   116   57  180 1    
   117   58  181 1    
   118   58  182 1    
   119   58  183 1    
   120   59   60 am   BACKBONE|DICT|INTERRES
   121   59  184 1    
   122   60   61 2    
   123   60   62 1    
   124   62   63 1    
   125   62   64 1    
   126   62  185 1    
   127   63  186 1    
   128   63  187 1    
   129   63  188 1    
   130   64   65 am   BACKBONE|DICT|INTERRES
   131   64  189 1    
   132   65   66 2    
   133   67   68 2    
   134   67   69 am   BACKBONE|DICT|INTERRES
   135   69   70 1    
   136   69  190 1    
   137   70   71 1    
   138   70   72 1    
   139   70  191 1    
   140   71  192 1    
   141   71  193 1    
   142   71  194 1    
   143   72   73 2    
   144   72   74 am   BACKBONE|DICT|INTERRES
   145   74   75 1    
   146   74  195 1    
   147   75   76 1    
   148   75   77 1    
   149   75  196 1    
   150   76  197 1    
   151   76  198 1    
   152   76  199 1    
   153   77   78 2    
   154   77   79 am   BACKBONE|DICT|INTERRES
   155   79   80 1    
   156   79  200 1    
   157   80   81 1    
   158   80   82 1    
   159   80  201 1    
   160   81  202 1    
   161   81  203 1    
   162   81  204 1    
   163   82   83 2    
   164   82   84 am   BACKBONE|DICT|INTERRES
   165   84   85 1    
   166   84  205 1    
   167   85   86 1    
   168   85   87 1    
   169   85  206 1    
   170   86  207 1    
   171   86  208 1    
   172   86  209 1    
   173   87   88 2    
   174   87   89 am   BACKBONE|DICT|INTERRES
   175   89   90 1    
   176   89  210 1    
   177   90   91 1    
   178   90   92 1    
   179   90  211 1    
   180   91  212 1    
   181   91  213 1    
   182   91  214 1    
   183   92   93 2    
   184   92   94 am   BACKBONE|DICT|INTERRES
   185   94   95 1    
   186   94  215 1    
   187   95   96 1    
   188   95   97 1    
   189   95  216 1    
   190   96  217 1    
   191   96  218 1    
   192   96  219 1    
   193   97   98 2    
   194   97   99 am   BACKBONE|DICT|INTERRES
   195   99  100 1    
   196   99  220 1    
   197  100  101 1    
   198  100  102 1    
   199  100  221 1    
   200  101  222 1    
   201  101  223 1    
   202  101  224 1    
   203  102  103 2    
   204  102  104 am   BACKBONE|DICT|INTERRES
   205  104  105 1    
   206  104  225 1    
   207  105  106 1    
   208  105  107 1    
   209  105  226 1    
   210  106  227 1    
   211  106  228 1    
   212  106  229 1    
   213  107  108 2    
   214  107  109 am   BACKBONE|DICT|INTERRES
   215  109  110 1    
   216  109  230 1    
   217  110  111 1    
   218  110  112 1    
   219  110  231 1    
   220  111  232 1    
   221  111  233 1    
   222  111  234 1    
   223  112  113 2    
   224  112  114 am   BACKBONE|DICT|INTERRES
   225  114  115 1    
   226  114  235 1    
   227  115  116 1    
   228  115  117 1    
   229  115  236 1    
   230  116  237 1    
   231  116  238 1    
   232  116  239 1    
   233  117  118 2    
   234  117  119 am   BACKBONE|DICT|INTERRES
   235  119  120 1    
   236  119  240 1    
   237  120  121 1    
   238  120  124 1    
   239  120  241 1    
   240  121  122 am   BACKBONE|DICT|INTERRES
   241  121  123 2    
   242  122  242 1    
   243  122  243 1    
   244  124  125 1    
   245  124  244 1    
   246  124  245 1    
   247  125  126 1    
   248  126  246 1    
   249  126  247 1    
@<TRIPOS>SUBSTRUCTURE
     1 UNK         1 GROUP             0       ****    0 ROOT    
