@<TRIPOS>MOLECULE
3R540
247   249    1
SMALL
USER_CHARGES


@<TRIPOS>ATOM
      1 CA          3.0045  -16.2090  -50.3212 C.3       0 UNK        -0.1800 
      2 C           2.5314  -15.7315  -48.9563 C.2       0 UNK         0.5000 
      3 O           3.3092  -15.7336  -48.0021 O.2       0 UNK        -0.5000 
      4 N           1.2671  -15.3025  -48.8627 N.am      1 UNK        -0.5000 
      5 CA          0.6059  -14.7625  -47.6692 C.3       1 UNK         0.1400 
      6 C6         -0.9418  -14.8847  -47.7611 C.3       23 UNK        -0.0398 
      7 S7         -1.6751  -14.2616  -49.3237 S.3       23 UNK        -0.2404 
      8 C8         -2.4709  -15.7461  -50.0208 C.3       23 UNK        -0.0205 
      9 C9         -1.4897  -16.6303  -50.7775 C.ar      23 UNK        -0.0193 
     10 C10        -1.3989  -16.5603  -52.1698 C.ar      23 UNK        -0.1150 
     11 C11        -0.5386  -17.4075  -52.8755 C.ar      23 UNK        -0.0193 
     12 C12         0.2798  -18.2898  -52.1574 C.ar      23 UNK        -0.1150 
     13 C13         0.1983  -18.3833  -50.7661 C.ar      23 UNK        -0.0193 
     14 C14        -0.7010  -17.5513  -50.0883 C.ar      23 UNK        -0.1150 
     15 C15         1.0857  -19.4112  -50.0587 C.3       23 UNK        -0.0205 
     16 S16         1.1744  -19.2792  -48.2399 S.3       23 UNK        -0.2404 
     17 C17        -0.4468  -19.9609  -47.7508 C.3       23 UNK        -0.0398 
     18 CA         -0.3227  -21.3922  -47.1922 C.3       11 UNK         0.1400 
     19 N           0.4170  -21.4366  -45.9264 N.am      11 UNK        -0.5000 
     20 C           0.8281  -22.5589  -45.3209 C.2       10 UNK         0.5000 
     21 O           0.6080  -23.6887  -45.7574 O.2       10 UNK        -0.5000 
     22 CA          1.5479  -22.3954  -43.9721 C.3       10 UNK         0.1400 
     23 CB          2.9776  -21.8671  -44.1629 C.3       10 UNK        -0.1800 
     24 N           0.8018  -21.5215  -43.0675 N.am      10 UNK        -0.5000 
     25 C          -0.3932  -21.8333  -42.5455 C.2       9 UNK         0.5000 
     26 O          -0.9402  -22.9249  -42.7042 O.2       9 UNK        -0.5000 
     27 CA         -1.1154  -20.7425  -41.7338 C.3       9 UNK         0.1400 
     28 CB         -0.6663  -20.7801  -40.2657 C.3       9 UNK        -0.1800 
     29 N          -0.9262  -19.3939  -42.2728 N.am      9 UNK        -0.5000 
     30 C          -1.3631  -18.9796  -43.4709 C.2       8 UNK         0.5000 
     31 O          -1.9920  -19.6923  -44.2517 O.2       8 UNK        -0.5000 
     32 CA         -0.9862  -17.5470  -43.8971 C.3       8 UNK         0.1400 
     33 CB         -1.8915  -16.5076  -43.2206 C.3       8 UNK        -0.1800 
     34 N           0.4157  -17.2263  -43.6288 N.am      8 UNK        -0.5000 
     35 C           1.4547  -17.8905  -44.1552 C.2       7 UNK         0.5000 
     36 O           1.3399  -18.8245  -44.9472 O.2       7 UNK        -0.5000 
     37 CA          2.8504  -17.4879  -43.6553 C.3       7 UNK         0.1400 
     38 CB          3.3246  -16.1857  -44.3194 C.3       7 UNK        -0.1800 
     39 N           2.8733  -17.3482  -42.1991 N.am      7 UNK        -0.5000 
     40 C           2.7487  -18.3744  -41.3439 C.2       6 UNK         0.5000 
     41 O           2.6494  -19.5497  -41.6950 O.2       6 UNK        -0.5000 
     42 CA          2.6841  -18.0245  -39.8460 C.3       6 UNK         0.1400 
     43 CB          4.0972  -17.8666  -39.2654 C.3       6 UNK        -0.1800 
     44 N           1.9135  -16.8085  -39.5833 N.am      6 UNK        -0.5000 
     45 C           0.5966  -16.6806  -39.8008 C.2       5 UNK         0.5000 
     46 O          -0.1198  -17.5905  -40.2130 O.2       5 UNK        -0.5000 
     47 CA         -0.0122  -15.2868  -39.5673 C.3       5 UNK         0.1400 
     48 CB         -0.4532  -15.1271  -38.1050 C.3       5 UNK        -0.1800 
     49 N           0.9041  -14.2010  -39.9222 N.am      5 UNK        -0.5000 
     50 C           1.3550  -13.9647  -41.1608 C.2       4 UNK         0.5000 
     51 O           1.0512  -14.6456  -42.1446 O.2       4 UNK        -0.5000 
     52 CA          2.3664  -12.8148  -41.3037 C.3       4 UNK         0.1400 
     53 CB          3.7959  -13.3716  -41.3893 C.3       4 UNK        -0.1800 
     54 N           2.1094  -11.9885  -42.4794 N.am      4 UNK        -0.5000 
     55 C           1.0264  -11.2307  -42.6814 C.2       3 UNK         0.5000 
     56 O           0.1039  -11.1369  -41.8701 O.2       3 UNK        -0.5000 
     57 CA          0.9489  -10.4245  -43.9950 C.3       3 UNK         0.1400 
     58 CB          1.5002   -9.0002  -43.7938 C.3       3 UNK        -0.1800 
     59 N           1.5526  -11.0571  -45.1772 N.am      3 UNK        -0.5000 
     60 C           2.8323  -11.3509  -45.4420 C.2       2 UNK         0.5000 
     61 O           3.7505  -11.1927  -44.6357 O.2       2 UNK        -0.5000 
     62 CA          3.1195  -11.9385  -46.8414 C.3       2 UNK         0.1400 
     63 CB          4.6192  -12.1886  -47.0818 C.3       2 UNK        -0.1800 
     64 N           2.3997  -13.1863  -47.1006 N.am      2 UNK        -0.5000 
     65 C           1.0919  -13.3279  -47.3472 C.2       1 UNK         0.5000 
     66 O           0.3022  -12.3812  -47.3393 O.2       1 UNK        -0.5000 
     67 C          -1.7105  -22.0577  -47.1053 C.2       11 UNK         0.5000 
     68 O          -2.1601  -22.6312  -48.0991 O.2       11 UNK        -0.5000 
     69 N          -2.3532  -22.0153  -45.9298 N.am      12 UNK        -0.5000 
     70 CA         -3.6114  -22.7089  -45.6424 C.3       12 UNK         0.1400 
     71 CB         -4.1164  -22.3229  -44.2450 C.3       12 UNK        -0.1800 
     72 C          -3.5173  -24.2398  -45.7906 C.2       12 UNK         0.5000 
     73 O          -4.5114  -24.8682  -46.1533 O.2       12 UNK        -0.5000 
     74 N          -2.3272  -24.8021  -45.5447 N.am      13 UNK        -0.5000 
     75 CA         -2.0203  -26.2110  -45.7679 C.3       13 UNK         0.1400 
     76 CB         -1.0557  -26.6985  -44.6746 C.3       13 UNK        -0.1800 
     77 C          -1.4212  -26.4341  -47.1671 C.2       13 UNK         0.5000 
     78 O          -1.8887  -27.3099  -47.8950 O.2       13 UNK        -0.5000 
     79 N          -0.3878  -25.6532  -47.5119 N.am      14 UNK        -0.5000 
     80 CA          0.4528  -25.8618  -48.6925 C.3       14 UNK         0.1400 
     81 CB          1.7515  -25.0561  -48.5315 C.3       14 UNK        -0.1800 
     82 C          -0.2229  -25.5158  -50.0306 C.2       14 UNK         0.5000 
     83 O           0.0451  -26.1883  -51.0271 O.2       14 UNK        -0.5000 
     84 N          -1.0619  -24.4736  -50.0385 N.am      15 UNK        -0.5000 
     85 CA         -1.7156  -23.9355  -51.2345 C.3       15 UNK         0.1400 
     86 CB         -1.2065  -22.4999  -51.4636 C.3       15 UNK        -0.1800 
     87 C          -3.2492  -23.9560  -51.1160 C.2       15 UNK         0.5000 
     88 O          -3.9222  -23.3757  -51.9691 O.2       15 UNK        -0.5000 
     89 N          -3.7804  -24.5603  -50.0412 N.am      16 UNK        -0.5000 
     90 CA         -5.1975  -24.5720  -49.6518 C.3       16 UNK         0.1400 
     91 CB         -6.0238  -25.4226  -50.6392 C.3       16 UNK        -0.1800 
     92 C          -5.7723  -23.1493  -49.4577 C.2       16 UNK         0.5000 
     93 O          -6.9320  -22.9011  -49.7882 O.2       16 UNK        -0.5000 
     94 N          -4.9218  -22.2335  -48.9658 N.am      17 UNK        -0.5000 
     95 CA         -5.1461  -20.7894  -48.8247 C.3       17 UNK         0.1400 
     96 CB         -6.2995  -20.4879  -47.8434 C.3       17 UNK        -0.1800 
     97 C          -5.3053  -20.0692  -50.1822 C.2       17 UNK         0.5000 
     98 O          -5.9848  -19.0444  -50.2534 O.2       17 UNK        -0.5000 
     99 N          -4.6626  -20.6188  -51.2253 N.am      18 UNK        -0.5000 
    100 CA        -4.6899  -20.1859  -52.6242 C.3       18 UNK         0.1400 
    101 CB        -4.0790  -18.7801  -52.7832 C.3       18 UNK        -0.1800 
    102 C         -6.1005  -20.3181  -53.2254 C.2       18 UNK         0.5000 
    103 O         -6.6596  -19.3401  -53.7247 O.2       18 UNK        -0.5000 
    104 N         -6.6545  -21.5360  -53.1371 N.am      19 UNK        -0.5000 
    105 CA        -7.9624  -21.9231  -53.6692 C.3       19 UNK         0.1400 
    106 CB        -8.2637  -23.3713  -53.2494 C.3       19 UNK        -0.1800 
    107 C         -8.0105  -21.7551  -55.2002 C.2       19 UNK         0.5000 
    108 O         -7.4261  -22.5651  -55.9210 O.2       19 UNK        -0.5000 
    109 N         -8.6413  -20.6628  -55.6528 N.am      20 UNK        -0.5000 
    110 CA        -8.6543  -20.1006  -57.0112 C.3       20 UNK         0.1400 
    111 CB        -9.1601  -21.1063  -58.0641 C.3       20 UNK        -0.1800 
    112 C         -7.3045  -19.4726  -57.4169 C.2       20 UNK         0.5000 
    113 O         -7.2855  -18.3312  -57.8793 O.2       20 UNK        -0.5000 
    114 N         -6.2053  -20.2015  -57.2052 N.am      21 UNK        -0.5000 
    115 CA        -4.8244  -19.7639  -57.3706 C.3       21 UNK         0.1400 
    116 CB        -4.4386  -19.7653  -58.8612 C.3       21 UNK        -0.1800 
    117 C         -3.9214  -20.7107  -56.5675 C.2       21 UNK         0.5000 
    118 O         -4.3163  -21.8474  -56.2991 O.2       21 UNK        -0.5000 
    119 N         -2.7219  -20.2410  -56.2088 N.am      22 UNK        -0.5000 
    120 CA        -1.7021  -21.0463  -55.5137 C.3       22 UNK         0.1400 
    121 C         -0.8113  -21.9229  -56.4441 C.2       22 UNK         0.5000 
    122 N         -0.9339  -21.8353  -57.7632 N.am      22 UNK        -0.7600 
    123 O         -0.0065  -22.7133  -55.9592 O.2       22 UNK        -0.5000 
    124 C124       -0.8698  -20.1973  -54.5228 C.3       23 UNK        -0.0398 
    125 S125        0.0905  -18.8321  -55.2748 S.3       23 UNK        -0.2404 
    126 C126       -0.5524  -17.3529  -54.4062 C.3       23 UNK        -0.0205 
    127 H127        3.8221  -15.5811  -50.6748 H         1 UNK         0.0600 
    128 H128        2.2051  -16.1757  -51.0618 H         1 UNK         0.0600 
    129 H129        3.3662  -17.2345  -50.2541 H         1 UNK         0.0600 
    130 H130        0.6848  -15.3153  -49.6889 H         1 UNK         0.3000 
    131 H131        0.9138  -15.3759  -46.8191 H         1 UNK         0.0600 
    132 H132       -1.2241  -15.9271  -47.6222 H         1 UNK         0.0800 
    133 H133       -1.4180  -14.3630  -46.9290 H         1 UNK         0.0800 
    134 H134       -3.2681  -15.4248  -50.6929 H         1 UNK         0.0800 
    135 H135       -2.9626  -16.3157  -49.2308 H         1 UNK         0.0800 
    136 H136       -2.0274  -15.8659  -52.7098 H         1 UNK         0.1150 
    137 H137        0.9721  -18.9337  -52.6795 H         1 UNK         0.1150 
    138 H138       -0.7937  -17.6033  -49.0168 H         1 UNK         0.1150 
    139 H139        0.7505  -20.4139  -50.3251 H         1 UNK         0.0800 
    140 H140        2.1016  -19.3191  -50.4444 H         1 UNK         0.0800 
    141 H141       -1.1136  -19.9436  -48.6149 H         1 UNK         0.0800 
    142 H142       -0.8918  -19.2975  -47.0070 H         1 UNK         0.0800 
    143 H143        0.2466  -21.9802  -47.9149 H         1 UNK         0.0600 
    144 H144        0.6615  -20.5379  -45.5164 H         1 UNK         0.3000 
    145 H145        1.6154  -23.3825  -43.5098 H         1 UNK         0.0600 
    146 H146        3.5079  -21.8176  -43.2118 H         1 UNK         0.0600 
    147 H147        3.5497  -22.5223  -44.8209 H         1 UNK         0.0600 
    148 H148        2.9896  -20.8702  -44.6027 H         1 UNK         0.0600 
    149 H149        1.2161  -20.6217  -42.8528 H         1 UNK         0.3000 
    150 H150       -2.1842  -20.9636  -41.7665 H         1 UNK         0.0600 
    151 H151       -0.8057  -21.7739  -39.8384 H         1 UNK         0.0600 
    152 H152       -1.2437  -20.0824  -39.6591 H         1 UNK         0.0600 
    153 H153        0.3880  -20.5217  -40.1620 H         1 UNK         0.0600 
    154 H154       -0.4594  -18.7272  -41.6628 H         1 UNK         0.3000 
    155 H155       -1.1371  -17.4742  -44.9762 H         1 UNK         0.0600 
    156 H156       -1.7848  -16.5244  -42.1361 H         1 UNK         0.0600 
    157 H157       -2.9407  -16.6970  -43.4501 H         1 UNK         0.0600 
    158 H158       -1.6589  -15.4991  -43.5635 H         1 UNK         0.0600 
    159 H159        0.5994  -16.4562  -42.9938 H         1 UNK         0.3000 
    160 H160        3.5478  -18.2813  -43.9326 H         1 UNK         0.0600 
    161 H161        2.6588  -15.3486  -44.1099 H         1 UNK         0.0600 
    162 H162        3.3673  -16.3027  -45.4021 H         1 UNK         0.0600 
    163 H163        4.3252  -15.9126  -43.9846 H         1 UNK         0.0600 
    164 H164        2.8947  -16.4090  -41.8320 H         1 UNK         0.3000 
    165 H165        2.1936  -18.8536  -39.3314 H         1 UNK         0.0600 
    166 H166        4.0645  -17.6963  -38.1891 H         1 UNK         0.0600 
    167 H167        4.6901  -18.7669  -39.4328 H         1 UNK         0.0600 
    168 H168        4.6311  -17.0322  -39.7219 H         1 UNK         0.0600 
    169 H169        2.4236  -16.0093  -39.2381 H         1 UNK         0.3000 
    170 H170       -0.8963  -15.2007  -40.2021 H         1 UNK         0.0600 
    171 H171       -1.1531  -15.9143  -37.8209 H         1 UNK         0.0600 
    172 H172        0.3937  -15.1777  -37.4194 H         1 UNK         0.0600 
    173 H173       -0.9576  -14.1737  -37.9470 H         1 UNK         0.0600 
    174 H174        1.2023  -13.5999  -39.1674 H         1 UNK         0.3000 
    175 H175        2.2979  -12.1711  -40.4243 H         1 UNK         0.0600 
    176 H176        3.9357  -13.9860  -42.2792 H         1 UNK         0.0600 
    177 H177        4.5298  -12.5661  -41.4233 H         1 UNK         0.0600 
    178 H178        4.0318  -13.9886  -40.5213 H         1 UNK         0.0600 
    179 H179        2.8313  -11.9614  -43.1931 H         1 UNK         0.3000 
    180 H180       -0.1124  -10.3315  -44.2307 H         1 UNK         0.0600 
    181 H181        2.5615   -9.0061  -43.5435 H         1 UNK         0.0600 
    182 H182        0.9782   -8.4916  -42.9823 H         1 UNK         0.0600 
    183 H183        1.3701   -8.3962  -44.6918 H         1 UNK         0.0600 
    184 H184        0.8896  -11.3147  -45.9049 H         1 UNK         0.3000 
    185 H185        2.7881  -11.1966  -47.5708 H         1 UNK         0.0600 
    186 H186        5.1978  -11.2744  -46.9425 H         1 UNK         0.0600 
    187 H187        5.0162  -12.9390  -46.3967 H         1 UNK         0.0600 
    188 H188        4.8027  -12.5350  -48.0991 H         1 UNK         0.0600 
    189 H189        2.9681  -14.0264  -47.1659 H         1 UNK         0.3000 
    190 H190       -1.9701  -21.4420  -45.1843 H         1 UNK         0.3000 
    191 H191       -4.3493  -22.3613  -46.3624 H         1 UNK         0.0600 
    192 H192       -3.4250  -22.6366  -43.4642 H         1 UNK         0.0600 
    193 H193       -5.0787  -22.7918  -44.0361 H         1 UNK         0.0600 
    194 H194       -4.2567  -21.2455  -44.1587 H         1 UNK         0.0600 
    195 H195       -1.5561  -24.2075  -45.2683 H         1 UNK         0.3000 
    196 H196       -2.9319  -26.8080  -45.6935 H         1 UNK         0.0600 
    197 H197       -0.8041  -27.7503  -44.8165 H         1 UNK         0.0600 
    198 H198       -1.5044  -26.6018  -43.6858 H         1 UNK         0.0600 
    199 H199       -0.1224  -26.1344  -44.6716 H         1 UNK         0.0600 
    200 H200       -0.0596  -24.9527  -46.8492 H         1 UNK         0.3000 
    201 H201        0.7199  -26.9202  -48.7273 H         1 UNK         0.0600 
    202 H202        2.2854  -25.3453  -47.6260 H         1 UNK         0.0600 
    203 H203        1.5568  -23.9847  -48.4762 H         1 UNK         0.0600 
    204 H204        2.4243  -25.2246  -49.3733 H         1 UNK         0.0600 
    205 H205       -1.2496  -23.9752  -49.1739 H         1 UNK         0.3000 
    206 H206       -1.4680  -24.5291  -52.1165 H         1 UNK         0.0600 
    207 H207       -0.1250  -22.4843  -51.5984 H         1 UNK         0.0600 
    208 H208       -1.6489  -22.0636  -52.3588 H         1 UNK         0.0600 
    209 H209       -1.4500  -21.8447  -50.6267 H         1 UNK         0.0600 
    210 H210       -3.1439  -25.0087  -49.3978 H         1 UNK         0.3000 
    211 H211       -5.2490  -25.0592  -48.6783 H         1 UNK         0.0600 
    212 H212       -6.0636  -24.9708  -51.6304 H         1 UNK         0.0600 
    213 H213       -7.0511  -25.5386  -50.2920 H         1 UNK         0.0600 
    214 H214       -5.6034  -26.4227  -50.7438 H         1 UNK         0.0600 
    215 H215       -3.9798  -22.5426  -48.7408 H         1 UNK         0.3000 
    216 H216       -4.2325  -20.3895  -48.3826 H         1 UNK         0.0600 
    217 H217       -6.3411  -19.4239  -47.6081 H         1 UNK         0.0600 
    218 H218       -6.1761  -21.0196  -46.9008 H         1 UNK         0.0600 
    219 H219       -7.2687  -20.7649  -48.2586 H         1 UNK         0.0600 
    220 H220       -4.2041  -21.5087  -51.0753 H         1 UNK         0.3000 
    221 H221       -4.0528  -20.8797  -53.1745 H         1 UNK         0.0600 
    222 H222       -4.7055  -18.0045  -52.3423 H         1 UNK         0.0600 
    223 H223       -3.1044  -18.7319  -52.3013 H         1 UNK         0.0600 
    224 H224       -3.9409  -18.5307  -53.8356 H         1 UNK         0.0600 
    225 H225       -6.1097  -22.2749  -52.7132 H         1 UNK         0.3000 
    226 H226       -8.7172  -21.2768  -53.2169 H         1 UNK         0.0600 
    227 H227       -8.3032  -23.4668  -52.1642 H         1 UNK         0.0600 
    228 H228       -9.2283  -23.6978  -53.6395 H         1 UNK         0.0600 
    229 H229       -7.5074  -24.0652  -53.6187 H         1 UNK         0.0600 
    230 H230       -9.0259  -20.0431  -54.9527 H         1 UNK         0.3000 
    231 H231       -9.3782  -19.2847  -56.9765 H         1 UNK         0.0600 
    232 H232      -10.1199  -21.5331  -57.7734 H         1 UNK         0.0600 
    233 H233       -8.4602  -21.9269  -58.2218 H         1 UNK         0.0600 
    234 H234       -9.3005  -20.6153  -59.0277 H         1 UNK         0.0600 
    235 H235       -6.3058  -21.1313  -56.8030 H         1 UNK         0.3000 
    236 H236       -4.7205  -18.7566  -56.9617 H         1 UNK         0.0600 
    237 H237       -3.4047  -19.4478  -59.0000 H         1 UNK         0.0600 
    238 H238       -4.5410  -20.7588  -59.2997 H         1 UNK         0.0600 
    239 H239       -5.0635  -19.0813  -59.4354 H         1 UNK         0.0600 
    240 H240       -2.4413  -19.3089  -56.4783 H         1 UNK         0.3000 
    241 H241       -2.2290  -21.7741  -54.8930 H         1 UNK         0.0600 
    242 H242       -0.3565  -22.4135  -58.3534 H         1 UNK         0.3800 
    243 H243       -1.5910  -21.1954  -58.1780 H         1 UNK         0.3800 
    244 H244       -1.5421  -19.7937  -53.7678 H         1 UNK         0.0800 
    245 H245       -0.1729  -20.8326  -53.9737 H         1 UNK         0.0800 
    246 H246       -1.5740  -17.1835  -54.7501 H         1 UNK         0.0800 
    247 H247        0.0278  -16.4864  -54.7254 H         1 UNK         0.0800 
@<TRIPOS>BOND
     1    1    2 1    
     2    1  127 1    
     3    1  128 1    
     4    1  129 1    
     5    2    3 2    
     6    2    4 am   BACKBONE|DICT|INTERRES
     7    4    5 1    
     8    4  130 1    
     9    5    6 1    
    10    5   65 1    
    11    5  131 1    
    12    6    7 1    
    13    6  132 1    
    14    6  133 1    
    15    7    8 1    
    16    8    9 1    
    17    8  134 1    
    18    8  135 1    
    19    9   10 ar   
    20    9   14 ar   
    21   10   11 ar   
    22   10  136 1    
    23   11   12 ar   
    24   11  126 1    
    25   12   13 ar   
    26   12  137 1    
    27   13   14 ar   
    28   13   15 1    
    29   14  138 1    
    30   15   16 1    
    31   15  139 1    
    32   15  140 1    
    33   16   17 1    
    34   17   18 1    
    35   17  141 1    
    36   17  142 1    
    37   18   19 1    
    38   18   67 1    
    39   18  143 1    
    40   19   20 am   BACKBONE|DICT|INTERRES
    41   19  144 1    
    42   20   21 2    
    43   20   22 1    
    44   22   23 1    
    45   22   24 1    
    46   22  145 1    
    47   23  146 1    
    48   23  147 1    
    49   23  148 1    
    50   24   25 am   BACKBONE|DICT|INTERRES
    51   24  149 1    
    52   25   26 2    
    53   25   27 1    
    54   27   28 1    
    55   27   29 1    
    56   27  150 1    
    57   28  151 1    
    58   28  152 1    
    59   28  153 1    
    60   29   30 am   BACKBONE|DICT|INTERRES
    61   29  154 1    
    62   30   31 2    
    63   30   32 1    
    64   32   33 1    
    65   32   34 1    
    66   32  155 1    
    67   33  156 1    
    68   33  157 1    
    69   33  158 1    
    70   34   35 am   BACKBONE|DICT|INTERRES
    71   34  159 1    
    72   35   36 2    
    73   35   37 1    
    74   37   38 1    
    75   37   39 1    
    76   37  160 1    
    77   38  161 1    
    78   38  162 1    
    79   38  163 1    
    80   39   40 am   BACKBONE|DICT|INTERRES
    81   39  164 1    
    82   40   41 2    
    83   40   42 1    
    84   42   43 1    
    85   42   44 1    
    86   42  165 1    
    87   43  166 1    
    88   43  167 1    
    89   43  168 1    
    90   44   45 am   BACKBONE|DICT|INTERRES
    91   44  169 1    
    92   45   46 2    
    93   45   47 1    
    94   47   48 1    
    95   47   49 1    
    96   47  170 1    
    97   48  171 1    
    98   48  172 1    
    99   48  173 1    
   100   49   50 am   BACKBONE|DICT|INTERRES
   101   49  174 1    
   102   50   51 2    
   103   50   52 1    
   104   52   53 1    
   105   52   54 1    
   106   52  175 1    
   107   53  176 1    
   108   53  177 1    
   109   53  178 1    
   110   54   55 am   BACKBONE|DICT|INTERRES
   111   54  179 1    
   112   55   56 2    
   113   55   57 1    
   114   57   58 1    
   115   57   59 1    
   116   57  180 1    
   117   58  181 1    
   118   58  182 1    
   119   58  183 1    
   120   59   60 am   BACKBONE|DICT|INTERRES
   121   59  184 1    
   122   60   61 2    
   123   60   62 1    
   124   62   63 1    
   125   62   64 1    
   126   62  185 1    
   127   63  186 1    
   128   63  187 1    
   129   63  188 1    
   130   64   65 am   BACKBONE|DICT|INTERRES
   131   64  189 1    
   132   65   66 2    
   133   67   68 2    
   134   67   69 am   BACKBONE|DICT|INTERRES
   135   69   70 1    
   136   69  190 1    
   137   70   71 1    
   138   70   72 1    
   139   70  191 1    
   140   71  192 1    
   141   71  193 1    
   142   71  194 1    
   143   72   73 2    
   144   72   74 am   BACKBONE|DICT|INTERRES
   145   74   75 1    
   146   74  195 1    
   147   75   76 1    
   148   75   77 1    
   149   75  196 1    
   150   76  197 1    
   151   76  198 1    
   152   76  199 1    
   153   77   78 2    
   154   77   79 am   BACKBONE|DICT|INTERRES
   155   79   80 1    
   156   79  200 1    
   157   80   81 1    
   158   80   82 1    
   159   80  201 1    
   160   81  202 1    
   161   81  203 1    
   162   81  204 1    
   163   82   83 2    
   164   82   84 am   BACKBONE|DICT|INTERRES
   165   84   85 1    
   166   84  205 1    
   167   85   86 1    
   168   85   87 1    
   169   85  206 1    
   170   86  207 1    
   171   86  208 1    
   172   86  209 1    
   173   87   88 2    
   174   87   89 am   BACKBONE|DICT|INTERRES
   175   89   90 1    
   176   89  210 1    
   177   90   91 1    
   178   90   92 1    
   179   90  211 1    
   180   91  212 1    
   181   91  213 1    
   182   91  214 1    
   183   92   93 2    
   184   92   94 am   BACKBONE|DICT|INTERRES
   185   94   95 1    
   186   94  215 1    
   187   95   96 1    
   188   95   97 1    
   189   95  216 1    
   190   96  217 1    
   191   96  218 1    
   192   96  219 1    
   193   97   98 2    
   194   97   99 am   BACKBONE|DICT|INTERRES
   195   99  100 1    
   196   99  220 1    
   197  100  101 1    
   198  100  102 1    
   199  100  221 1    
   200  101  222 1    
   201  101  223 1    
   202  101  224 1    
   203  102  103 2    
   204  102  104 am   BACKBONE|DICT|INTERRES
   205  104  105 1    
   206  104  225 1    
   207  105  106 1    
   208  105  107 1    
   209  105  226 1    
   210  106  227 1    
   211  106  228 1    
   212  106  229 1    
   213  107  108 2    
   214  107  109 am   BACKBONE|DICT|INTERRES
   215  109  110 1    
   216  109  230 1    
   217  110  111 1    
   218  110  112 1    
   219  110  231 1    
   220  111  232 1    
   221  111  233 1    
   222  111  234 1    
   223  112  113 2    
   224  112  114 am   BACKBONE|DICT|INTERRES
   225  114  115 1    
   226  114  235 1    
   227  115  116 1    
   228  115  117 1    
   229  115  236 1    
   230  116  237 1    
   231  116  238 1    
   232  116  239 1    
   233  117  118 2    
   234  117  119 am   BACKBONE|DICT|INTERRES
   235  119  120 1    
   236  119  240 1    
   237  120  121 1    
   238  120  124 1    
   239  120  241 1    
   240  121  122 am   BACKBONE|DICT|INTERRES
   241  121  123 2    
   242  122  242 1    
   243  122  243 1    
   244  124  125 1    
   245  124  244 1    
   246  124  245 1    
   247  125  126 1    
   248  126  246 1    
   249  126  247 1    
@<TRIPOS>SUBSTRUCTURE
     1 UNK         1 GROUP             0       ****    0 ROOT    
