@<TRIPOS>MOLECULE
3R540
247   249    1
SMALL
USER_CHARGES


@<TRIPOS>ATOM
      1 CA         -3.6355  -10.7576  -47.9789 C.3       0 UNK        -0.1800 
      2 C          -2.1840  -11.0212  -48.3541 C.2       0 UNK         0.5000 
      3 O          -1.3507  -10.1211  -48.2481 O.2       0 UNK        -0.5000 
      4 N          -1.8809  -12.2483  -48.7959 N.am      1 UNK        -0.5000 
      5 CA         -0.5296  -12.7147  -49.1162 C.3       1 UNK         0.1400 
      6 C6         -0.5775  -14.0592  -49.8788 C.3       23 UNK        -0.0398 
      7 S7          1.0415  -14.5720  -50.5515 S.3       23 UNK        -0.2404 
      8 C8          0.5328  -15.7456  -51.8449 C.3       23 UNK        -0.0205 
      9 C9         -0.0301  -17.0312  -51.2580 C.ar      23 UNK        -0.0193 
     10 C10        -1.3931  -17.1342  -50.9732 C.ar      23 UNK        -0.1150 
     11 C11        -1.9329  -18.3232  -50.4765 C.ar      23 UNK        -0.0193 
     12 C12        -1.0875  -19.4128  -50.2434 C.ar      23 UNK        -0.1150 
     13 C13         0.2860  -19.3122  -50.4945 C.ar      23 UNK        -0.0193 
     14 C14         0.8064  -18.1223  -51.0111 C.ar      23 UNK        -0.1150 
     15 C15         1.2120  -20.4855  -50.2068 C.3       23 UNK        -0.0205 
     16 S16         2.2524  -20.2150  -48.7303 S.3       23 UNK        -0.2404 
     17 C17         1.0015  -20.0428  -47.4146 C.3       23 UNK        -0.0398 
     18 CA          0.4736  -21.4122  -46.9327 C.3       11 UNK         0.1400 
     19 N           1.4498  -22.1148  -46.0960 N.am      11 UNK        -0.5000 
     20 C           1.9748  -23.3150  -46.3774 C.2       10 UNK         0.5000 
     21 O           1.7173  -23.9566  -47.3957 O.2       10 UNK        -0.5000 
     22 CA          2.9596  -23.9183  -45.3538 C.3       10 UNK         0.1400 
     23 CB          4.4089  -23.6485  -45.7871 C.3       10 UNK        -0.1800 
     24 N           2.7814  -23.4369  -43.9829 N.am      10 UNK        -0.5000 
     25 C           1.6780  -23.6000  -43.2408 C.2       9 UNK         0.5000 
     26 O           0.6687  -24.1859  -43.6285 O.2       9 UNK        -0.5000 
     27 CA          1.6788  -22.9445  -41.8477 C.3       9 UNK         0.1400 
     28 CB          2.2198  -23.9251  -40.7967 C.3       9 UNK        -0.1800 
     29 N           2.4170  -21.6787  -41.7502 N.am      9 UNK        -0.5000 
     30 C           2.2593  -20.6098  -42.5425 C.2       8 UNK         0.5000 
     31 O           1.5671  -20.6023  -43.5637 O.2       8 UNK        -0.5000 
     32 CA          2.9649  -19.3178  -42.1064 C.3       8 UNK         0.1400 
     33 CB          3.8854  -18.7862  -43.2172 C.3       8 UNK        -0.1800 
     34 N           1.9467  -18.3206  -41.7882 N.am      8 UNK        -0.5000 
     35 C           1.2147  -18.3230  -40.6648 C.2       7 UNK         0.5000 
     36 O           1.4320  -19.0853  -39.7207 O.2       7 UNK        -0.5000 
     37 CA          0.0301  -17.3361  -40.5981 C.3       7 UNK         0.1400 
     38 CB         -0.4519  -17.0571  -39.1587 C.3       7 UNK        -0.1800 
     39 N           0.2673  -16.0905  -41.3298 N.am      7 UNK        -0.5000 
     40 C           1.1613  -15.1289  -41.0516 C.2       6 UNK         0.5000 
     41 O           1.9337  -15.1661  -40.0933 O.2       6 UNK        -0.5000 
     42 CA          1.2073  -13.9141  -42.0043 C.3       6 UNK         0.1400 
     43 CB          2.5650  -13.8311  -42.7197 C.3       6 UNK        -0.1800 
     44 N           0.1424  -13.9367  -43.0103 N.am      6 UNK        -0.5000 
     45 C          -1.1278  -13.5642  -42.7976 C.2       5 UNK         0.5000 
     46 O          -1.5260  -13.0655  -41.7449 O.2       5 UNK        -0.5000 
     47 CA         -2.1271  -13.8220  -43.9416 C.3       5 UNK         0.1400 
     48 CB         -2.4072  -12.5262  -44.7190 C.3       5 UNK        -0.1800 
     49 N          -1.6648  -14.8606  -44.8688 N.am      5 UNK        -0.5000 
     50 C          -1.7124  -16.1763  -44.6096 C.2       4 UNK         0.5000 
     51 O          -2.1503  -16.6485  -43.5606 O.2       4 UNK        -0.5000 
     52 CA         -1.1191  -17.1189  -45.6736 C.3       4 UNK         0.1400 
     53 CB         -2.0713  -17.2678  -46.8695 C.3       4 UNK        -0.1800 
     54 N           0.1982  -16.6866  -46.1442 N.am      4 UNK        -0.5000 
     55 C           1.2937  -16.6340  -45.3724 C.2       3 UNK         0.5000 
     56 O           1.3014  -16.9298  -44.1792 O.2       3 UNK        -0.5000 
     57 CA          2.5624  -16.0682  -46.0168 C.3       3 UNK         0.1400 
     58 CB          3.0216  -16.8729  -47.2445 C.3       3 UNK        -0.1800 
     59 N           2.2691  -14.6934  -46.3826 N.am      3 UNK        -0.5000 
     60 C           3.1201  -13.6694  -46.4363 C.2       2 UNK         0.5000 
     61 O           4.3340  -13.7819  -46.2590 O.2       2 UNK        -0.5000 
     62 CA          2.4860  -12.2864  -46.7210 C.3       2 UNK         0.1400 
     63 CB          3.5394  -11.1972  -46.9906 C.3       2 UNK        -0.1800 
     64 N           1.5210  -12.2901  -47.8276 N.am      2 UNK        -0.5000 
     65 C           0.2996  -12.8412  -47.8239 C.2       1 UNK         0.5000 
     66 O          -0.1637  -13.4783  -46.8732 O.2       1 UNK        -0.5000 
     67 C          -0.8698  -21.2405  -46.2050 C.2       11 UNK         0.5000 
     68 O          -1.9039  -21.2136  -46.8693 O.2       11 UNK        -0.5000 
     69 N          -0.8524  -21.1067  -44.8726 N.am      12 UNK        -0.5000 
     70 CA         -2.0469  -20.8801  -44.0617 C.3       12 UNK         0.1400 
     71 CB         -1.6245  -20.3715  -42.6770 C.3       12 UNK        -0.1800 
     72 C          -2.9552  -22.1179  -43.9434 C.2       12 UNK         0.5000 
     73 O          -4.1735  -21.9557  -43.8614 O.2       12 UNK        -0.5000 
     74 N          -2.3683  -23.3250  -43.9410 N.am      13 UNK        -0.5000 
     75 CA         -3.0934  -24.5938  -43.8516 C.3       13 UNK         0.1400 
     76 CB         -2.1059  -25.7385  -43.5774 C.3       13 UNK        -0.1800 
     77 C          -3.9111  -24.8597  -45.1277 C.2       13 UNK         0.5000 
     78 O          -3.3308  -25.1744  -46.1689 O.2       13 UNK        -0.5000 
     79 N          -5.2379  -24.6859  -45.0285 N.am      14 UNK        -0.5000 
     80 CA         -6.2430  -24.8784  -46.0846 C.3       14 UNK         0.1400 
     81 CB         -6.4077  -26.3821  -46.3889 C.3       14 UNK        -0.1800 
     82 C          -5.9716  -24.0480  -47.3591 C.2       14 UNK         0.5000 
     83 O          -6.2740  -24.5013  -48.4651 O.2       14 UNK        -0.5000 
     84 N          -5.3427  -22.8735  -47.1856 N.am      15 UNK        -0.5000 
     85 CA         -4.8429  -21.9723  -48.2344 C.3       15 UNK         0.1400 
     86 CB         -6.0268  -21.3559  -49.0091 C.3       15 UNK        -0.1800 
     87 C          -3.8087  -22.6326  -49.1802 C.2       15 UNK         0.5000 
     88 O          -3.6443  -22.1793  -50.3144 O.2       15 UNK        -0.5000 
     89 N          -3.1849  -23.7358  -48.7318 N.am      16 UNK        -0.5000 
     90 CA         -2.3617  -24.6663  -49.5107 C.3       16 UNK         0.1400 
     91 CB         -1.0035  -24.0283  -49.8539 C.3       16 UNK        -0.1800 
     92 C          -3.1052  -25.2412  -50.7384 C.2       16 UNK         0.5000 
     93 O          -2.5001  -25.4353  -51.7934 O.2       16 UNK        -0.5000 
     94 N          -4.4194  -25.4705  -50.5757 N.am      17 UNK        -0.5000 
     95 CA         -5.3887  -25.8637  -51.6043 C.3       17 UNK         0.1400 
     96 CB         -5.0742  -27.2677  -52.1625 C.3       17 UNK        -0.1800 
     97 C          -5.5568  -24.7895  -52.7019 C.2       17 UNK         0.5000 
     98 O          -5.7711  -25.1272  -53.8672 O.2       17 UNK        -0.5000 
     99 N          -5.4557  -23.5150  -52.2928 N.am      18 UNK        -0.5000 
    100 CA        -5.4648  -22.3004  -53.1108 C.3       18 UNK         0.1400 
    101 CB        -6.8244  -22.1028  -53.8124 C.3       18 UNK        -0.1800 
    102 C         -4.2632  -22.2671  -54.0731 C.2       18 UNK         0.5000 
    103 O         -4.4418  -22.2243  -55.2929 O.2       18 UNK        -0.5000 
    104 N         -3.0539  -22.3213  -53.4963 N.am      19 UNK        -0.5000 
    105 CA        -1.7723  -22.3201  -54.2073 C.3       19 UNK         0.1400 
    106 CB        -0.6239  -22.4135  -53.1928 C.3       19 UNK        -0.1800 
    107 C         -1.6106  -21.0803  -55.1051 C.2       19 UNK         0.5000 
    108 O         -1.5977  -19.9600  -54.5938 O.2       19 UNK        -0.5000 
    109 N         -1.5553  -21.3041  -56.4273 N.am      20 UNK        -0.5000 
    110 CA        -1.5386  -20.2890  -57.4924 C.3       20 UNK         0.1400 
    111 CB        -0.1955  -19.5295  -57.4931 C.3       20 UNK        -0.1800 
    112 C         -2.7606  -19.3416  -57.4441 C.2       20 UNK         0.5000 
    113 O         -2.6388  -18.1540  -57.7525 O.2       20 UNK        -0.5000 
    114 N         -3.9057  -19.8780  -56.9898 N.am      21 UNK        -0.5000 
    115 CA        -5.1602  -19.1824  -56.6762 C.3       21 UNK         0.1400 
    116 CB        -5.8023  -18.6069  -57.9555 C.3       21 UNK        -0.1800 
    117 C         -5.0186  -18.1250  -55.5565 C.2       21 UNK         0.5000 
    118 O         -5.8826  -17.2560  -55.4303 O.2       21 UNK        -0.5000 
    119 N         -3.9314  -18.2086  -54.7760 N.am      22 UNK        -0.5000 
    120 CA        -3.4995  -17.2437  -53.7547 C.3       22 UNK         0.1400 
    121 C         -3.1307  -15.8348  -54.3131 C.2       22 UNK         0.5000 
    122 N         -2.8322  -15.6940  -55.6006 N.am      22 UNK        -0.7600 
    123 O         -3.0751  -14.8594  -53.5692 O.2       22 UNK        -0.5000 
    124 C124       -4.4441  -17.2058  -52.5213 C.3       23 UNK        -0.0398 
    125 S125       -4.4336  -18.7967  -51.6245 S.3       23 UNK        -0.2404 
    126 C126       -3.4193  -18.4162  -50.1575 C.3       23 UNK        -0.0205 
    127 H127       -4.2533  -11.6483  -48.0966 H         1 UNK         0.0600 
    128 H128       -4.0493   -9.9701  -48.6086 H         1 UNK         0.0600 
    129 H129       -3.7008  -10.4348  -46.9398 H         1 UNK         0.0600 
    130 H130       -2.6081  -12.9471  -48.8374 H         1 UNK         0.3000 
    131 H131       -0.0668  -11.9677  -49.7649 H         1 UNK         0.0600 
    132 H132       -0.9645  -14.8557  -49.2407 H         1 UNK         0.0800 
    133 H133       -1.2739  -13.9707  -50.7142 H         1 UNK         0.0800 
    134 H134        1.3974  -15.9742  -52.4698 H         1 UNK         0.0800 
    135 H135       -0.1996  -15.2767  -52.5043 H         1 UNK         0.0800 
    136 H136       -2.0348  -16.2845  -51.1494 H         1 UNK         0.1150 
    137 H137       -1.4978  -20.3329  -49.8500 H         1 UNK         0.1150 
    138 H138        1.8654  -18.0449  -51.2136 H         1 UNK         0.1150 
    139 H139        0.6415  -21.4064  -50.0849 H         1 UNK         0.0800 
    140 H140        1.8611  -20.6470  -51.0685 H         1 UNK         0.0800 
    141 H141        0.1986  -19.4057  -47.7837 H         1 UNK         0.0800 
    142 H142        1.4460  -19.4989  -46.5801 H         1 UNK         0.0800 
    143 H143        0.2420  -22.0062  -47.8157 H         1 UNK         0.0600 
    144 H144        1.7084  -21.6613  -45.2261 H         1 UNK         0.3000 
    145 H145        2.7988  -24.9982  -45.3472 H         1 UNK         0.0600 
    146 H146        4.6356  -22.5815  -45.7865 H         1 UNK         0.0600 
    147 H147        5.1189  -24.1449  -45.1254 H         1 UNK         0.0600 
    148 H148        4.5914  -24.0217  -46.7958 H         1 UNK         0.0600 
    149 H149        3.5503  -22.9211  -43.5814 H         1 UNK         0.3000 
    150 H150        0.6390  -22.7274  -41.5979 H         1 UNK         0.0600 
    151 H151        1.6769  -24.8710  -40.8273 H         1 UNK         0.0600 
    152 H152        2.1115  -23.5238  -39.7889 H         1 UNK         0.0600 
    153 H153        3.2753  -24.1466  -40.9594 H         1 UNK         0.0600 
    154 H154        2.9996  -21.5778  -40.9314 H         1 UNK         0.3000 
    155 H155        3.5730  -19.5063  -41.2192 H         1 UNK         0.0600 
    156 H156        4.7072  -19.4787  -43.4024 H         1 UNK         0.0600 
    157 H157        4.3224  -17.8260  -42.9424 H         1 UNK         0.0600 
    158 H158        3.3549  -18.6543  -44.1604 H         1 UNK         0.0600 
    159 H159        1.6710  -17.7096  -42.5545 H         1 UNK         0.3000 
    160 H160       -0.7940  -17.8248  -41.1177 H         1 UNK         0.0600 
    161 H161       -1.2892  -16.3591  -39.1517 H         1 UNK         0.0600 
    162 H162        0.3403  -16.6386  -38.5376 H         1 UNK         0.0600 
    163 H163       -0.7923  -17.9742  -38.6768 H         1 UNK         0.0600 
    164 H164       -0.2937  -15.9748  -42.1629 H         1 UNK         0.3000 
    165 H165        1.0934  -13.0170  -41.3923 H         1 UNK         0.0600 
    166 H166        2.7656  -14.7253  -43.3086 H         1 UNK         0.0600 
    167 H167        2.6109  -12.9686  -43.3843 H         1 UNK         0.0600 
    168 H168        3.3787  -13.7275  -42.0009 H         1 UNK         0.0600 
    169 H169        0.3696  -14.3524  -43.9005 H         1 UNK         0.3000 
    170 H170       -3.0659  -14.1532  -43.4926 H         1 UNK         0.0600 
    171 H171       -1.4929  -12.0830  -45.1143 H         1 UNK         0.0600 
    172 H172       -3.0841  -12.7045  -45.5544 H         1 UNK         0.0600 
    173 H173       -2.8749  -11.7811  -44.0745 H         1 UNK         0.0600 
    174 H174       -1.2443  -14.5292  -45.7331 H         1 UNK         0.3000 
    175 H175       -1.0010  -18.1016  -45.2121 H         1 UNK         0.0600 
    176 H176       -2.1877  -16.3311  -47.4156 H         1 UNK         0.0600 
    177 H177       -1.7100  -18.0208  -47.5683 H         1 UNK         0.0600 
    178 H178       -3.0626  -17.5847  -46.5428 H         1 UNK         0.0600 
    179 H179        0.2644  -16.4093  -47.1123 H         1 UNK         0.3000 
    180 H180        3.3578  -16.0844  -45.2687 H         1 UNK         0.0600 
    181 H181        2.2608  -16.9103  -48.0253 H         1 UNK         0.0600 
    182 H182        3.2648  -17.8978  -46.9646 H         1 UNK         0.0600 
    183 H183        3.9205  -16.4390  -47.6823 H         1 UNK         0.0600 
    184 H184        1.2872  -14.4670  -46.5241 H         1 UNK         0.3000 
    185 H185        1.9474  -12.0030  -45.8142 H         1 UNK         0.0600 
    186 H186        3.0724  -10.2217  -47.1277 H         1 UNK         0.0600 
    187 H187        4.2338  -11.1052  -46.1544 H         1 UNK         0.0600 
    188 H188        4.1254  -11.4183  -47.8835 H         1 UNK         0.0600 
    189 H189        1.8316  -11.8310  -48.6716 H         1 UNK         0.3000 
    190 H190        0.0389  -21.0638  -44.3843 H         1 UNK         0.3000 
    191 H191       -2.6325  -20.0909  -44.5388 H         1 UNK         0.0600 
    192 H192       -1.0406  -21.1139  -42.1335 H         1 UNK         0.0600 
    193 H193       -1.0200  -19.4695  -42.7674 H         1 UNK         0.0600 
    194 H194       -2.4944  -20.1230  -42.0678 H         1 UNK         0.0600 
    195 H195       -1.3617  -23.3887  -44.0356 H         1 UNK         0.3000 
    196 H196       -3.7754  -24.5373  -43.0005 H         1 UNK         0.0600 
    197 H197       -1.5666  -25.5790  -42.6435 H         1 UNK         0.0600 
    198 H198       -1.3702  -25.8376  -44.3766 H         1 UNK         0.0600 
    199 H199       -2.6281  -26.6922  -43.4928 H         1 UNK         0.0600 
    200 H200       -5.6038  -24.3634  -44.1427 H         1 UNK         0.3000 
    201 H201       -7.1894  -24.5145  -45.6826 H         1 UNK         0.0600 
    202 H202       -7.2387  -26.5566  -47.0734 H         1 UNK         0.0600 
    203 H203       -6.6149  -26.9479  -45.4807 H         1 UNK         0.0600 
    204 H204       -5.5116  -26.8014  -46.8480 H         1 UNK         0.0600 
    205 H205       -5.1122  -22.6059  -46.2376 H         1 UNK         0.3000 
    206 H206       -4.3268  -21.1588  -47.7255 H         1 UNK         0.0600 
    207 H207       -6.5527  -22.0979  -49.6103 H         1 UNK         0.0600 
    208 H208       -5.6889  -20.5736  -49.6865 H         1 UNK         0.0600 
    209 H209       -6.7484  -20.9015  -48.3304 H         1 UNK         0.0600 
    210 H210       -3.3743  -24.0392  -47.7809 H         1 UNK         0.3000 
    211 H211       -2.1658  -25.5197  -48.8603 H         1 UNK         0.0600 
    212 H212       -0.4464  -23.8154  -48.9450 H         1 UNK         0.0600 
    213 H213       -0.3843  -24.6952  -50.4546 H         1 UNK         0.0600 
    214 H214       -1.1213  -23.0945  -50.4010 H         1 UNK         0.0600 
    215 H215       -4.8346  -25.2381  -49.6784 H         1 UNK         0.3000 
    216 H216       -6.3526  -25.9243  -51.0969 H         1 UNK         0.0600 
    217 H217       -5.8813  -27.6208  -52.8053 H         1 UNK         0.0600 
    218 H218       -4.1598  -27.2751  -52.7560 H         1 UNK         0.0600 
    219 H219       -4.9596  -27.9950  -51.3588 H         1 UNK         0.0600 
    220 H220       -5.2009  -23.3612  -51.3260 H         1 UNK         0.3000 
    221 H221       -5.3349  -21.4681  -52.4195 H         1 UNK         0.0600 
    222 H222       -7.0160  -22.8711  -54.5618 H         1 UNK         0.0600 
    223 H223       -7.6438  -22.1225  -53.0941 H         1 UNK         0.0600 
    224 H224       -6.8602  -21.1377  -54.3184 H         1 UNK         0.0600 
    225 H225       -3.0104  -22.3341  -52.4842 H         1 UNK         0.3000 
    226 H226       -1.7421  -23.2142  -54.8330 H         1 UNK         0.0600 
    227 H227       -0.6386  -23.3741  -52.6796 H         1 UNK         0.0600 
    228 H228        0.3453  -22.3276  -53.6856 H         1 UNK         0.0600 
    229 H229       -0.6839  -21.6224  -52.4443 H         1 UNK         0.0600 
    230 H230       -1.6058  -22.2611  -56.7487 H         1 UNK         0.3000 
    231 H231       -1.6133  -20.8301  -58.4366 H         1 UNK         0.0600 
    232 H232       -0.1184  -18.8704  -58.3586 H         1 UNK         0.0600 
    233 H233        0.6474  -20.2190  -57.5364 H         1 UNK         0.0600 
    234 H234       -0.0787  -18.9126  -56.6014 H         1 UNK         0.0600 
    235 H235       -3.8886  -20.8506  -56.6973 H         1 UNK         0.3000 
    236 H236       -5.8355  -19.9440  -56.2849 H         1 UNK         0.0600 
    237 H237       -5.8898  -19.3690  -58.7299 H         1 UNK         0.0600 
    238 H238       -6.8073  -18.2340  -57.7554 H         1 UNK         0.0600 
    239 H239       -5.2233  -17.7780  -58.3633 H         1 UNK         0.0600 
    240 H240       -3.2635  -18.9541  -54.9431 H         1 UNK         0.3000 
    241 H241       -2.5408  -17.6304  -53.4108 H         1 UNK         0.0600 
    242 H242       -2.5832  -14.7838  -55.9538 H         1 UNK         0.3800 
    243 H243       -2.8471  -16.4888  -56.2269 H         1 UNK         0.3800 
    244 H244       -4.1732  -16.4102  -51.8281 H         1 UNK         0.0800 
    245 H245       -5.4670  -16.9844  -52.8264 H         1 UNK         0.0800 
    246 H246       -3.5831  -19.1977  -49.4143 H         1 UNK         0.0800 
    247 H247       -3.7645  -17.4896  -49.6969 H         1 UNK         0.0800 
@<TRIPOS>BOND
     1    1    2 1    
     2    1  127 1    
     3    1  128 1    
     4    1  129 1    
     5    2    3 2    
     6    2    4 am   BACKBONE|DICT|INTERRES
     7    4    5 1    
     8    4  130 1    
     9    5    6 1    
    10    5   65 1    
    11    5  131 1    
    12    6    7 1    
    13    6  132 1    
    14    6  133 1    
    15    7    8 1    
    16    8    9 1    
    17    8  134 1    
    18    8  135 1    
    19    9   10 ar   
    20    9   14 ar   
    21   10   11 ar   
    22   10  136 1    
    23   11   12 ar   
    24   11  126 1    
    25   12   13 ar   
    26   12  137 1    
    27   13   14 ar   
    28   13   15 1    
    29   14  138 1    
    30   15   16 1    
    31   15  139 1    
    32   15  140 1    
    33   16   17 1    
    34   17   18 1    
    35   17  141 1    
    36   17  142 1    
    37   18   19 1    
    38   18   67 1    
    39   18  143 1    
    40   19   20 am   BACKBONE|DICT|INTERRES
    41   19  144 1    
    42   20   21 2    
    43   20   22 1    
    44   22   23 1    
    45   22   24 1    
    46   22  145 1    
    47   23  146 1    
    48   23  147 1    
    49   23  148 1    
    50   24   25 am   BACKBONE|DICT|INTERRES
    51   24  149 1    
    52   25   26 2    
    53   25   27 1    
    54   27   28 1    
    55   27   29 1    
    56   27  150 1    
    57   28  151 1    
    58   28  152 1    
    59   28  153 1    
    60   29   30 am   BACKBONE|DICT|INTERRES
    61   29  154 1    
    62   30   31 2    
    63   30   32 1    
    64   32   33 1    
    65   32   34 1    
    66   32  155 1    
    67   33  156 1    
    68   33  157 1    
    69   33  158 1    
    70   34   35 am   BACKBONE|DICT|INTERRES
    71   34  159 1    
    72   35   36 2    
    73   35   37 1    
    74   37   38 1    
    75   37   39 1    
    76   37  160 1    
    77   38  161 1    
    78   38  162 1    
    79   38  163 1    
    80   39   40 am   BACKBONE|DICT|INTERRES
    81   39  164 1    
    82   40   41 2    
    83   40   42 1    
    84   42   43 1    
    85   42   44 1    
    86   42  165 1    
    87   43  166 1    
    88   43  167 1    
    89   43  168 1    
    90   44   45 am   BACKBONE|DICT|INTERRES
    91   44  169 1    
    92   45   46 2    
    93   45   47 1    
    94   47   48 1    
    95   47   49 1    
    96   47  170 1    
    97   48  171 1    
    98   48  172 1    
    99   48  173 1    
   100   49   50 am   BACKBONE|DICT|INTERRES
   101   49  174 1    
   102   50   51 2    
   103   50   52 1    
   104   52   53 1    
   105   52   54 1    
   106   52  175 1    
   107   53  176 1    
   108   53  177 1    
   109   53  178 1    
   110   54   55 am   BACKBONE|DICT|INTERRES
   111   54  179 1    
   112   55   56 2    
   113   55   57 1    
   114   57   58 1    
   115   57   59 1    
   116   57  180 1    
   117   58  181 1    
   118   58  182 1    
   119   58  183 1    
   120   59   60 am   BACKBONE|DICT|INTERRES
   121   59  184 1    
   122   60   61 2    
   123   60   62 1    
   124   62   63 1    
   125   62   64 1    
   126   62  185 1    
   127   63  186 1    
   128   63  187 1    
   129   63  188 1    
   130   64   65 am   BACKBONE|DICT|INTERRES
   131   64  189 1    
   132   65   66 2    
   133   67   68 2    
   134   67   69 am   BACKBONE|DICT|INTERRES
   135   69   70 1    
   136   69  190 1    
   137   70   71 1    
   138   70   72 1    
   139   70  191 1    
   140   71  192 1    
   141   71  193 1    
   142   71  194 1    
   143   72   73 2    
   144   72   74 am   BACKBONE|DICT|INTERRES
   145   74   75 1    
   146   74  195 1    
   147   75   76 1    
   148   75   77 1    
   149   75  196 1    
   150   76  197 1    
   151   76  198 1    
   152   76  199 1    
   153   77   78 2    
   154   77   79 am   BACKBONE|DICT|INTERRES
   155   79   80 1    
   156   79  200 1    
   157   80   81 1    
   158   80   82 1    
   159   80  201 1    
   160   81  202 1    
   161   81  203 1    
   162   81  204 1    
   163   82   83 2    
   164   82   84 am   BACKBONE|DICT|INTERRES
   165   84   85 1    
   166   84  205 1    
   167   85   86 1    
   168   85   87 1    
   169   85  206 1    
   170   86  207 1    
   171   86  208 1    
   172   86  209 1    
   173   87   88 2    
   174   87   89 am   BACKBONE|DICT|INTERRES
   175   89   90 1    
   176   89  210 1    
   177   90   91 1    
   178   90   92 1    
   179   90  211 1    
   180   91  212 1    
   181   91  213 1    
   182   91  214 1    
   183   92   93 2    
   184   92   94 am   BACKBONE|DICT|INTERRES
   185   94   95 1    
   186   94  215 1    
   187   95   96 1    
   188   95   97 1    
   189   95  216 1    
   190   96  217 1    
   191   96  218 1    
   192   96  219 1    
   193   97   98 2    
   194   97   99 am   BACKBONE|DICT|INTERRES
   195   99  100 1    
   196   99  220 1    
   197  100  101 1    
   198  100  102 1    
   199  100  221 1    
   200  101  222 1    
   201  101  223 1    
   202  101  224 1    
   203  102  103 2    
   204  102  104 am   BACKBONE|DICT|INTERRES
   205  104  105 1    
   206  104  225 1    
   207  105  106 1    
   208  105  107 1    
   209  105  226 1    
   210  106  227 1    
   211  106  228 1    
   212  106  229 1    
   213  107  108 2    
   214  107  109 am   BACKBONE|DICT|INTERRES
   215  109  110 1    
   216  109  230 1    
   217  110  111 1    
   218  110  112 1    
   219  110  231 1    
   220  111  232 1    
   221  111  233 1    
   222  111  234 1    
   223  112  113 2    
   224  112  114 am   BACKBONE|DICT|INTERRES
   225  114  115 1    
   226  114  235 1    
   227  115  116 1    
   228  115  117 1    
   229  115  236 1    
   230  116  237 1    
   231  116  238 1    
   232  116  239 1    
   233  117  118 2    
   234  117  119 am   BACKBONE|DICT|INTERRES
   235  119  120 1    
   236  119  240 1    
   237  120  121 1    
   238  120  124 1    
   239  120  241 1    
   240  121  122 am   BACKBONE|DICT|INTERRES
   241  121  123 2    
   242  122  242 1    
   243  122  243 1    
   244  124  125 1    
   245  124  244 1    
   246  124  245 1    
   247  125  126 1    
   248  126  246 1    
   249  126  247 1    
@<TRIPOS>SUBSTRUCTURE
     1 UNK         1 GROUP             0       ****    0 ROOT    
