@<TRIPOS>MOLECULE
3R540
247   249    1
SMALL
USER_CHARGES


@<TRIPOS>ATOM
      1 CA          1.5915  -15.4007  -47.7818 C.3       0 UNK        -0.1800 
      2 C           0.1159  -15.1749  -48.0747 C.2       0 UNK         0.5000 
      3 O          -0.2418  -14.1460  -48.6450 O.2       0 UNK        -0.5000 
      4 N          -0.7435  -16.1209  -47.6728 N.am      1 UNK        -0.5000 
      5 CA         -2.1976  -16.1811  -47.9248 C.3       1 UNK         0.1400 
      6 C6         -2.5901  -16.2197  -49.4257 C.3       23 UNK        -0.0398 
      7 S7         -1.8434  -17.6487  -50.2826 S.3       23 UNK        -0.2404 
      8 C8         -0.6330  -16.8282  -51.3588 C.3       23 UNK        -0.0205 
      9 C9          0.5409  -17.7410  -51.6691 C.ar      23 UNK        -0.0193 
     10 C10         0.4920  -18.6060  -52.7633 C.ar      23 UNK        -0.1150 
     11 C11         1.5921  -19.4040  -53.0929 C.ar      23 UNK        -0.0193 
     12 C12         2.7432  -19.3399  -52.3004 C.ar      23 UNK        -0.1150 
     13 C13         2.7969  -18.4934  -51.1878 C.ar      23 UNK        -0.0193 
     14 C14         1.6912  -17.6984  -50.8781 C.ar      23 UNK        -0.1150 
     15 C15         4.0657  -18.4004  -50.3525 C.3       23 UNK        -0.0205 
     16 S16         4.3443  -19.8797  -49.3295 S.3       23 UNK        -0.2404 
     17 C17         3.1946  -19.6340  -47.9321 C.3       23 UNK        -0.0398 
     18 CA          2.4310  -20.9391  -47.5805 C.3       11 UNK         0.1400 
     19 N           2.3080  -21.1471  -46.1332 N.am      11 UNK        -0.5000 
     20 C           1.9786  -22.3201  -45.5705 C.2       10 UNK         0.5000 
     21 O           1.8073  -23.3612  -46.2049 O.2       10 UNK        -0.5000 
     22 CA          1.7616  -22.3283  -44.0475 C.3       10 UNK         0.1400 
     23 CB          3.0966  -22.5132  -43.3112 C.3       10 UNK        -0.1800 
     24 N           1.0829  -21.1247  -43.5623 N.am      10 UNK        -0.5000 
     25 C          -0.1665  -20.7708  -43.8962 C.2       9 UNK         0.5000 
     26 O          -0.8856  -21.4456  -44.6323 O.2       9 UNK        -0.5000 
     27 CA         -0.6835  -19.4231  -43.3573 C.3       9 UNK         0.1400 
     28 CB         -1.1945  -19.5640  -41.9161 C.3       9 UNK        -0.1800 
     29 N           0.3354  -18.3757  -43.4074 N.am      9 UNK        -0.5000 
     30 C           0.8164  -17.8314  -44.5338 C.2       8 UNK         0.5000 
     31 O           0.4033  -18.0930  -45.6647 O.2       8 UNK        -0.5000 
     32 CA          1.9830  -16.8456  -44.3643 C.3       8 UNK         0.1400 
     33 CB          1.4641  -15.4374  -44.0299 C.3       8 UNK        -0.1800 
     34 N           2.9319  -17.2878  -43.3418 N.am      8 UNK        -0.5000 
     35 C           3.7308  -18.3577  -43.4710 C.2       7 UNK         0.5000 
     36 O           3.7570  -19.0720  -44.4735 O.2       7 UNK        -0.5000 
     37 CA          4.6186  -18.7100  -42.2629 C.3       7 UNK         0.1400 
     38 CB          5.9096  -17.8784  -42.2812 C.3       7 UNK        -0.1800 
     39 N           3.9368  -18.5181  -40.9817 N.am      7 UNK        -0.5000 
     40 C           2.8753  -19.2274  -40.5723 C.2       6 UNK         0.5000 
     41 O           2.3736  -20.1413  -41.2228 O.2       6 UNK        -0.5000 
     42 CA          2.2278  -18.8070  -39.2404 C.3       6 UNK         0.1400 
     43 CB          2.9092  -19.5159  -38.0607 C.3       6 UNK        -0.1800 
     44 N           2.2487  -17.3587  -39.0182 N.am      6 UNK        -0.5000 
     45 C           1.6658  -16.4595  -39.8203 C.2       5 UNK         0.5000 
     46 O           1.0538  -16.7538  -40.8538 O.2       5 UNK        -0.5000 
     47 CA          1.8377  -14.9870  -39.4263 C.3       5 UNK         0.1400 
     48 CB          3.2404  -14.4771  -39.7981 C.3       5 UNK        -0.1800 
     49 N           0.8385  -14.2159  -40.1477 N.am      5 UNK        -0.5000 
     50 C           0.1899  -13.1347  -39.7070 C.2       4 UNK         0.5000 
     51 O           0.4287  -12.5825  -38.6322 O.2       4 UNK        -0.5000 
     52 CA         -0.9179  -12.5764  -40.6238 C.3       4 UNK         0.1400 
     53 CB         -0.4461  -11.2886  -41.3170 C.3       4 UNK        -0.1800 
     54 N          -1.3509  -13.5267  -41.6528 N.am      4 UNK        -0.5000 
     55 C          -2.1093  -14.6118  -41.4378 C.2       3 UNK         0.5000 
     56 O          -2.5412  -14.9288  -40.3287 O.2       3 UNK        -0.5000 
     57 CA         -2.4095  -15.4918  -42.6721 C.3       3 UNK         0.1400 
     58 CB         -3.6982  -16.3251  -42.5218 C.3       3 UNK        -0.1800 
     59 N          -2.4170  -14.7468  -43.9388 N.am      3 UNK        -0.5000 
     60 C          -3.2218  -13.7274  -44.2866 C.2       2 UNK         0.5000 
     61 O          -4.0927  -13.2519  -43.5580 O.2       2 UNK        -0.5000 
     62 CA         -3.0009  -13.1281  -45.6903 C.3       2 UNK         0.1400 
     63 CB         -2.0932  -11.8913  -45.6037 C.3       2 UNK        -0.1800 
     64 N          -2.4066  -14.0865  -46.6241 N.am      2 UNK        -0.5000 
     65 C          -3.0360  -15.1522  -47.1349 C.2       1 UNK         0.5000 
     66 O          -4.2332  -15.3747  -46.9520 O.2       1 UNK        -0.5000 
     67 C           1.0644  -21.0214  -48.2954 C.2       11 UNK         0.5000 
     68 O           1.0058  -21.5067  -49.4235 O.2       11 UNK        -0.5000 
     69 N          -0.0061  -20.5840  -47.6128 N.am      12 UNK        -0.5000 
     70 CA         -1.3915  -20.6691  -48.0809 C.3       12 UNK         0.1400 
     71 CB         -2.2999  -19.8555  -47.1435 C.3       12 UNK        -0.1800 
     72 C          -1.9036  -22.1171  -48.1765 C.2       12 UNK         0.5000 
     73 O          -2.6463  -22.4390  -49.1055 O.2       12 UNK        -0.5000 
     74 N          -1.5050  -22.9432  -47.1995 N.am      13 UNK        -0.5000 
     75 CA         -1.9209  -24.3298  -46.9837 C.3       13 UNK         0.1400 
     76 CB         -1.5303  -25.2176  -48.1869 C.3       13 UNK        -0.1800 
     77 C          -3.4134  -24.4436  -46.5989 C.2       13 UNK         0.5000 
     78 O          -4.0383  -23.4485  -46.2175 O.2       13 UNK        -0.5000 
     79 N          -3.9508  -25.6701  -46.6609 N.am      14 UNK        -0.5000 
     80 CA         -5.3311  -26.0151  -46.3145 C.3       14 UNK         0.1400 
     81 CB         -5.5405  -27.5234  -46.5172 C.3       14 UNK        -0.1800 
     82 C          -6.3539  -25.2089  -47.1345 C.2       14 UNK         0.5000 
     83 O          -6.2683  -25.1924  -48.3638 O.2       14 UNK        -0.5000 
     84 N          -7.2663  -24.5226  -46.4313 N.am      15 UNK        -0.5000 
     85 CA         -8.3164  -23.6394  -46.9605 C.3       15 UNK         0.1400 
     86 CB         -9.3721  -24.4656  -47.7252 C.3       15 UNK        -0.1800 
     87 C          -7.7903  -22.4487  -47.7976 C.2       15 UNK         0.5000 
     88 O          -8.5547  -21.8676  -48.5695 O.2       15 UNK        -0.5000 
     89 N          -6.4982  -22.1168  -47.6418 N.am      16 UNK        -0.5000 
     90 CA         -5.7314  -21.1421  -48.4232 C.3       16 UNK         0.1400 
     91 CB         -6.2104  -19.7021  -48.1449 C.3       16 UNK        -0.1800 
     92 C          -5.6677  -21.4791  -49.9307 C.2       16 UNK         0.5000 
     93 O          -5.5936  -20.5702  -50.7592 O.2       16 UNK        -0.5000 
     94 N          -5.6957  -22.7796  -50.2650 N.am      17 UNK        -0.5000 
     95 CA         -5.7561  -23.3105  -51.6303 C.3       17 UNK         0.1400 
     96 CB         -5.8466  -24.8422  -51.5737 C.3       17 UNK        -0.1800 
     97 C          -4.6040  -22.8791  -52.5575 C.2       17 UNK         0.5000 
     98 O          -4.8022  -22.8251  -53.7732 O.2       17 UNK        -0.5000 
     99 N          -3.4358  -22.5415  -51.9912 N.am      18 UNK        -0.5000 
    100 CA        -2.2842  -22.0436  -52.7450 C.3       18 UNK         0.1400 
    101 CB        -1.0587  -21.9584  -51.8316 C.3       18 UNK        -0.1800 
    102 C         -2.5401  -20.6895  -53.4346 C.2       18 UNK         0.5000 
    103 O         -1.8979  -20.4059  -54.4449 O.2       18 UNK        -0.5000 
    104 N         -3.5045  -19.9004  -52.9355 N.am      19 UNK        -0.5000 
    105 CA        -3.9316  -18.6374  -53.5435 C.3       19 UNK         0.1400 
    106 CB        -4.9656  -17.9551  -52.6358 C.3       19 UNK        -0.1800 
    107 C         -4.4952  -18.8059  -54.9699 C.2       19 UNK         0.5000 
    108 O         -4.3842  -17.8798  -55.7734 O.2       19 UNK        -0.5000 
    109 N         -5.0618  -19.9853  -55.2672 N.am      20 UNK        -0.5000 
    110 CA        -5.4774  -20.3763  -56.6119 C.3       20 UNK         0.1400 
    111 CB        -6.5684  -21.4543  -56.5206 C.3       20 UNK        -0.1800 
    112 C         -4.2838  -20.8737  -57.4471 C.2       20 UNK         0.5000 
    113 O         -4.1719  -20.5070  -58.6170 O.2       20 UNK        -0.5000 
    114 N         -3.4050  -21.6809  -56.8331 N.am      21 UNK        -0.5000 
    115 CA        -2.2344  -22.2958  -57.4693 C.3       21 UNK         0.1400 
    116 CB        -1.5769  -23.2866  -56.4963 C.3       21 UNK        -0.1800 
    117 C         -1.2024  -21.2727  -57.9809 C.2       21 UNK         0.5000 
    118 O         -0.7149  -21.4143  -59.1032 O.2       21 UNK        -0.5000 
    119 N         -0.9208  -20.2484  -57.1673 N.am      22 UNK        -0.5000 
    120 CA        -0.0984  -19.0834  -57.5387 C.3       22 UNK         0.1400 
    121 C         -0.8928  -17.9691  -58.2895 C.2       22 UNK         0.5000 
    122 N         -2.1598  -18.1549  -58.6407 N.am      22 UNK        -0.7600 
    123 O         -0.3416  -16.9120  -58.5844 O.2       22 UNK        -0.5000 
    124 C124        0.6815  -18.5204  -56.3193 C.3       23 UNK        -0.0398 
    125 S125        2.0957  -19.5742  -55.8350 S.3       23 UNK        -0.2404 
    126 C126        1.5370  -20.3504  -54.2866 C.3       23 UNK        -0.0205 
    127 H127        1.9115  -14.7791  -46.9465 H         1 UNK         0.0600 
    128 H128        2.1924  -15.1310  -48.6502 H         1 UNK         0.0600 
    129 H129        1.7960  -16.4437  -47.5426 H         1 UNK         0.0600 
    130 H130       -0.3748  -16.9184  -47.1637 H         1 UNK         0.3000 
    131 H131       -2.5131  -17.1315  -47.5045 H         1 UNK         0.0600 
    132 H132       -2.3226  -15.2886  -49.9268 H         1 UNK         0.0800 
    133 H133       -3.6721  -16.3155  -49.5326 H         1 UNK         0.0800 
    134 H134       -1.1268  -16.5189  -52.2811 H         1 UNK         0.0800 
    135 H135       -0.2658  -15.9150  -50.8903 H         1 UNK         0.0800 
    136 H136       -0.4073  -18.6471  -53.3566 H         1 UNK         0.1150 
    137 H137        3.5999  -19.9512  -52.5472 H         1 UNK         0.1150 
    138 H138        1.7302  -17.0320  -50.0310 H         1 UNK         0.1150 
    139 H139        4.9175  -18.2777  -51.0229 H         1 UNK         0.0800 
    140 H140        4.0538  -17.5139  -49.7163 H         1 UNK         0.0800 
    141 H141        2.5135  -18.8045  -48.1306 H         1 UNK         0.0800 
    142 H142        3.8084  -19.3115  -47.0910 H         1 UNK         0.0800 
    143 H143        3.0186  -21.7843  -47.9466 H         1 UNK         0.0600 
    144 H144        2.4969  -20.3511  -45.5336 H         1 UNK         0.3000 
    145 H145        1.1255  -23.1837  -43.8105 H         1 UNK         0.0600 
    146 H146        2.9433  -22.6190  -42.2372 H         1 UNK         0.0600 
    147 H147        3.6111  -23.4116  -43.6544 H         1 UNK         0.0600 
    148 H148        3.7665  -21.6692  -43.4740 H         1 UNK         0.0600 
    149 H149        1.5908  -20.5625  -42.8846 H         1 UNK         0.3000 
    150 H150       -1.5208  -19.1116  -43.9856 H         1 UNK         0.0600 
    151 H151       -1.9907  -20.3070  -41.8560 H         1 UNK         0.0600 
    152 H152       -1.5989  -18.6217  -41.5464 H         1 UNK         0.0600 
    153 H153       -0.4019  -19.8756  -41.2354 H         1 UNK         0.0600 
    154 H154        0.7255  -18.0741  -42.5218 H         1 UNK         0.3000 
    155 H155        2.5178  -16.7962  -45.3140 H         1 UNK         0.0600 
    156 H156        2.2824  -14.7191  -43.9777 H         1 UNK         0.0600 
    157 H157        0.9365  -15.4119  -43.0779 H         1 UNK         0.0600 
    158 H158        0.7702  -15.0838  -44.7928 H         1 UNK         0.0600 
    159 H159        2.9253  -16.7882  -42.4651 H         1 UNK         0.3000 
    160 H160        4.8912  -19.7640  -42.3460 H         1 UNK         0.0600 
    161 H161        5.7057  -16.8125  -42.1711 H         1 UNK         0.0600 
    162 H162        6.4480  -18.0147  -43.2201 H         1 UNK         0.0600 
    163 H163        6.5819  -18.1767  -41.4766 H         1 UNK         0.0600 
    164 H164        4.2839  -17.7831  -40.3836 H         1 UNK         0.3000 
    165 H165        1.1828  -19.1223  -39.2707 H         1 UNK         0.0600 
    166 H166        2.4013  -19.2961  -37.1215 H         1 UNK         0.0600 
    167 H167        2.8906  -20.5986  -38.1927 H         1 UNK         0.0600 
    168 H168        3.9527  -19.2156  -37.9574 H         1 UNK         0.0600 
    169 H169        2.7381  -17.0378  -38.1950 H         1 UNK         0.3000 
    170 H170        1.6780  -14.8945  -38.3500 H         1 UNK         0.0600 
    171 H171        4.0160  -15.0315  -39.2687 H         1 UNK         0.0600 
    172 H172        3.4344  -14.5757  -40.8670 H         1 UNK         0.0600 
    173 H173        3.3582  -13.4259  -39.5342 H         1 UNK         0.0600 
    174 H174        0.5254  -14.6527  -41.0035 H         1 UNK         0.3000 
    175 H175       -1.7759  -12.3338  -39.9935 H         1 UNK         0.0600 
    176 H176        0.4113  -11.4716  -41.9661 H         1 UNK         0.0600 
    177 H177       -1.2405  -10.8531  -41.9236 H         1 UNK         0.0600 
    178 H178       -0.1488  -10.5366  -40.5849 H         1 UNK         0.0600 
    179 H179       -1.0528  -13.3327  -42.5967 H         1 UNK         0.3000 
    180 H180       -1.5778  -16.1944  -42.7392 H         1 UNK         0.0600 
    181 H181       -3.8621  -16.9560  -43.3955 H         1 UNK         0.0600 
    182 H182       -4.5768  -15.6921  -42.3949 H         1 UNK         0.0600 
    183 H183       -3.6417  -16.9839  -41.6546 H         1 UNK         0.0600 
    184 H184       -1.7468  -15.0514  -44.6287 H         1 UNK         0.3000 
    185 H185       -3.9730  -12.8184  -46.0796 H         1 UNK         0.0600 
    186 H186       -2.5132  -11.1441  -44.9290 H         1 UNK         0.0600 
    187 H187       -1.0984  -12.1447  -45.2349 H         1 UNK         0.0600 
    188 H188       -1.9783  -11.4185  -46.5793 H         1 UNK         0.0600 
    189 H189       -1.4465  -13.9310  -46.9046 H         1 UNK         0.3000 
    190 H190        0.1350  -20.1872  -46.6935 H         1 UNK         0.3000 
    191 H191       -1.4278  -20.2210  -49.0729 H         1 UNK         0.0600 
    192 H192       -3.1572  -19.4620  -47.6887 H         1 UNK         0.0600 
    193 H193       -1.7727  -19.0135  -46.7030 H         1 UNK         0.0600 
    194 H194       -2.6880  -20.4531  -46.3174 H         1 UNK         0.0600 
    195 H195       -0.9763  -22.5293  -46.4398 H         1 UNK         0.3000 
    196 H196       -1.3534  -24.6730  -46.1178 H         1 UNK         0.0600 
    197 H197       -2.1754  -25.0434  -49.0489 H         1 UNK         0.0600 
    198 H198       -0.5026  -25.0265  -48.4968 H         1 UNK         0.0600 
    199 H199       -1.5944  -26.2769  -47.9376 H         1 UNK         0.0600 
    200 H200       -3.3789  -26.4275  -47.0035 H         1 UNK         0.3000 
    201 H201       -5.4687  -25.7904  -45.2549 H         1 UNK         0.0600 
    202 H202       -5.3767  -27.8161  -47.5553 H         1 UNK         0.0600 
    203 H203       -6.5572  -27.8153  -46.2509 H         1 UNK         0.0600 
    204 H204       -4.8622  -28.1049  -45.8926 H         1 UNK         0.0600 
    205 H205       -7.2272  -24.5795  -45.4228 H         1 UNK         0.3000 
    206 H206       -8.8083  -23.1988  -46.0923 H         1 UNK         0.0600 
    207 H207       -9.7394  -25.2941  -47.1197 H         1 UNK         0.0600 
    208 H208      -10.2351  -23.8536  -47.9899 H         1 UNK         0.0600 
    209 H209       -8.9691  -24.8788  -48.6504 H         1 UNK         0.0600 
    210 H210       -5.9451  -22.6658  -46.9931 H         1 UNK         0.3000 
    211 H211       -4.7115  -21.2188  -48.0538 H         1 UNK         0.0600 
    212 H212       -5.5488  -18.9724  -48.6137 H         1 UNK         0.0600 
    213 H213       -6.2191  -19.4892  -47.0761 H         1 UNK         0.0600 
    214 H214       -7.2142  -19.5266  -48.5322 H         1 UNK         0.0600 
    215 H215       -5.7568  -23.4667  -49.5217 H         1 UNK         0.3000 
    216 H216       -6.6778  -22.9343  -52.0781 H         1 UNK         0.0600 
    217 H217       -4.9899  -25.2748  -51.0552 H         1 UNK         0.0600 
    218 H218       -5.8793  -25.2733  -52.5752 H         1 UNK         0.0600 
    219 H219       -6.7502  -25.1636  -51.0554 H         1 UNK         0.0600 
    220 H220       -3.3380  -22.5851  -50.9802 H         1 UNK         0.3000 
    221 H221       -2.0692  -22.7777  -53.5224 H         1 UNK         0.0600 
    222 H222       -1.1486  -21.1350  -51.1250 H         1 UNK         0.0600 
    223 H223       -0.1502  -21.7885  -52.4072 H         1 UNK         0.0600 
    224 H224       -0.9119  -22.8786  -51.2659 H         1 UNK         0.0600 
    225 H225       -4.0243  -20.2085  -52.1204 H         1 UNK         0.3000 
    226 H226       -3.0537  -17.9913  -53.6080 H         1 UNK         0.0600 
    227 H227       -5.8841  -18.5389  -52.5653 H         1 UNK         0.0600 
    228 H228       -4.5799  -17.8178  -51.6259 H         1 UNK         0.0600 
    229 H229       -5.2316  -16.9697  -53.0200 H         1 UNK         0.0600 
    230 H230       -5.0964  -20.7020  -54.5535 H         1 UNK         0.3000 
    231 H231       -5.9069  -19.5096  -57.1192 H         1 UNK         0.0600 
    232 H232       -6.2050  -22.3617  -56.0375 H         1 UNK         0.0600 
    233 H233       -6.9233  -21.7325  -57.5137 H         1 UNK         0.0600 
    234 H234       -7.4295  -21.0963  -55.9562 H         1 UNK         0.0600 
    235 H235       -3.5626  -21.9094  -55.8622 H         1 UNK         0.3000 
    236 H236       -2.5959  -22.8608  -58.3310 H         1 UNK         0.0600 
    237 H237       -2.2997  -24.0037  -56.1068 H         1 UNK         0.0600 
    238 H238       -0.7916  -23.8545  -56.9965 H         1 UNK         0.0600 
    239 H239       -1.1158  -22.7756  -55.6514 H         1 UNK         0.0600 
    240 H240       -1.3547  -20.2231  -56.2473 H         1 UNK         0.3000 
    241 H241        0.6469  -19.4127  -58.2649 H         1 UNK         0.0600 
    242 H242       -2.6459  -17.4182  -59.1266 H         1 UNK         0.3800 
    243 H243       -2.6362  -19.0280  -58.4588 H         1 UNK         0.3800 
    244 H244        0.0032  -18.3618  -55.4842 H         1 UNK         0.0800 
    245 H245        1.1064  -17.5405  -56.5426 H         1 UNK         0.0800 
    246 H246        2.1705  -21.2163  -54.0893 H         1 UNK         0.0800 
    247 H247        0.5358  -20.7489  -54.4262 H         1 UNK         0.0800 
@<TRIPOS>BOND
     1    1    2 1    
     2    1  127 1    
     3    1  128 1    
     4    1  129 1    
     5    2    3 2    
     6    2    4 am   BACKBONE|DICT|INTERRES
     7    4    5 1    
     8    4  130 1    
     9    5    6 1    
    10    5   65 1    
    11    5  131 1    
    12    6    7 1    
    13    6  132 1    
    14    6  133 1    
    15    7    8 1    
    16    8    9 1    
    17    8  134 1    
    18    8  135 1    
    19    9   10 ar   
    20    9   14 ar   
    21   10   11 ar   
    22   10  136 1    
    23   11   12 ar   
    24   11  126 1    
    25   12   13 ar   
    26   12  137 1    
    27   13   14 ar   
    28   13   15 1    
    29   14  138 1    
    30   15   16 1    
    31   15  139 1    
    32   15  140 1    
    33   16   17 1    
    34   17   18 1    
    35   17  141 1    
    36   17  142 1    
    37   18   19 1    
    38   18   67 1    
    39   18  143 1    
    40   19   20 am   BACKBONE|DICT|INTERRES
    41   19  144 1    
    42   20   21 2    
    43   20   22 1    
    44   22   23 1    
    45   22   24 1    
    46   22  145 1    
    47   23  146 1    
    48   23  147 1    
    49   23  148 1    
    50   24   25 am   BACKBONE|DICT|INTERRES
    51   24  149 1    
    52   25   26 2    
    53   25   27 1    
    54   27   28 1    
    55   27   29 1    
    56   27  150 1    
    57   28  151 1    
    58   28  152 1    
    59   28  153 1    
    60   29   30 am   BACKBONE|DICT|INTERRES
    61   29  154 1    
    62   30   31 2    
    63   30   32 1    
    64   32   33 1    
    65   32   34 1    
    66   32  155 1    
    67   33  156 1    
    68   33  157 1    
    69   33  158 1    
    70   34   35 am   BACKBONE|DICT|INTERRES
    71   34  159 1    
    72   35   36 2    
    73   35   37 1    
    74   37   38 1    
    75   37   39 1    
    76   37  160 1    
    77   38  161 1    
    78   38  162 1    
    79   38  163 1    
    80   39   40 am   BACKBONE|DICT|INTERRES
    81   39  164 1    
    82   40   41 2    
    83   40   42 1    
    84   42   43 1    
    85   42   44 1    
    86   42  165 1    
    87   43  166 1    
    88   43  167 1    
    89   43  168 1    
    90   44   45 am   BACKBONE|DICT|INTERRES
    91   44  169 1    
    92   45   46 2    
    93   45   47 1    
    94   47   48 1    
    95   47   49 1    
    96   47  170 1    
    97   48  171 1    
    98   48  172 1    
    99   48  173 1    
   100   49   50 am   BACKBONE|DICT|INTERRES
   101   49  174 1    
   102   50   51 2    
   103   50   52 1    
   104   52   53 1    
   105   52   54 1    
   106   52  175 1    
   107   53  176 1    
   108   53  177 1    
   109   53  178 1    
   110   54   55 am   BACKBONE|DICT|INTERRES
   111   54  179 1    
   112   55   56 2    
   113   55   57 1    
   114   57   58 1    
   115   57   59 1    
   116   57  180 1    
   117   58  181 1    
   118   58  182 1    
   119   58  183 1    
   120   59   60 am   BACKBONE|DICT|INTERRES
   121   59  184 1    
   122   60   61 2    
   123   60   62 1    
   124   62   63 1    
   125   62   64 1    
   126   62  185 1    
   127   63  186 1    
   128   63  187 1    
   129   63  188 1    
   130   64   65 am   BACKBONE|DICT|INTERRES
   131   64  189 1    
   132   65   66 2    
   133   67   68 2    
   134   67   69 am   BACKBONE|DICT|INTERRES
   135   69   70 1    
   136   69  190 1    
   137   70   71 1    
   138   70   72 1    
   139   70  191 1    
   140   71  192 1    
   141   71  193 1    
   142   71  194 1    
   143   72   73 2    
   144   72   74 am   BACKBONE|DICT|INTERRES
   145   74   75 1    
   146   74  195 1    
   147   75   76 1    
   148   75   77 1    
   149   75  196 1    
   150   76  197 1    
   151   76  198 1    
   152   76  199 1    
   153   77   78 2    
   154   77   79 am   BACKBONE|DICT|INTERRES
   155   79   80 1    
   156   79  200 1    
   157   80   81 1    
   158   80   82 1    
   159   80  201 1    
   160   81  202 1    
   161   81  203 1    
   162   81  204 1    
   163   82   83 2    
   164   82   84 am   BACKBONE|DICT|INTERRES
   165   84   85 1    
   166   84  205 1    
   167   85   86 1    
   168   85   87 1    
   169   85  206 1    
   170   86  207 1    
   171   86  208 1    
   172   86  209 1    
   173   87   88 2    
   174   87   89 am   BACKBONE|DICT|INTERRES
   175   89   90 1    
   176   89  210 1    
   177   90   91 1    
   178   90   92 1    
   179   90  211 1    
   180   91  212 1    
   181   91  213 1    
   182   91  214 1    
   183   92   93 2    
   184   92   94 am   BACKBONE|DICT|INTERRES
   185   94   95 1    
   186   94  215 1    
   187   95   96 1    
   188   95   97 1    
   189   95  216 1    
   190   96  217 1    
   191   96  218 1    
   192   96  219 1    
   193   97   98 2    
   194   97   99 am   BACKBONE|DICT|INTERRES
   195   99  100 1    
   196   99  220 1    
   197  100  101 1    
   198  100  102 1    
   199  100  221 1    
   200  101  222 1    
   201  101  223 1    
   202  101  224 1    
   203  102  103 2    
   204  102  104 am   BACKBONE|DICT|INTERRES
   205  104  105 1    
   206  104  225 1    
   207  105  106 1    
   208  105  107 1    
   209  105  226 1    
   210  106  227 1    
   211  106  228 1    
   212  106  229 1    
   213  107  108 2    
   214  107  109 am   BACKBONE|DICT|INTERRES
   215  109  110 1    
   216  109  230 1    
   217  110  111 1    
   218  110  112 1    
   219  110  231 1    
   220  111  232 1    
   221  111  233 1    
   222  111  234 1    
   223  112  113 2    
   224  112  114 am   BACKBONE|DICT|INTERRES
   225  114  115 1    
   226  114  235 1    
   227  115  116 1    
   228  115  117 1    
   229  115  236 1    
   230  116  237 1    
   231  116  238 1    
   232  116  239 1    
   233  117  118 2    
   234  117  119 am   BACKBONE|DICT|INTERRES
   235  119  120 1    
   236  119  240 1    
   237  120  121 1    
   238  120  124 1    
   239  120  241 1    
   240  121  122 am   BACKBONE|DICT|INTERRES
   241  121  123 2    
   242  122  242 1    
   243  122  243 1    
   244  124  125 1    
   245  124  244 1    
   246  124  245 1    
   247  125  126 1    
   248  126  246 1    
   249  126  247 1    
@<TRIPOS>SUBSTRUCTURE
     1 UNK         1 GROUP             0       ****    0 ROOT    
