@<TRIPOS>MOLECULE
3R540
247   249    1
SMALL
USER_CHARGES


@<TRIPOS>ATOM
      1 CA          5.7887   -9.7182  -47.2128 C.3       0 UNK        -0.1800 
      2 C           5.4381  -11.1972  -47.3011 C.2       0 UNK         0.5000 
      3 O           6.1956  -12.0333  -46.8080 O.2       0 UNK        -0.5000 
      4 N           4.3010  -11.5140  -47.9331 N.am      1 UNK        -0.5000 
      5 CA          3.7425  -12.8635  -48.0490 C.3       1 UNK         0.1400 
      6 C6          3.1730  -13.1087  -49.4722 C.3       23 UNK        -0.0398 
      7 S7          2.9186  -14.8813  -49.8261 S.3       23 UNK        -0.2404 
      8 C8          1.7078  -14.8101  -51.1808 C.3       23 UNK        -0.0205 
      9 C9          0.8648  -16.0732  -51.2054 C.ar      23 UNK        -0.0193 
     10 C10         1.2747  -17.1906  -51.9366 C.ar      23 UNK        -0.1150 
     11 C11         0.5026  -18.3560  -51.9406 C.ar      23 UNK        -0.0193 
     12 C12        -0.6846  -18.3977  -51.2031 C.ar      23 UNK        -0.1150 
     13 C13        -1.1065  -17.2845  -50.4640 C.ar      23 UNK        -0.0193 
     14 C14        -0.3276  -16.1253  -50.4811 C.ar      23 UNK        -0.1150 
     15 C15        -2.4061  -17.2790  -49.6620 C.3       23 UNK        -0.0205 
     16 S16        -2.9265  -18.9060  -49.0289 S.3       23 UNK        -0.2404 
     17 C17        -1.6792  -19.2284  -47.7350 C.3       23 UNK        -0.0398 
     18 CA         -1.3043  -20.7256  -47.6021 C.3       11 UNK         0.1400 
     19 N          -0.1969  -20.9234  -46.6627 N.am      11 UNK        -0.5000 
     20 C           0.4228  -22.0899  -46.4319 C.2       10 UNK         0.5000 
     21 O           0.1726  -23.1292  -47.0399 O.2       10 UNK        -0.5000 
     22 CA          1.4524  -22.1209  -45.2880 C.3       10 UNK         0.1400 
     23 CB          2.8037  -21.5562  -45.7485 C.3       10 UNK        -0.1800 
     24 N           0.9871  -21.4087  -44.0962 N.am      10 UNK        -0.5000 
     25 C          -0.0895  -21.7639  -43.3790 C.2       9 UNK         0.5000 
     26 O          -0.7662  -22.7636  -43.6166 O.2       9 UNK        -0.5000 
     27 CA         -0.5157  -20.8221  -42.2389 C.3       9 UNK         0.1400 
     28 CB          0.3199  -21.0754  -40.9757 C.3       9 UNK        -0.1800 
     29 N          -0.4336  -19.4107  -42.6154 N.am      9 UNK        -0.5000 
     30 C          -1.1659  -18.8373  -43.5816 C.2       8 UNK         0.5000 
     31 O          -2.0317  -19.4300  -44.2252 O.2       8 UNK        -0.5000 
     32 CA         -0.8334  -17.3740  -43.9281 C.3       8 UNK         0.1400 
     33 CB         -1.4593  -16.4137  -42.9072 C.3       8 UNK        -0.1800 
     34 N           0.6095  -17.1421  -44.0112 N.am      8 UNK        -0.5000 
     35 C           1.4153  -17.7266  -44.9098 C.2       7 UNK         0.5000 
     36 O           1.0075  -18.4501  -45.8175 O.2       7 UNK        -0.5000 
     37 CA          2.9297  -17.5181  -44.7353 C.3       7 UNK         0.1400 
     38 CB          3.4067  -16.2408  -45.4334 C.3       7 UNK        -0.1800 
     39 N           3.3208  -17.4760  -43.3281 N.am      7 UNK        -0.5000 
     40 C           3.3560  -18.5482  -42.5267 C.2       6 UNK         0.5000 
     41 O           3.0903  -19.6899  -42.9015 O.2       6 UNK        -0.5000 
     42 CA          3.7072  -18.2890  -41.0506 C.3       6 UNK         0.1400 
     43 CB          5.2283  -18.1881  -40.8635 C.3       6 UNK        -0.1800 
     44 N           3.0705  -17.0782  -40.5277 N.am      6 UNK        -0.5000 
     45 C           1.7481  -16.9364  -40.3617 C.2       5 UNK         0.5000 
     46 O           0.9313  -17.8203  -40.6164 O.2       5 UNK        -0.5000 
     47 CA          1.2494  -15.5679  -39.8633 C.3       5 UNK         0.1400 
     48 CB          1.2560  -15.5200  -38.3283 C.3       5 UNK        -0.1800 
     49 N           2.0099  -14.4299  -40.3879 N.am      5 UNK        -0.5000 
     50 C           2.0999  -14.1028  -41.6833 C.2       4 UNK         0.5000 
     51 O           1.6249  -14.7819  -42.5977 O.2       4 UNK        -0.5000 
     52 CA          2.8870  -12.8241  -42.0135 C.3       4 UNK         0.1400 
     53 CB          4.3073  -13.1772  -42.4807 C.3       4 UNK        -0.1800 
     54 N           2.2092  -12.0772  -43.0683 N.am      4 UNK        -0.5000 
     55 C           1.1473  -11.2781  -42.8809 C.2       3 UNK         0.5000 
     56 O           0.7108  -10.9725  -41.7705 O.2       3 UNK        -0.5000 
     57 CA          0.4380  -10.7494  -44.1471 C.3       3 UNK         0.1400 
     58 CB          1.0424   -9.4070  -44.5861 C.3       3 UNK        -0.1800 
     59 N           0.5387  -11.7019  -45.2515 N.am      3 UNK        -0.5000 
     60 C          -0.0916  -12.8816  -45.2864 C.2       2 UNK         0.5000 
     61 O          -1.0590  -13.1424  -44.5712 O.2       2 UNK        -0.5000 
     62 CA          0.4704  -13.9689  -46.2330 C.3       2 UNK         0.1400 
     63 CB         -0.6429  -14.6841  -47.0161 C.3       2 UNK        -0.1800 
     64 N           1.5228  -13.5558  -47.1761 N.am      2 UNK        -0.5000 
     65 C           2.7492  -13.0951  -46.8840 C.2       1 UNK         0.5000 
     66 O           3.1064  -12.8408  -45.7326 O.2       1 UNK        -0.5000 
     67 C          -2.5231  -21.5988  -47.2306 C.2       11 UNK         0.5000 
     68 O          -3.0601  -22.2929  -48.0956 O.2       11 UNK        -0.5000 
     69 N          -2.9219  -21.5774  -45.9515 N.am      12 UNK        -0.5000 
     70 CA         -4.0218  -22.3804  -45.4155 C.3       12 UNK         0.1400 
     71 CB         -4.2792  -21.9894  -43.9531 C.3       12 UNK        -0.1800 
     72 C          -3.7869  -23.8974  -45.5466 C.2       12 UNK         0.5000 
     73 O          -4.7263  -24.6285  -45.8587 O.2       12 UNK        -0.5000 
     74 N          -2.5426  -24.3355  -45.3213 N.am      13 UNK        -0.5000 
     75 CA         -2.1278  -25.7314  -45.4079 C.3       13 UNK         0.1400 
     76 CB         -0.8265  -25.9256  -44.6118 C.3       13 UNK        -0.1800 
     77 C          -1.9642  -26.2217  -46.8578 C.2       13 UNK         0.5000 
     78 O          -2.6141  -27.1933  -47.2455 O.2       13 UNK        -0.5000 
     79 N          -1.0681  -25.5787  -47.6178 N.am      14 UNK        -0.5000 
     80 CA         -0.5818  -26.0829  -48.9029 C.3       14 UNK         0.1400 
     81 CB          0.8653  -25.6125  -49.1186 C.3       14 UNK        -0.1800 
     82 C          -1.4587  -25.6647  -50.0912 C.2       14 UNK         0.5000 
     83 O          -1.6622  -26.4712  -50.9994 O.2       14 UNK        -0.5000 
     84 N          -1.9528  -24.4202  -50.0760 N.am      15 UNK        -0.5000 
     85 CA         -2.7578  -23.8459  -51.1585 C.3       15 UNK         0.1400 
     86 CB         -2.3051  -22.3969  -51.4068 C.3       15 UNK        -0.1800 
     87 C          -4.2683  -23.9109  -50.8676 C.2       15 UNK         0.5000 
     88 O          -5.0563  -23.4298  -51.6843 O.2       15 UNK        -0.5000 
     89 N          -4.6432  -24.4598  -49.7015 N.am      16 UNK        -0.5000 
     90 CA         -6.0041  -24.5613  -49.1646 C.3       16 UNK         0.1400 
     91 CB         -6.8285  -25.5817  -49.9746 C.3       16 UNK        -0.1800 
     92 C          -6.6882  -23.1838  -49.0263 C.2       16 UNK         0.5000 
     93 O          -7.8709  -23.0445  -49.3390 O.2       16 UNK        -0.5000 
     94 N          -5.9044  -22.1882  -48.5841 N.am      17 UNK        -0.5000 
     95 CA         -6.2430  -20.7647  -48.4869 C.3       17 UNK         0.1400 
     96 CB         -7.4138  -20.5214  -47.5114 C.3       17 UNK        -0.1800 
     97 C          -6.4436  -20.1205  -49.8757 C.2       17 UNK         0.5000 
     98 O          -7.3556  -19.3130  -50.0612 O.2       17 UNK        -0.5000 
     99 N          -5.5667  -20.5002  -50.8182 N.am      18 UNK        -0.5000 
    100 CA        -5.5067  -20.0707  -52.2183 C.3       18 UNK         0.1400 
    101 CB        -5.1356  -18.5781  -52.3274 C.3       18 UNK        -0.1800 
    102 C         -6.7709  -20.4538  -53.0109 C.2       18 UNK         0.5000 
    103 O         -7.3311  -19.6316  -53.7391 O.2       18 UNK        -0.5000 
    104 N         -7.1897  -21.7187  -52.8760 N.am      19 UNK        -0.5000 
    105 CA        -8.3304  -22.3052  -53.5824 C.3       19 UNK         0.1400 
    106 CB        -8.8799  -23.4800  -52.7567 C.3       19 UNK        -0.1800 
    107 C         -7.9258  -22.7232  -55.0103 C.2       19 UNK         0.5000 
    108 O         -7.8999  -23.9131  -55.3259 O.2       19 UNK        -0.5000 
    109 N         -7.5397  -21.7299  -55.8236 N.am      20 UNK        -0.5000 
    110 CA        -7.0240  -21.8043  -57.2005 C.3       20 UNK         0.1400 
    111 CB        -8.0392  -22.4781  -58.1447 C.3       20 UNK        -0.1800 
    112 C         -5.6193  -22.4338  -57.3398 C.2       20 UNK         0.5000 
    113 O         -4.9927  -22.2747  -58.3879 O.2       20 UNK        -0.5000 
    114 N         -5.1271  -23.1011  -56.2879 N.am      21 UNK        -0.5000 
    115 CA        -3.7910  -23.6938  -56.1942 C.3       21 UNK         0.1400 
    116 CB        -3.7791  -24.6757  -55.0128 C.3       21 UNK        -0.1800 
    117 C         -2.6661  -22.6500  -56.0370 C.2       21 UNK         0.5000 
    118 O         -1.5011  -22.9761  -56.2656 O.2       21 UNK        -0.5000 
    119 N         -3.0295  -21.4228  -55.6525 N.am      22 UNK        -0.5000 
    120 CA        -2.1526  -20.2563  -55.5280 C.3       22 UNK         0.1400 
    121 C         -2.9731  -18.9442  -55.6780 C.2       22 UNK         0.5000 
    122 N         -2.3390  -17.7869  -55.5599 N.am      22 UNK        -0.7600 
    123 O         -4.1820  -18.9634  -55.9049 O.2       22 UNK        -0.5000 
    124 C124       -1.2936  -20.3069  -54.2340 C.3       23 UNK        -0.0398 
    125 S125        0.3474  -19.5397  -54.4416 S.3       23 UNK        -0.2404 
    126 C126        0.9653  -19.5710  -52.7301 C.3       23 UNK        -0.0205 
    127 H127        5.8571   -9.4116  -46.1690 H         1 UNK         0.0600 
    128 H128        5.0413   -9.0931  -47.7019 H         1 UNK         0.0600 
    129 H129        6.7517   -9.5314  -47.6881 H         1 UNK         0.0600 
    130 H130        3.7236  -10.7695  -48.2976 H         1 UNK         0.3000 
    131 H131        4.5460  -13.5879  -47.8992 H         1 UNK         0.0600 
    132 H132        2.2543  -12.5420  -49.6316 H         1 UNK         0.0800 
    133 H133        3.8802  -12.7399  -50.2169 H         1 UNK         0.0800 
    134 H134        2.2315  -14.6815  -52.1293 H         1 UNK         0.0800 
    135 H135        1.0577  -13.9414  -51.0680 H         1 UNK         0.0800 
    136 H136        2.1977  -17.1546  -52.4982 H         1 UNK         0.1150 
    137 H137       -1.2772  -19.3004  -51.2078 H         1 UNK         0.1150 
    138 H138       -0.6488  -15.2565  -49.9251 H         1 UNK         0.1150 
    139 H139       -2.3242  -16.5957  -48.8153 H         1 UNK         0.0800 
    140 H140       -3.1984  -16.8826  -50.2972 H         1 UNK         0.0800 
    141 H141       -2.0547  -18.8329  -46.7911 H         1 UNK         0.0800 
    142 H142       -0.7813  -18.6528  -47.9645 H         1 UNK         0.0800 
    143 H143       -0.9506  -21.0656  -48.5777 H         1 UNK         0.0600 
    144 H144        0.1143  -20.1007  -46.1529 H         1 UNK         0.3000 
    145 H145        1.6036  -23.1655  -45.0082 H         1 UNK         0.0600 
    146 H146        3.5475  -21.6134  -44.9537 H         1 UNK         0.0600 
    147 H147        3.1906  -22.1204  -46.5979 H         1 UNK         0.0600 
    148 H148        2.7229  -20.5151  -46.0586 H         1 UNK         0.0600 
    149 H149        1.5323  -20.6062  -43.7990 H         1 UNK         0.3000 
    150 H150       -1.5587  -21.0411  -42.0020 H         1 UNK         0.0600 
    151 H151        0.2574  -22.1202  -40.6691 H         1 UNK         0.0600 
    152 H152       -0.0350  -20.4698  -40.1416 H         1 UNK         0.0600 
    153 H153        1.3728  -20.8413  -41.1332 H         1 UNK         0.0600 
    154 H154        0.2189  -18.8377  -42.0877 H         1 UNK         0.3000 
    155 H155       -1.2621  -17.1546  -44.9079 H         1 UNK         0.0600 
    156 H156       -1.1150  -16.6178  -41.8941 H         1 UNK         0.0600 
    157 H157       -2.5462  -16.5023  -42.9071 H         1 UNK         0.0600 
    158 H158       -1.2163  -15.3772  -43.1379 H         1 UNK         0.0600 
    159 H159        1.0129  -16.5052  -43.3307 H         1 UNK         0.3000 
    160 H160        3.4337  -18.3626  -45.2094 H         1 UNK         0.0600 
    161 H161        3.0471  -15.3535  -44.9152 H         1 UNK         0.0600 
    162 H162        3.0528  -16.1974  -46.4645 H         1 UNK         0.0600 
    163 H163        4.4951  -16.1894  -45.4595 H         1 UNK         0.0600 
    164 H164        3.4996  -16.5656  -42.9312 H         1 UNK         0.3000 
    165 H165        3.3477  -19.1407  -40.4692 H         1 UNK         0.0600 
    166 H166        5.4895  -18.0834  -39.8103 H         1 UNK         0.0600 
    167 H167        5.7268  -19.0852  -41.2332 H         1 UNK         0.0600 
    168 H168        5.6465  -17.3353  -41.3998 H         1 UNK         0.0600 
    169 H169        3.6734  -16.3033  -40.2941 H         1 UNK         0.3000 
    170 H170        0.2171  -15.4546  -40.1999 H         1 UNK         0.0600 
    171 H171        0.6782  -16.3452  -37.9094 H         1 UNK         0.0600 
    172 H172        2.2676  -15.5904  -37.9266 H         1 UNK         0.0600 
    173 H173        0.8114  -14.5952  -37.9602 H         1 UNK         0.0600 
    174 H174        2.4419  -13.8280  -39.7016 H         1 UNK         0.3000 
    175 H175        2.9591  -12.1992  -41.1209 H         1 UNK         0.0600 
    176 H176        4.2954  -13.8069  -43.3712 H         1 UNK         0.0600 
    177 H177        4.8778  -12.2790  -42.7177 H         1 UNK         0.0600 
    178 H178        4.8533  -13.7148  -41.7046 H         1 UNK         0.0600 
    179 H179        2.4845  -12.3140  -44.0179 H         1 UNK         0.3000 
    180 H180       -0.6162  -10.5942  -43.9081 H         1 UNK         0.0600 
    181 H181        2.0973   -9.5057  -44.8462 H         1 UNK         0.0600 
    182 H182        0.9682   -8.6669  -43.7884 H         1 UNK         0.0600 
    183 H183        0.5188   -9.0038  -45.4531 H         1 UNK         0.0600 
    184 H184        1.3476  -11.6041  -45.8487 H         1 UNK         0.3000 
    185 H185        0.9150  -14.7091  -45.5682 H         1 UNK         0.0600 
    186 H186       -1.4346  -15.0375  -46.3545 H         1 UNK         0.0600 
    187 H187       -1.1007  -14.0252  -47.7544 H         1 UNK         0.0600 
    188 H188       -0.2514  -15.5602  -47.5333 H         1 UNK         0.0600 
    189 H189        1.3212  -13.7428  -48.1476 H         1 UNK         0.3000 
    190 H190       -2.4570  -20.9496  -45.3004 H         1 UNK         0.3000 
    191 H191       -4.9187  -22.1353  -45.9856 H         1 UNK         0.0600 
    192 H192       -3.4135  -22.1924  -43.3229 H         1 UNK         0.0600 
    193 H193       -5.1223  -22.5464  -43.5427 H         1 UNK         0.0600 
    194 H194       -4.5155  -20.9288  -43.8647 H         1 UNK         0.0600 
    195 H195       -1.8421  -23.6702  -45.0082 H         1 UNK         0.3000 
    196 H196       -2.8960  -26.3476  -44.9357 H         1 UNK         0.0600 
    197 H197       -0.4836  -26.9595  -44.6662 H         1 UNK         0.0600 
    198 H198       -0.9729  -25.6865  -43.5583 H         1 UNK         0.0600 
    199 H199       -0.0225  -25.2909  -44.9862 H         1 UNK         0.0600 
    200 H200       -0.6094  -24.7425  -47.2590 H         1 UNK         0.3000 
    201 H201       -0.5679  -27.1748  -48.8706 H         1 UNK         0.0600 
    202 H202        1.5085  -25.9232  -48.2951 H         1 UNK         0.0600 
    203 H203        0.9304  -24.5272  -49.2035 H         1 UNK         0.0600 
    204 H204        1.2803  -26.0366  -50.0338 H         1 UNK         0.0600 
    205 H205       -1.7840  -23.8273  -49.2729 H         1 UNK         0.3000 
    206 H206       -2.5887  -24.4016  -52.0827 H         1 UNK         0.0600 
    207 H207       -1.2316  -22.3452  -51.5881 H         1 UNK         0.0600 
    208 H208       -2.8011  -21.9865  -52.2856 H         1 UNK         0.0600 
    209 H209       -2.5336  -21.7419  -50.5672 H         1 UNK         0.0600 
    210 H210       -3.9073  -24.7875  -49.0923 H         1 UNK         0.3000 
    211 H211       -5.9121  -24.9545  -48.1527 H         1 UNK         0.0600 
    212 H212       -6.9424  -25.2758  -51.0129 H         1 UNK         0.0600 
    213 H213       -7.8272  -25.7062  -49.5548 H         1 UNK         0.0600 
    214 H214       -6.3511  -26.5615  -49.9686 H         1 UNK         0.0600 
    215 H215       -4.9295  -22.4092  -48.3941 H         1 UNK         0.3000 
    216 H216       -5.3674  -20.2808  -48.0539 H         1 UNK         0.0600 
    217 H217       -7.5454  -19.4553  -47.3236 H         1 UNK         0.0600 
    218 H218       -7.2321  -20.9996  -46.5491 H         1 UNK         0.0600 
    219 H219       -8.3584  -20.8996  -47.9026 H         1 UNK         0.0600 
    220 H220       -4.8968  -21.2090  -50.5588 H         1 UNK         0.3000 
    221 H221       -4.6946  -20.6338  -52.6783 H         1 UNK         0.0600 
    222 H222       -5.8748  -17.9354  -51.8494 H         1 UNK         0.0600 
    223 H223       -4.1684  -18.3850  -51.8662 H         1 UNK         0.0600 
    224 H224       -5.0588  -18.2663  -53.3691 H         1 UNK         0.0600 
    225 H225       -6.6359  -22.3507  -52.3047 H         1 UNK         0.3000 
    226 H226       -9.1248  -21.5607  -53.6669 H         1 UNK         0.0600 
    227 H227       -9.1697  -23.1590  -51.7563 H         1 UNK         0.0600 
    228 H228       -9.7640  -23.9095  -53.2292 H         1 UNK         0.0600 
    229 H229       -8.1431  -24.2760  -52.6554 H         1 UNK         0.0600 
    230 H230       -7.5467  -20.7976  -55.4206 H         1 UNK         0.3000 
    231 H231       -6.9172  -20.7678  -57.5241 H         1 UNK         0.0600 
    232 H232       -9.0191  -22.0063  -58.0729 H         1 UNK         0.0600 
    233 H233       -8.1591  -23.5394  -57.9264 H         1 UNK         0.0600 
    234 H234       -7.7162  -22.3973  -59.1833 H         1 UNK         0.0600 
    235 H235       -5.7404  -23.2412  -55.4973 H         1 UNK         0.3000 
    236 H236       -3.5951  -24.2533  -57.1111 H         1 UNK         0.0600 
    237 H237       -2.8021  -25.1478  -54.9006 H         1 UNK         0.0600 
    238 H238       -4.0116  -24.1711  -54.0755 H         1 UNK         0.0600 
    239 H239       -4.5104  -25.4718  -55.1539 H         1 UNK         0.0600 
    240 H240       -4.0135  -21.2140  -55.5547 H         1 UNK         0.3000 
    241 H241       -1.4916  -20.2828  -56.3966 H         1 UNK         0.0600 
    242 H242       -2.8580  -16.9287  -55.6588 H         1 UNK         0.3800 
    243 H243       -1.3502  -17.7539  -55.3608 H         1 UNK         0.3800 
    244 H244       -1.8239  -19.8507  -53.3978 H         1 UNK         0.0800 
    245 H245       -1.1071  -21.3411  -53.9438 H         1 UNK         0.0800 
    246 H246        0.6535  -20.4919  -52.2347 H         1 UNK         0.0800 
    247 H247        2.0557  -19.5974  -52.7539 H         1 UNK         0.0800 
@<TRIPOS>BOND
     1    1    2 1    
     2    1  127 1    
     3    1  128 1    
     4    1  129 1    
     5    2    3 2    
     6    2    4 am   BACKBONE|DICT|INTERRES
     7    4    5 1    
     8    4  130 1    
     9    5    6 1    
    10    5   65 1    
    11    5  131 1    
    12    6    7 1    
    13    6  132 1    
    14    6  133 1    
    15    7    8 1    
    16    8    9 1    
    17    8  134 1    
    18    8  135 1    
    19    9   10 ar   
    20    9   14 ar   
    21   10   11 ar   
    22   10  136 1    
    23   11   12 ar   
    24   11  126 1    
    25   12   13 ar   
    26   12  137 1    
    27   13   14 ar   
    28   13   15 1    
    29   14  138 1    
    30   15   16 1    
    31   15  139 1    
    32   15  140 1    
    33   16   17 1    
    34   17   18 1    
    35   17  141 1    
    36   17  142 1    
    37   18   19 1    
    38   18   67 1    
    39   18  143 1    
    40   19   20 am   BACKBONE|DICT|INTERRES
    41   19  144 1    
    42   20   21 2    
    43   20   22 1    
    44   22   23 1    
    45   22   24 1    
    46   22  145 1    
    47   23  146 1    
    48   23  147 1    
    49   23  148 1    
    50   24   25 am   BACKBONE|DICT|INTERRES
    51   24  149 1    
    52   25   26 2    
    53   25   27 1    
    54   27   28 1    
    55   27   29 1    
    56   27  150 1    
    57   28  151 1    
    58   28  152 1    
    59   28  153 1    
    60   29   30 am   BACKBONE|DICT|INTERRES
    61   29  154 1    
    62   30   31 2    
    63   30   32 1    
    64   32   33 1    
    65   32   34 1    
    66   32  155 1    
    67   33  156 1    
    68   33  157 1    
    69   33  158 1    
    70   34   35 am   BACKBONE|DICT|INTERRES
    71   34  159 1    
    72   35   36 2    
    73   35   37 1    
    74   37   38 1    
    75   37   39 1    
    76   37  160 1    
    77   38  161 1    
    78   38  162 1    
    79   38  163 1    
    80   39   40 am   BACKBONE|DICT|INTERRES
    81   39  164 1    
    82   40   41 2    
    83   40   42 1    
    84   42   43 1    
    85   42   44 1    
    86   42  165 1    
    87   43  166 1    
    88   43  167 1    
    89   43  168 1    
    90   44   45 am   BACKBONE|DICT|INTERRES
    91   44  169 1    
    92   45   46 2    
    93   45   47 1    
    94   47   48 1    
    95   47   49 1    
    96   47  170 1    
    97   48  171 1    
    98   48  172 1    
    99   48  173 1    
   100   49   50 am   BACKBONE|DICT|INTERRES
   101   49  174 1    
   102   50   51 2    
   103   50   52 1    
   104   52   53 1    
   105   52   54 1    
   106   52  175 1    
   107   53  176 1    
   108   53  177 1    
   109   53  178 1    
   110   54   55 am   BACKBONE|DICT|INTERRES
   111   54  179 1    
   112   55   56 2    
   113   55   57 1    
   114   57   58 1    
   115   57   59 1    
   116   57  180 1    
   117   58  181 1    
   118   58  182 1    
   119   58  183 1    
   120   59   60 am   BACKBONE|DICT|INTERRES
   121   59  184 1    
   122   60   61 2    
   123   60   62 1    
   124   62   63 1    
   125   62   64 1    
   126   62  185 1    
   127   63  186 1    
   128   63  187 1    
   129   63  188 1    
   130   64   65 am   BACKBONE|DICT|INTERRES
   131   64  189 1    
   132   65   66 2    
   133   67   68 2    
   134   67   69 am   BACKBONE|DICT|INTERRES
   135   69   70 1    
   136   69  190 1    
   137   70   71 1    
   138   70   72 1    
   139   70  191 1    
   140   71  192 1    
   141   71  193 1    
   142   71  194 1    
   143   72   73 2    
   144   72   74 am   BACKBONE|DICT|INTERRES
   145   74   75 1    
   146   74  195 1    
   147   75   76 1    
   148   75   77 1    
   149   75  196 1    
   150   76  197 1    
   151   76  198 1    
   152   76  199 1    
   153   77   78 2    
   154   77   79 am   BACKBONE|DICT|INTERRES
   155   79   80 1    
   156   79  200 1    
   157   80   81 1    
   158   80   82 1    
   159   80  201 1    
   160   81  202 1    
   161   81  203 1    
   162   81  204 1    
   163   82   83 2    
   164   82   84 am   BACKBONE|DICT|INTERRES
   165   84   85 1    
   166   84  205 1    
   167   85   86 1    
   168   85   87 1    
   169   85  206 1    
   170   86  207 1    
   171   86  208 1    
   172   86  209 1    
   173   87   88 2    
   174   87   89 am   BACKBONE|DICT|INTERRES
   175   89   90 1    
   176   89  210 1    
   177   90   91 1    
   178   90   92 1    
   179   90  211 1    
   180   91  212 1    
   181   91  213 1    
   182   91  214 1    
   183   92   93 2    
   184   92   94 am   BACKBONE|DICT|INTERRES
   185   94   95 1    
   186   94  215 1    
   187   95   96 1    
   188   95   97 1    
   189   95  216 1    
   190   96  217 1    
   191   96  218 1    
   192   96  219 1    
   193   97   98 2    
   194   97   99 am   BACKBONE|DICT|INTERRES
   195   99  100 1    
   196   99  220 1    
   197  100  101 1    
   198  100  102 1    
   199  100  221 1    
   200  101  222 1    
   201  101  223 1    
   202  101  224 1    
   203  102  103 2    
   204  102  104 am   BACKBONE|DICT|INTERRES
   205  104  105 1    
   206  104  225 1    
   207  105  106 1    
   208  105  107 1    
   209  105  226 1    
   210  106  227 1    
   211  106  228 1    
   212  106  229 1    
   213  107  108 2    
   214  107  109 am   BACKBONE|DICT|INTERRES
   215  109  110 1    
   216  109  230 1    
   217  110  111 1    
   218  110  112 1    
   219  110  231 1    
   220  111  232 1    
   221  111  233 1    
   222  111  234 1    
   223  112  113 2    
   224  112  114 am   BACKBONE|DICT|INTERRES
   225  114  115 1    
   226  114  235 1    
   227  115  116 1    
   228  115  117 1    
   229  115  236 1    
   230  116  237 1    
   231  116  238 1    
   232  116  239 1    
   233  117  118 2    
   234  117  119 am   BACKBONE|DICT|INTERRES
   235  119  120 1    
   236  119  240 1    
   237  120  121 1    
   238  120  124 1    
   239  120  241 1    
   240  121  122 am   BACKBONE|DICT|INTERRES
   241  121  123 2    
   242  122  242 1    
   243  122  243 1    
   244  124  125 1    
   245  124  244 1    
   246  124  245 1    
   247  125  126 1    
   248  126  246 1    
   249  126  247 1    
@<TRIPOS>SUBSTRUCTURE
     1 UNK         1 GROUP             0       ****    0 ROOT    
