@<TRIPOS>MOLECULE
3R540
247   249    1
SMALL
USER_CHARGES


@<TRIPOS>ATOM
      1 CA          7.4550  -14.9157  -50.2292 C.3       0 UNK        -0.1800 
      2 C           6.9385  -15.8686  -49.1603 C.2       0 UNK         0.5000 
      3 O           7.4261  -15.8442  -48.0298 O.2       0 UNK        -0.5000 
      4 N           5.9606  -16.7109  -49.5143 N.am      1 UNK        -0.5000 
      5 CA          5.2800  -17.6387  -48.6063 C.3       1 UNK         0.1400 
      6 C6          4.5282  -18.7529  -49.3811 C.3       23 UNK        -0.0398 
      7 S7          3.2587  -18.1340  -50.5411 S.3       23 UNK        -0.2404 
      8 C8          1.7305  -18.6153  -49.6804 C.3       23 UNK        -0.0205 
      9 C9          0.5689  -17.7259  -50.0876 C.ar      23 UNK        -0.0193 
     10 C10        -0.0080  -17.8438  -51.3548 C.ar      23 UNK        -0.1150 
     11 C11        -1.0747  -17.0203  -51.7279 C.ar      23 UNK        -0.0193 
     12 C12        -1.5882  -16.0999  -50.8089 C.ar      23 UNK        -0.1150 
     13 C13        -1.0273  -15.9846  -49.5336 C.ar      23 UNK        -0.0193 
     14 C14         0.0666  -16.7815  -49.1905 C.ar      23 UNK        -0.1150 
     15 C15        -1.6058  -15.0071  -48.5226 C.3       23 UNK        -0.0205 
     16 S16        -2.9926  -15.7436  -47.5978 S.3       23 UNK        -0.2404 
     17 C17        -2.1446  -16.9047  -46.4696 C.3       23 UNK        -0.0398 
     18 CA         -2.0949  -18.3597  -47.0007 C.3       11 UNK         0.1400 
     19 N          -1.1124  -19.1724  -46.2795 N.am      11 UNK        -0.5000 
     20 C          -0.5491  -20.2861  -46.7683 C.2       10 UNK         0.5000 
     21 O          -0.7238  -20.6857  -47.9185 O.2       10 UNK        -0.5000 
     22 CA          0.3262  -21.1158  -45.8088 C.3       10 UNK         0.1400 
     23 CB          1.8100  -20.7525  -45.9608 C.3       10 UNK        -0.1800 
     24 N          -0.0763  -20.9771  -44.4066 N.am      10 UNK        -0.5000 
     25 C          -1.1988  -21.5123  -43.9014 C.2       9 UNK         0.5000 
     26 O          -1.9721  -22.2026  -44.5621 O.2       9 UNK        -0.5000 
     27 CA         -1.5571  -21.1828  -42.4380 C.3       9 UNK         0.1400 
     28 CB         -0.9425  -22.2224  -41.4900 C.3       9 UNK        -0.1800 
     29 N          -1.1406  -19.8455  -42.0168 N.am      9 UNK        -0.5000 
     30 C          -1.4786  -18.6958  -42.6167 C.2       8 UNK         0.5000 
     31 O          -2.2733  -18.6285  -43.5552 O.2       8 UNK        -0.5000 
     32 CA         -0.7687  -17.4146  -42.1343 C.3       8 UNK         0.1400 
     33 CB         -1.6989  -16.6166  -41.2105 C.3       8 UNK        -0.1800 
     34 N           0.5152  -17.6256  -41.4513 N.am      8 UNK        -0.5000 
     35 C           1.5730  -18.3009  -41.9266 C.2       7 UNK         0.5000 
     36 O           1.5740  -18.9032  -43.0022 O.2       7 UNK        -0.5000 
     37 CA          2.8232  -18.2902  -41.0350 C.3       7 UNK         0.1400 
     38 CB          4.0341  -19.0078  -41.6598 C.3       7 UNK        -0.1800 
     39 N           3.1675  -16.9057  -40.7337 N.am      7 UNK        -0.5000 
     40 C           3.5959  -16.4476  -39.5548 C.2       6 UNK         0.5000 
     41 O           3.7899  -17.1608  -38.5692 O.2       6 UNK        -0.5000 
     42 CA          3.8205  -14.9269  -39.4501 C.3       6 UNK         0.1400 
     43 CB          5.1733  -14.5350  -40.0595 C.3       6 UNK        -0.1800 
     44 N           2.7597  -14.1163  -40.0595 N.am      6 UNK        -0.5000 
     45 C           1.4724  -14.1261  -39.6793 C.2       5 UNK         0.5000 
     46 O           1.0134  -14.9091  -38.8468 O.2       5 UNK        -0.5000 
     47 CA          0.5333  -13.0651  -40.2870 C.3       5 UNK         0.1400 
     48 CB          0.2397  -11.9634  -39.2562 C.3       5 UNK        -0.1800 
     49 N           1.0381  -12.4349  -41.5056 N.am      5 UNK        -0.5000 
     50 C           1.0583  -13.0087  -42.7140 C.2       4 UNK         0.5000 
     51 O           0.7039  -14.1697  -42.9239 O.2       4 UNK        -0.5000 
     52 CA          1.5333  -12.1409  -43.8982 C.3       4 UNK         0.1400 
     53 CB          1.6934  -10.6372  -43.5741 C.3       4 UNK        -0.1800 
     54 N           2.7551  -12.6831  -44.4912 N.am      4 UNK        -0.5000 
     55 C           3.9457  -12.8437  -43.8948 C.2       3 UNK         0.5000 
     56 O           4.2069  -12.4641  -42.7508 O.2       3 UNK        -0.5000 
     57 CA          4.9883  -13.6159  -44.7314 C.3       3 UNK         0.1400 
     58 CB          6.3204  -13.8609  -43.9948 C.3       3 UNK        -0.1800 
     59 N           4.4432  -14.8774  -45.2462 N.am      3 UNK        -0.5000 
     60 C           3.8760  -15.8636  -44.5365 C.2       2 UNK         0.5000 
     61 O           3.7830  -15.8569  -43.3101 O.2       2 UNK        -0.5000 
     62 CA          3.3010  -17.0615  -45.3154 C.3       2 UNK         0.1400 
     63 CB          1.8388  -16.7855  -45.7162 C.3       2 UNK        -0.1800 
     64 N           4.1095  -17.5173  -46.4568 N.am      2 UNK        -0.5000 
     65 C           4.3629  -16.8882  -47.6123 C.2       1 UNK         0.5000 
     66 O           3.9176  -15.7725  -47.8954 O.2       1 UNK        -0.5000 
     67 C          -3.4721  -19.0500  -46.9888 C.2       11 UNK         0.5000 
     68 O          -4.1181  -19.1279  -48.0333 O.2       11 UNK        -0.5000 
     69 N          -3.8646  -19.6063  -45.8323 N.am      12 UNK        -0.5000 
     70 CA         -5.0892  -20.3949  -45.6619 C.3       12 UNK         0.1400 
     71 CB         -5.2793  -20.7304  -44.1755 C.3       12 UNK        -0.1800 
     72 C          -5.1091  -21.6765  -46.5208 C.2       12 UNK         0.5000 
     73 O          -6.1598  -22.0370  -47.0497 O.2       12 UNK        -0.5000 
     74 N          -3.9414  -22.3152  -46.6736 N.am      13 UNK        -0.5000 
     75 CA         -3.7135  -23.4625  -47.5537 C.3       13 UNK         0.1400 
     76 CB         -2.4670  -24.2186  -47.0668 C.3       13 UNK        -0.1800 
     77 C          -3.5484  -23.0818  -49.0388 C.2       13 UNK         0.5000 
     78 O          -3.4708  -23.9869  -49.8713 O.2       13 UNK        -0.5000 
     79 N          -3.4691  -21.7763  -49.3479 N.am      14 UNK        -0.5000 
     80 CA         -3.2384  -21.1907  -50.6734 C.3       14 UNK         0.1400 
     81 CB         -4.4844  -21.3876  -51.5587 C.3       14 UNK        -0.1800 
     82 C          -1.9461  -21.7324  -51.3172 C.2       14 UNK         0.5000 
     83 O          -1.9760  -22.2536  -52.4351 O.2       14 UNK        -0.5000 
     84 N          -0.8550  -21.6961  -50.5379 N.am      15 UNK        -0.5000 
     85 CA          0.4177  -22.3999  -50.7193 C.3       15 UNK         0.1400 
     86 CB          1.1442  -21.9737  -52.0114 C.3       15 UNK        -0.1800 
     87 C           0.2364  -23.9263  -50.6119 C.2       15 UNK         0.5000 
     88 O           0.7033  -24.5290  -49.6450 O.2       15 UNK        -0.5000 
     89 N          -0.4732  -24.5065  -51.5839 N.am      16 UNK        -0.5000 
     90 CA         -0.9100  -25.9002  -51.6144 C.3       16 UNK         0.1400 
     91 CB          0.2378  -26.7899  -52.1297 C.3       16 UNK        -0.1800 
     92 C          -2.1972  -26.0927  -52.4449 C.2       16 UNK         0.5000 
     93 O          -2.6098  -27.2364  -52.6442 O.2       16 UNK        -0.5000 
     94 N          -2.8083  -25.0039  -52.9400 N.am      17 UNK        -0.5000 
     95 CA         -3.9729  -25.0449  -53.8285 C.3       17 UNK         0.1400 
     96 CB         -4.0017  -23.7544  -54.6614 C.3       17 UNK        -0.1800 
     97 C          -5.3139  -25.2425  -53.0954 C.2       17 UNK         0.5000 
     98 O          -6.3208  -25.4935  -53.7613 O.2       17 UNK        -0.5000 
     99 N          -5.3206  -25.1009  -51.7613 N.am      18 UNK        -0.5000 
    100 CA        -6.4516  -25.1796  -50.8295 C.3       18 UNK         0.1400 
    101 CB        -7.0926  -26.5818  -50.8319 C.3       18 UNK        -0.1800 
    102 C         -7.4939  -24.0647  -51.0383 C.2       18 UNK         0.5000 
    103 O         -7.6617  -23.2157  -50.1637 O.2       18 UNK        -0.5000 
    104 N         -8.1648  -24.0877  -52.1926 N.am      19 UNK        -0.5000 
    105 CA        -9.1677  -23.1145  -52.6198 C.3       19 UNK         0.1400 
    106 CB       -10.5563  -23.5709  -52.1366 C.3       19 UNK        -0.1800 
    107 C         -9.1485  -22.8818  -54.1435 C.2       19 UNK         0.5000 
    108 O         -9.9328  -22.0658  -54.6295 O.2       19 UNK        -0.5000 
    109 N         -8.2743  -23.5828  -54.8845 N.am      20 UNK        -0.5000 
    110 CA        -8.1575  -23.4764  -56.3429 C.3       20 UNK         0.1400 
    111 CB        -7.5168  -24.7641  -56.8863 C.3       20 UNK        -0.1800 
    112 C         -7.3780  -22.2300  -56.8138 C.2       20 UNK         0.5000 
    113 O         -7.3702  -21.9428  -58.0117 O.2       20 UNK        -0.5000 
    114 N         -6.7415  -21.5138  -55.8812 N.am      21 UNK        -0.5000 
    115 CA        -6.0039  -20.2760  -56.1022 C.3       21 UNK         0.1400 
    116 CB        -4.5582  -20.6006  -56.5248 C.3       21 UNK        -0.1800 
    117 C         -6.0385  -19.4411  -54.8124 C.2       21 UNK         0.5000 
    118 O         -6.5297  -19.9165  -53.7850 O.2       21 UNK        -0.5000 
    119 N         -5.4989  -18.2191  -54.8956 N.am      22 UNK        -0.5000 
    120 CA        -5.2874  -17.2743  -53.7800 C.3       22 UNK         0.1400 
    121 C         -6.5852  -16.6393  -53.1921 C.2       22 UNK         0.5000 
    122 N         -7.7365  -16.7609  -53.8412 N.am      22 UNK        -0.7600 
    123 O         -6.5458  -15.9917  -52.1495 O.2       22 UNK        -0.5000 
    124 C124       -4.3445  -17.8244  -52.6688 C.3       23 UNK        -0.0398 
    125 S125       -2.7822  -18.5109  -53.3260 S.3       23 UNK        -0.2404 
    126 C126       -1.6438  -17.1082  -53.1352 C.3       23 UNK        -0.0205 
    127 H127        8.5203  -15.0776  -50.3937 H         1 UNK         0.0600 
    128 H128        7.3106  -13.8830  -49.9118 H         1 UNK         0.0600 
    129 H129        6.9389  -15.0546  -51.1796 H         1 UNK         0.0600 
    130 H130        5.5699  -16.6586  -50.4444 H         1 UNK         0.3000 
    131 H131        6.0554  -18.1298  -48.0141 H         1 UNK         0.0600 
    132 H132        4.0854  -19.4722  -48.6903 H         1 UNK         0.0800 
    133 H133        5.2484  -19.3279  -49.9648 H         1 UNK         0.0800 
    134 H134        1.8785  -18.5599  -48.6010 H         1 UNK         0.0800 
    135 H135        1.4950  -19.6555  -49.9038 H         1 UNK         0.0800 
    136 H136        0.3854  -18.5648  -52.0576 H         1 UNK         0.1150 
    137 H137       -2.4226  -15.4704  -51.0844 H         1 UNK         0.1150 
    138 H138        0.5101  -16.6837  -48.2123 H         1 UNK         0.1150 
    139 H139       -0.8352  -14.6643  -47.8302 H         1 UNK         0.0800 
    140 H140       -1.9640  -14.1164  -49.0411 H         1 UNK         0.0800 
    141 H141       -2.6416  -16.8619  -45.4994 H         1 UNK         0.0800 
    142 H142       -1.1334  -16.5365  -46.2951 H         1 UNK         0.0800 
    143 H143       -1.7831  -18.3244  -48.0450 H         1 UNK         0.0600 
    144 H144       -0.9782  -18.9520  -45.3022 H         1 UNK         0.3000 
    145 H145        0.2126  -22.1633  -46.0960 H         1 UNK         0.0600 
    146 H146        2.4399  -21.4406  -45.3970 H         1 UNK         0.0600 
    147 H147        2.0167  -19.7473  -45.5999 H         1 UNK         0.0600 
    148 H148        2.1245  -20.8031  -47.0041 H         1 UNK         0.0600 
    149 H149        0.5041  -20.3851  -43.8188 H         1 UNK         0.3000 
    150 H150       -2.6428  -21.2323  -42.3424 H         1 UNK         0.0600 
    151 H151       -1.2527  -23.2319  -41.7636 H         1 UNK         0.0600 
    152 H152       -1.2594  -22.0547  -40.4605 H         1 UNK         0.0600 
    153 H153        0.1477  -22.1952  -41.5157 H         1 UNK         0.0600 
    154 H154       -0.4744  -19.8000  -41.2606 H         1 UNK         0.3000 
    155 H155       -0.5657  -16.8096  -43.0199 H         1 UNK         0.0600 
    156 H156       -2.6540  -16.4117  -41.6963 H         1 UNK         0.0600 
    157 H157       -1.2597  -15.6563  -40.9467 H         1 UNK         0.0600 
    158 H158       -1.9077  -17.1562  -40.2860 H         1 UNK         0.0600 
    159 H159        0.6230  -17.1558  -40.5632 H         1 UNK         0.3000 
    160 H160        2.5506  -18.8164  -40.1180 H         1 UNK         0.0600 
    161 H161        4.8731  -19.0364  -40.9647 H         1 UNK         0.0600 
    162 H162        3.7903  -20.0392  -41.9172 H         1 UNK         0.0600 
    163 H163        4.3733  -18.5108  -42.5682 H         1 UNK         0.0600 
    164 H164        3.0990  -16.2616  -41.5184 H         1 UNK         0.3000 
    165 H165        3.8473  -14.6758  -38.3878 H         1 UNK         0.0600 
    166 H166        5.3830  -13.4752  -39.9140 H         1 UNK         0.0600 
    167 H167        5.9887  -15.0965  -39.6017 H         1 UNK         0.0600 
    168 H168        5.1945  -14.7365  -41.1294 H         1 UNK         0.0600 
    169 H169        3.0454  -13.4641  -40.7782 H         1 UNK         0.3000 
    170 H170       -0.4102  -13.5586  -40.5244 H         1 UNK         0.0600 
    171 H171        1.1434  -11.4174  -38.9826 H         1 UNK         0.0600 
    172 H172       -0.4843  -11.2449  -39.6410 H         1 UNK         0.0600 
    173 H173       -0.1791  -12.3840  -38.3408 H         1 UNK         0.0600 
    174 H174        1.3705  -11.4854  -41.4195 H         1 UNK         0.3000 
    175 H175        0.7584  -12.2270  -44.6613 H         1 UNK         0.0600 
    176 H176        2.4632  -10.4492  -42.8253 H         1 UNK         0.0600 
    177 H177        1.9645  -10.0762  -44.4686 H         1 UNK         0.0600 
    178 H178        0.7586  -10.2137  -43.2046 H         1 UNK         0.0600 
    179 H179        2.6434  -13.0810  -45.4127 H         1 UNK         0.3000 
    180 H180        5.2054  -12.9914  -45.5991 H         1 UNK         0.0600 
    181 H181        7.0589  -14.3017  -44.6644 H         1 UNK         0.0600 
    182 H182        6.2010  -14.5340  -43.1477 H         1 UNK         0.0600 
    183 H183        6.7401  -12.9272  -43.6188 H         1 UNK         0.0600 
    184 H184        4.4233  -14.9798  -46.2577 H         1 UNK         0.3000 
    185 H185        3.2990  -17.9028  -44.6243 H         1 UNK         0.0600 
    186 H186        1.4036  -17.6282  -46.2496 H         1 UNK         0.0600 
    187 H187        1.2254  -16.6091  -44.8317 H         1 UNK         0.0600 
    188 H188        1.7504  -15.9022  -46.3487 H         1 UNK         0.0600 
    189 H189        4.5616  -18.4084  -46.3062 H         1 UNK         0.3000 
    190 H190       -3.2914  -19.4644  -45.0062 H         1 UNK         0.3000 
    191 H191       -5.9272  -19.7706  -45.9789 H         1 UNK         0.0600 
    192 H192       -5.2676  -19.8305  -43.5600 H         1 UNK         0.0600 
    193 H193       -4.4992  -21.3980  -43.8114 H         1 UNK         0.0600 
    194 H194       -6.2360  -21.2272  -44.0096 H         1 UNK         0.0600 
    195 H195       -3.1481  -22.0136  -46.1159 H         1 UNK         0.3000 
    196 H196       -4.5706  -24.1352  -47.4832 H         1 UNK         0.0600 
    197 H197       -2.5794  -24.5418  -46.0318 H         1 UNK         0.0600 
    198 H198       -1.5729  -23.5973  -47.1303 H         1 UNK         0.0600 
    199 H199       -2.2872  -25.1113  -47.6674 H         1 UNK         0.0600 
    200 H200       -3.5625  -21.1041  -48.5968 H         1 UNK         0.3000 
    201 H201       -3.0906  -20.1192  -50.5304 H         1 UNK         0.0600 
    202 H202       -5.3603  -20.9104  -51.1194 H         1 UNK         0.0600 
    203 H203       -4.7198  -22.4394  -51.7040 H         1 UNK         0.0600 
    204 H204       -4.3359  -20.9521  -52.5461 H         1 UNK         0.0600 
    205 H205       -0.9578  -21.2782  -49.6137 H         1 UNK         0.3000 
    206 H206        1.0448  -22.0984  -49.8790 H         1 UNK         0.0600 
    207 H207        0.5926  -22.2432  -52.9118 H         1 UNK         0.0600 
    208 H208        1.3066  -20.8965  -52.0340 H         1 UNK         0.0600 
    209 H209        2.1228  -22.4501  -52.0772 H         1 UNK         0.0600 
    210 H210       -0.8421  -23.8972  -52.3048 H         1 UNK         0.3000 
    211 H211       -1.1602  -26.2067  -50.5965 H         1 UNK         0.0600 
    212 H212        0.5250  -26.5195  -53.1464 H         1 UNK         0.0600 
    213 H213       -0.0489  -27.8422  -52.1364 H         1 UNK         0.0600 
    214 H214        1.1220  -26.7039  -51.4980 H         1 UNK         0.0600 
    215 H215       -2.4807  -24.0751  -52.6943 H         1 UNK         0.3000 
    216 H216       -3.8580  -25.8829  -54.5191 H         1 UNK         0.0600 
    217 H217       -4.8042  -23.7750  -55.3975 H         1 UNK         0.0600 
    218 H218       -3.0684  -23.6149  -55.2069 H         1 UNK         0.0600 
    219 H219       -4.1568  -22.8755  -54.0374 H         1 UNK         0.0600 
    220 H220       -4.4459  -24.8340  -51.3164 H         1 UNK         0.3000 
    221 H221       -6.0277  -25.0253  -49.8362 H         1 UNK         0.0600 
    222 H222       -7.5271  -26.8401  -51.7976 H         1 UNK         0.0600 
    223 H223       -6.3571  -27.3470  -50.5835 H         1 UNK         0.0600 
    224 H224       -7.8895  -26.6444  -50.0900 H         1 UNK         0.0600 
    225 H225       -7.9149  -24.8149  -52.8537 H         1 UNK         0.3000 
    226 H226       -8.9419  -22.1470  -52.1664 H         1 UNK         0.0600 
    227 H227      -10.5859  -23.6627  -51.0508 H         1 UNK         0.0600 
    228 H228      -11.3286  -22.8549  -52.4203 H         1 UNK         0.0600 
    229 H229      -10.8293  -24.5371  -52.5624 H         1 UNK         0.0600 
    230 H230       -7.6273  -24.2254  -54.4405 H         1 UNK         0.3000 
    231 H231       -9.1612  -23.4029  -56.7670 H         1 UNK         0.0600 
    232 H232       -7.4600  -24.7448  -57.9754 H         1 UNK         0.0600 
    233 H233       -8.1014  -25.6414  -56.6089 H         1 UNK         0.0600 
    234 H234       -6.5047  -24.9061  -56.5088 H         1 UNK         0.0600 
    235 H235       -6.8546  -21.7588  -54.9060 H         1 UNK         0.3000 
    236 H236       -6.4950  -19.6990  -56.8885 H         1 UNK         0.0600 
    237 H237       -4.0015  -21.0760  -55.7171 H         1 UNK         0.0600 
    238 H238       -4.5337  -21.2669  -57.3871 H         1 UNK         0.0600 
    239 H239       -4.0161  -19.6962  -56.8023 H         1 UNK         0.0600 
    240 H240       -5.1358  -17.9135  -55.7868 H         1 UNK         0.3000 
    241 H241       -4.7670  -16.4298  -54.2327 H         1 UNK         0.0600 
    242 H242       -8.5683  -16.3371  -53.4611 H         1 UNK         0.3800 
    243 H243       -7.7870  -17.2839  -54.7005 H         1 UNK         0.3800 
    244 H244       -4.8505  -18.6050  -52.1013 H         1 UNK         0.0800 
    245 H245       -4.1095  -17.0445  -51.9439 H         1 UNK         0.0800 
    246 H246       -2.1477  -16.1805  -53.4110 H         1 UNK         0.0800 
    247 H247       -0.8240  -17.2278  -53.8449 H         1 UNK         0.0800 
@<TRIPOS>BOND
     1    1    2 1    
     2    1  127 1    
     3    1  128 1    
     4    1  129 1    
     5    2    3 2    
     6    2    4 am   BACKBONE|DICT|INTERRES
     7    4    5 1    
     8    4  130 1    
     9    5    6 1    
    10    5   65 1    
    11    5  131 1    
    12    6    7 1    
    13    6  132 1    
    14    6  133 1    
    15    7    8 1    
    16    8    9 1    
    17    8  134 1    
    18    8  135 1    
    19    9   10 ar   
    20    9   14 ar   
    21   10   11 ar   
    22   10  136 1    
    23   11   12 ar   
    24   11  126 1    
    25   12   13 ar   
    26   12  137 1    
    27   13   14 ar   
    28   13   15 1    
    29   14  138 1    
    30   15   16 1    
    31   15  139 1    
    32   15  140 1    
    33   16   17 1    
    34   17   18 1    
    35   17  141 1    
    36   17  142 1    
    37   18   19 1    
    38   18   67 1    
    39   18  143 1    
    40   19   20 am   BACKBONE|DICT|INTERRES
    41   19  144 1    
    42   20   21 2    
    43   20   22 1    
    44   22   23 1    
    45   22   24 1    
    46   22  145 1    
    47   23  146 1    
    48   23  147 1    
    49   23  148 1    
    50   24   25 am   BACKBONE|DICT|INTERRES
    51   24  149 1    
    52   25   26 2    
    53   25   27 1    
    54   27   28 1    
    55   27   29 1    
    56   27  150 1    
    57   28  151 1    
    58   28  152 1    
    59   28  153 1    
    60   29   30 am   BACKBONE|DICT|INTERRES
    61   29  154 1    
    62   30   31 2    
    63   30   32 1    
    64   32   33 1    
    65   32   34 1    
    66   32  155 1    
    67   33  156 1    
    68   33  157 1    
    69   33  158 1    
    70   34   35 am   BACKBONE|DICT|INTERRES
    71   34  159 1    
    72   35   36 2    
    73   35   37 1    
    74   37   38 1    
    75   37   39 1    
    76   37  160 1    
    77   38  161 1    
    78   38  162 1    
    79   38  163 1    
    80   39   40 am   BACKBONE|DICT|INTERRES
    81   39  164 1    
    82   40   41 2    
    83   40   42 1    
    84   42   43 1    
    85   42   44 1    
    86   42  165 1    
    87   43  166 1    
    88   43  167 1    
    89   43  168 1    
    90   44   45 am   BACKBONE|DICT|INTERRES
    91   44  169 1    
    92   45   46 2    
    93   45   47 1    
    94   47   48 1    
    95   47   49 1    
    96   47  170 1    
    97   48  171 1    
    98   48  172 1    
    99   48  173 1    
   100   49   50 am   BACKBONE|DICT|INTERRES
   101   49  174 1    
   102   50   51 2    
   103   50   52 1    
   104   52   53 1    
   105   52   54 1    
   106   52  175 1    
   107   53  176 1    
   108   53  177 1    
   109   53  178 1    
   110   54   55 am   BACKBONE|DICT|INTERRES
   111   54  179 1    
   112   55   56 2    
   113   55   57 1    
   114   57   58 1    
   115   57   59 1    
   116   57  180 1    
   117   58  181 1    
   118   58  182 1    
   119   58  183 1    
   120   59   60 am   BACKBONE|DICT|INTERRES
   121   59  184 1    
   122   60   61 2    
   123   60   62 1    
   124   62   63 1    
   125   62   64 1    
   126   62  185 1    
   127   63  186 1    
   128   63  187 1    
   129   63  188 1    
   130   64   65 am   BACKBONE|DICT|INTERRES
   131   64  189 1    
   132   65   66 2    
   133   67   68 2    
   134   67   69 am   BACKBONE|DICT|INTERRES
   135   69   70 1    
   136   69  190 1    
   137   70   71 1    
   138   70   72 1    
   139   70  191 1    
   140   71  192 1    
   141   71  193 1    
   142   71  194 1    
   143   72   73 2    
   144   72   74 am   BACKBONE|DICT|INTERRES
   145   74   75 1    
   146   74  195 1    
   147   75   76 1    
   148   75   77 1    
   149   75  196 1    
   150   76  197 1    
   151   76  198 1    
   152   76  199 1    
   153   77   78 2    
   154   77   79 am   BACKBONE|DICT|INTERRES
   155   79   80 1    
   156   79  200 1    
   157   80   81 1    
   158   80   82 1    
   159   80  201 1    
   160   81  202 1    
   161   81  203 1    
   162   81  204 1    
   163   82   83 2    
   164   82   84 am   BACKBONE|DICT|INTERRES
   165   84   85 1    
   166   84  205 1    
   167   85   86 1    
   168   85   87 1    
   169   85  206 1    
   170   86  207 1    
   171   86  208 1    
   172   86  209 1    
   173   87   88 2    
   174   87   89 am   BACKBONE|DICT|INTERRES
   175   89   90 1    
   176   89  210 1    
   177   90   91 1    
   178   90   92 1    
   179   90  211 1    
   180   91  212 1    
   181   91  213 1    
   182   91  214 1    
   183   92   93 2    
   184   92   94 am   BACKBONE|DICT|INTERRES
   185   94   95 1    
   186   94  215 1    
   187   95   96 1    
   188   95   97 1    
   189   95  216 1    
   190   96  217 1    
   191   96  218 1    
   192   96  219 1    
   193   97   98 2    
   194   97   99 am   BACKBONE|DICT|INTERRES
   195   99  100 1    
   196   99  220 1    
   197  100  101 1    
   198  100  102 1    
   199  100  221 1    
   200  101  222 1    
   201  101  223 1    
   202  101  224 1    
   203  102  103 2    
   204  102  104 am   BACKBONE|DICT|INTERRES
   205  104  105 1    
   206  104  225 1    
   207  105  106 1    
   208  105  107 1    
   209  105  226 1    
   210  106  227 1    
   211  106  228 1    
   212  106  229 1    
   213  107  108 2    
   214  107  109 am   BACKBONE|DICT|INTERRES
   215  109  110 1    
   216  109  230 1    
   217  110  111 1    
   218  110  112 1    
   219  110  231 1    
   220  111  232 1    
   221  111  233 1    
   222  111  234 1    
   223  112  113 2    
   224  112  114 am   BACKBONE|DICT|INTERRES
   225  114  115 1    
   226  114  235 1    
   227  115  116 1    
   228  115  117 1    
   229  115  236 1    
   230  116  237 1    
   231  116  238 1    
   232  116  239 1    
   233  117  118 2    
   234  117  119 am   BACKBONE|DICT|INTERRES
   235  119  120 1    
   236  119  240 1    
   237  120  121 1    
   238  120  124 1    
   239  120  241 1    
   240  121  122 am   BACKBONE|DICT|INTERRES
   241  121  123 2    
   242  122  242 1    
   243  122  243 1    
   244  124  125 1    
   245  124  244 1    
   246  124  245 1    
   247  125  126 1    
   248  126  246 1    
   249  126  247 1    
@<TRIPOS>SUBSTRUCTURE
     1 UNK         1 GROUP             0       ****    0 ROOT    
