@<TRIPOS>MOLECULE
3R540
247   249    1
SMALL
USER_CHARGES


@<TRIPOS>ATOM
      1 CA          6.0185  -15.6688  -47.1415 C.3       0 UNK        -0.1800 
      2 C           4.5840  -16.1330  -47.3480 C.2       0 UNK         0.5000 
      3 O           4.2819  -17.3037  -47.1224 O.2       0 UNK        -0.5000 
      4 N           3.7060  -15.2189  -47.7674 N.am      1 UNK        -0.5000 
      5 CA          2.2752  -15.4245  -47.9806 C.3       1 UNK         0.1400 
      6 C6          1.9519  -16.4345  -49.1193 C.3       23 UNK        -0.0398 
      7 S7          2.5546  -15.9345  -50.7733 S.3       23 UNK        -0.2404 
      8 C8          3.0033  -17.5466  -51.5069 C.3       23 UNK        -0.0205 
      9 C9          1.8791  -18.5770  -51.4415 C.ar      23 UNK        -0.0193 
     10 C10         0.5674  -18.2293  -51.7764 C.ar      23 UNK        -0.1150 
     11 C11        -0.4700  -19.1540  -51.6453 C.ar      23 UNK        -0.0193 
     12 C12        -0.1842  -20.4537  -51.2156 C.ar      23 UNK        -0.1150 
     13 C13         1.1284  -20.8311  -50.9154 C.ar      23 UNK        -0.0193 
     14 C14         2.1541  -19.8852  -51.0322 C.ar      23 UNK        -0.1150 
     15 C15         1.4261  -22.2688  -50.4979 C.3       23 UNK        -0.0205 
     16 S16         2.5709  -22.4042  -49.0831 S.3       23 UNK        -0.2404 
     17 C17         1.5644  -21.7325  -47.7181 C.3       23 UNK        -0.0398 
     18 CA          1.0145  -22.8458  -46.7941 C.3       11 UNK         0.1400 
     19 N           0.7474  -22.3616  -45.4366 N.am      11 UNK        -0.5000 
     20 C           0.4076  -23.1397  -44.3988 C.2       10 UNK         0.5000 
     21 O           0.3040  -24.3637  -44.4693 O.2       10 UNK        -0.5000 
     22 CA          0.0656  -22.4311  -43.0765 C.3       10 UNK         0.1400 
     23 CB          1.3377  -21.9848  -42.3411 C.3       10 UNK        -0.1800 
     24 N          -0.8247  -21.2885  -43.2803 N.am      10 UNK        -0.5000 
     25 C          -2.0806  -21.3879  -43.7403 C.2       9 UNK         0.5000 
     26 O          -2.6428  -22.4605  -43.9633 O.2       9 UNK        -0.5000 
     27 CA         -2.8195  -20.0712  -44.0412 C.3       9 UNK         0.1400 
     28 CB         -3.4397  -19.4900  -42.7621 C.3       9 UNK        -0.1800 
     29 N          -1.9626  -19.0660  -44.6718 N.am      9 UNK        -0.5000 
     30 C          -1.3769  -19.2028  -45.8706 C.2       8 UNK         0.5000 
     31 O          -1.5135  -20.1889  -46.5924 O.2       8 UNK        -0.5000 
     32 CA         -0.4330  -18.0705  -46.3114 C.3       8 UNK         0.1400 
     33 CB         -1.2377  -16.8474  -46.7744 C.3       8 UNK        -0.1800 
     34 N           0.4964  -17.6819  -45.2491 N.am      8 UNK        -0.5000 
     35 C           1.4020  -18.5004  -44.6923 C.2       7 UNK         0.5000 
     36 O           1.5959  -19.6571  -45.0621 O.2       7 UNK        -0.5000 
     37 CA          2.1684  -17.9643  -43.4711 C.3       7 UNK         0.1400 
     38 CB          3.3924  -17.1413  -43.8944 C.3       7 UNK        -0.1800 
     39 N           1.3074  -17.1616  -42.6043 N.am      7 UNK        -0.5000 
     40 C           0.3317  -17.6677  -41.8370 C.2       6 UNK         0.5000 
     41 O           0.0838  -18.8704  -41.7514 O.2       6 UNK        -0.5000 
     42 CA         -0.5385  -16.6533  -41.0726 C.3       6 UNK         0.1400 
     43 CB          0.1383  -16.2390  -39.7577 C.3       6 UNK        -0.1800 
     44 N          -0.8302  -15.4591  -41.8678 N.am      6 UNK        -0.5000 
     45 C          -1.5929  -15.4585  -42.9699 C.2       5 UNK         0.5000 
     46 O          -2.1689  -16.4576  -43.3984 O.2       5 UNK        -0.5000 
     47 CA         -1.6909  -14.1339  -43.7490 C.3       5 UNK         0.1400 
     48 CB         -2.8537  -13.2808  -43.2226 C.3       5 UNK        -0.1800 
     49 N          -0.4598  -13.3395  -43.7252 N.am      5 UNK        -0.5000 
     50 C           0.7193  -13.7350  -44.2213 C.2       4 UNK         0.5000 
     51 O           0.9156  -14.8540  -44.6983 O.2       4 UNK        -0.5000 
     52 CA          1.8377  -12.6776  -44.2308 C.3       4 UNK         0.1400 
     53 CB          3.2331  -13.2883  -44.4448 C.3       4 UNK        -0.1800 
     54 N           1.5616  -11.7260  -45.3021 N.am      4 UNK        -0.5000 
     55 C           0.7606  -10.6577  -45.1854 C.2       3 UNK         0.5000 
     56 O           0.3051  -10.2602  -44.1122 O.2       3 UNK        -0.5000 
     57 CA          0.3497   -9.9548  -46.4940 C.3       3 UNK         0.1400 
     58 CB          1.3520   -8.8481  -46.8536 C.3       3 UNK        -0.1800 
     59 N           0.2332  -10.8847  -47.6198 N.am      3 UNK        -0.5000 
     60 C          -0.6451  -11.8949  -47.6972 C.2       2 UNK         0.5000 
     61 O          -1.5280  -12.0997  -46.8644 O.2       2 UNK        -0.5000 
     62 CA         -0.4971  -12.8590  -48.8893 C.3       2 UNK         0.1400 
     63 CB          0.0031  -12.1741  -50.1794 C.3       2 UNK        -0.1800 
     64 N           0.3342  -14.0244  -48.5673 N.am      2 UNK        -0.5000 
     65 C           1.6153  -14.0393  -48.1667 C.2       1 UNK         0.5000 
     66 O           2.2777  -13.0187  -47.9505 O.2       1 UNK        -0.5000 
     67 C          -0.2137  -23.5421  -47.4145 C.2       11 UNK         0.5000 
     68 O          -0.0657  -24.6131  -47.9991 O.2       11 UNK        -0.5000 
     69 N          -1.4049  -22.9582  -47.2239 N.am      12 UNK        -0.5000 
     70 CA         -2.6851  -23.5032  -47.6772 C.3       12 UNK         0.1400 
     71 CB         -3.7969  -22.4785  -47.4140 C.3       12 UNK        -0.1800 
     72 C          -3.0397  -24.8700  -47.0600 C.2       12 UNK         0.5000 
     73 O          -3.7378  -25.6554  -47.7014 O.2       12 UNK        -0.5000 
     74 N          -2.5572  -25.1293  -45.8380 N.am      13 UNK        -0.5000 
     75 CA         -2.6938  -26.4118  -45.1544 C.3       13 UNK         0.1400 
     76 CB         -2.6889  -26.1776  -43.6354 C.3       13 UNK        -0.1800 
     77 C          -1.5835  -27.3984  -45.5605 C.2       13 UNK         0.5000 
     78 O          -1.8752  -28.5691  -45.8084 O.2       13 UNK        -0.5000 
     79 N          -0.3315  -26.9217  -45.5902 N.am      14 UNK        -0.5000 
     80 CA          0.8628  -27.7373  -45.8159 C.3       14 UNK         0.1400 
     81 CB          2.0947  -26.9672  -45.3147 C.3       14 UNK        -0.1800 
     82 C           1.0685  -28.1681  -47.2794 C.2       14 UNK         0.5000 
     83 O           1.5792  -29.2646  -47.5148 O.2       14 UNK        -0.5000 
     84 N           0.7024  -27.2999  -48.2267 N.am      15 UNK        -0.5000 
     85 CA          0.9033  -27.4710  -49.6620 C.3       15 UNK         0.1400 
     86 CB          2.0557  -26.5485  -50.1132 C.3       15 UNK        -0.1800 
     87 C          -0.4251  -27.2234  -50.4011 C.2       15 UNK         0.5000 
     88 O          -1.4750  -27.6655  -49.9285 O.2       15 UNK        -0.5000 
     89 N          -0.3624  -26.5610  -51.5642 N.am      16 UNK        -0.5000 
     90 CA         -1.5167  -26.1807  -52.3783 C.3       16 UNK         0.1400 
     91 CB         -1.0193  -25.6437  -53.7292 C.3       16 UNK        -0.1800 
     92 C          -2.3912  -25.1307  -51.6692 C.2       16 UNK         0.5000 
     93 O          -1.8512  -24.2278  -51.0279 O.2       16 UNK        -0.5000 
     94 N          -3.7154  -25.2708  -51.8180 N.am      17 UNK        -0.5000 
     95 CA         -4.7468  -24.4300  -51.2046 C.3       17 UNK         0.1400 
     96 CB         -6.1252  -24.9968  -51.5821 C.3       17 UNK        -0.1800 
     97 C          -4.6576  -22.9403  -51.5922 C.2       17 UNK         0.5000 
     98 O          -4.0778  -22.5997  -52.6261 O.2       17 UNK        -0.5000 
     99 N          -5.2655  -22.0856  -50.7558 N.am      18 UNK        -0.5000 
    100 CA        -5.2328  -20.6267  -50.8834 C.3       18 UNK         0.1400 
    101 CB        -5.9049  -19.9824  -49.6609 C.3       18 UNK        -0.1800 
    102 C         -5.8655  -20.0916  -52.1804 C.2       18 UNK         0.5000 
    103 O         -5.3688  -19.1115  -52.7357 O.2       18 UNK        -0.5000 
    104 N         -6.9604  -20.7335  -52.6208 N.am      19 UNK        -0.5000 
    105 CA        -7.6890  -20.5041  -53.8796 C.3       19 UNK         0.1400 
    106 CB        -6.8368  -21.0024  -55.0650 C.3       19 UNK        -0.1800 
    107 C         -8.1836  -19.0531  -54.0937 C.2       19 UNK         0.5000 
    108 O         -8.4070  -18.6462  -55.2348 O.2       19 UNK        -0.5000 
    109 N         -8.3116  -18.2934  -52.9943 N.am      20 UNK        -0.5000 
    110 CA        -8.5697  -16.8491  -52.9217 C.3       20 UNK         0.1400 
    111 CB        -9.9665  -16.5069  -53.4811 C.3       20 UNK        -0.1800 
    112 C         -7.4526  -15.9740  -53.5422 C.2       20 UNK         0.5000 
    113 O         -7.6759  -14.7848  -53.7742 O.2       20 UNK        -0.5000 
    114 N         -6.2678  -16.5546  -53.7821 N.am      21 UNK        -0.5000 
    115 CA        -5.1091  -15.8818  -54.3720 C.3       21 UNK         0.1400 
    116 CB        -4.3083  -16.9069  -55.1908 C.3       21 UNK        -0.1800 
    117 C         -4.2068  -15.2255  -53.3115 C.2       21 UNK         0.5000 
    118 O         -3.4541  -14.3090  -53.6436 O.2       21 UNK        -0.5000 
    119 N         -4.2902  -15.7056  -52.0663 N.am      22 UNK        -0.5000 
    120 CA        -3.4660  -15.2770  -50.9253 C.3       22 UNK         0.1400 
    121 C         -4.2767  -15.0555  -49.6156 C.2       22 UNK         0.5000 
    122 N         -5.6036  -15.0265  -49.6547 N.am      22 UNK        -0.7600 
    123 O         -3.6954  -14.8794  -48.5493 O.2       22 UNK        -0.5000 
    124 C124       -2.2306  -16.1969  -50.7354 C.3       23 UNK        -0.0398 
    125 S125       -2.6678  -17.9566  -50.4960 S.3       23 UNK        -0.2404 
    126 C126       -1.9007  -18.7431  -51.9487 C.3       23 UNK        -0.0205 
    127 H127        6.3161  -15.8248  -46.1045 H         1 UNK         0.0600 
    128 H128        6.1398  -14.6106  -47.3747 H         1 UNK         0.0600 
    129 H129        6.6928  -16.2382  -47.7812 H         1 UNK         0.0600 
    130 H130        3.9901  -14.2575  -47.9140 H         1 UNK         0.3000 
    131 H131        1.8745  -15.8276  -47.0494 H         1 UNK         0.0600 
    132 H132        2.3770  -17.4072  -48.8709 H         1 UNK         0.0800 
    133 H133        0.8788  -16.6155  -49.1868 H         1 UNK         0.0800 
    134 H134        3.2833  -17.3957  -52.5500 H         1 UNK         0.0800 
    135 H135        3.8932  -17.9185  -50.9964 H         1 UNK         0.0800 
    136 H136        0.3513  -17.2256  -52.1111 H         1 UNK         0.1150 
    137 H137       -0.9859  -21.1738  -51.1202 H         1 UNK         0.1150 
    138 H138        3.1702  -20.1676  -50.7958 H         1 UNK         0.1150 
    139 H139        0.5045  -22.8028  -50.2596 H         1 UNK         0.0800 
    140 H140        1.8660  -22.7883  -51.3497 H         1 UNK         0.0800 
    141 H141        2.2292  -21.0781  -47.1541 H         1 UNK         0.0800 
    142 H142        0.7685  -21.0879  -48.0962 H         1 UNK         0.0800 
    143 H143        1.7911  -23.6063  -46.6858 H         1 UNK         0.0600 
    144 H144        0.8462  -21.3602  -45.2867 H         1 UNK         0.3000 
    145 H145       -0.4552  -23.1499  -42.4404 H         1 UNK         0.0600 
    146 H146        1.0980  -21.5357  -41.3771 H         1 UNK         0.0600 
    147 H147        1.9947  -22.8341  -42.1503 H         1 UNK         0.0600 
    148 H148        1.9053  -21.2548  -42.9174 H         1 UNK         0.0600 
    149 H149       -0.4512  -20.3708  -43.0632 H         1 UNK         0.3000 
    150 H150       -3.6290  -20.2983  -44.7378 H         1 UNK         0.0600 
    151 H151       -4.0977  -20.2152  -42.2819 H         1 UNK         0.0600 
    152 H152       -4.0363  -18.6043  -42.9814 H         1 UNK         0.0600 
    153 H153       -2.6763  -19.2068  -42.0370 H         1 UNK         0.0600 
    154 H154       -1.8357  -18.1960  -44.1619 H         1 UNK         0.3000 
    155 H155        0.1615  -18.4306  -47.1539 H         1 UNK         0.0600 
    156 H156       -0.5918  -15.9985  -46.9812 H         1 UNK         0.0600 
    157 H157       -1.9636  -16.5282  -46.0277 H         1 UNK         0.0600 
    158 H158       -1.7947  -17.0738  -47.6835 H         1 UNK         0.0600 
    159 H159        0.4372  -16.7277  -44.9068 H         1 UNK         0.3000 
    160 H160        2.5249  -18.8207  -42.8952 H         1 UNK         0.0600 
    161 H161        3.1195  -16.3165  -44.5518 H         1 UNK         0.0600 
    162 H162        4.1050  -17.7654  -44.4344 H         1 UNK         0.0600 
    163 H163        3.9133  -16.7279  -43.0307 H         1 UNK         0.0600 
    164 H164        1.4055  -16.1594  -42.6707 H         1 UNK         0.3000 
    165 H165       -1.4848  -17.1419  -40.8306 H         1 UNK         0.0600 
    166 H166        1.0822  -15.7217  -39.9337 H         1 UNK         0.0600 
    167 H167       -0.5038  -15.5779  -39.1754 H         1 UNK         0.0600 
    168 H168        0.3521  -17.1110  -39.1381 H         1 UNK         0.0600 
    169 H169       -0.3948  -14.5950  -41.5807 H         1 UNK         0.3000 
    170 H170       -1.8984  -14.3813  -44.7921 H         1 UNK         0.0600 
    171 H171       -3.7907  -13.8389  -43.2489 H         1 UNK         0.0600 
    172 H172       -2.6876  -12.9637  -42.1924 H         1 UNK         0.0600 
    173 H173       -2.9920  -12.3875  -43.8323 H         1 UNK         0.0600 
    174 H174       -0.5446  -12.3850  -43.4013 H         1 UNK         0.3000 
    175 H175        1.8398  -12.1690  -43.2645 H         1 UNK         0.0600 
    176 H176        4.0039  -12.5177  -44.4405 H         1 UNK         0.0600 
    177 H177        3.4749  -13.9941  -43.6497 H         1 UNK         0.0600 
    178 H178        3.3028  -13.8218  -45.3918 H         1 UNK         0.0600 
    179 H179        1.8495  -12.0091  -46.2336 H         1 UNK         0.3000 
    180 H180       -0.6280   -9.4963  -46.3327 H         1 UNK         0.0600 
    181 H181        2.3458   -9.2531  -47.0494 H         1 UNK         0.0600 
    182 H182        1.4452   -8.1270  -46.0405 H         1 UNK         0.0600 
    183 H183        1.0322   -8.2986  -47.7391 H         1 UNK         0.0600 
    184 H184        0.9523  -10.8290  -48.3270 H         1 UNK         0.3000 
    185 H185       -1.4977  -13.2410  -49.0953 H         1 UNK         0.0600 
    186 H186       -0.0544  -12.8578  -51.0265 H         1 UNK         0.0600 
    187 H187       -0.6097  -11.3057  -50.4244 H         1 UNK         0.0600 
    188 H188        1.0373  -11.8381  -50.1012 H         1 UNK         0.0600 
    189 H189       -0.1373  -14.9090  -48.6676 H         1 UNK         0.3000 
    190 H190       -1.4358  -22.0431  -46.7797 H         1 UNK         0.3000 
    191 H191       -2.6148  -23.6430  -48.7532 H         1 UNK         0.0600 
    192 H192       -4.7584  -22.8394  -47.7799 H         1 UNK         0.0600 
    193 H193       -3.5846  -21.5370  -47.9203 H         1 UNK         0.0600 
    194 H194       -3.9082  -22.2698  -46.3503 H         1 UNK         0.0600 
    195 H195       -2.0124  -24.4160  -45.3710 H         1 UNK         0.3000 
    196 H196       -3.6545  -26.8601  -45.4172 H         1 UNK         0.0600 
    197 H197       -2.8095  -27.1175  -43.0953 H         1 UNK         0.0600 
    198 H198       -3.5073  -25.5223  -43.3368 H         1 UNK         0.0600 
    199 H199       -1.7583  -25.7211  -43.2968 H         1 UNK         0.0600 
    200 H200       -0.1697  -25.9511  -45.3331 H         1 UNK         0.3000 
    201 H201        0.7705  -28.6457  -45.2166 H         1 UNK         0.0600 
    202 H202        2.0051  -26.7260  -44.2553 H         1 UNK         0.0600 
    203 H203        2.2318  -26.0326  -45.8601 H         1 UNK         0.0600 
    204 H204        3.0037  -27.5572  -45.4385 H         1 UNK         0.0600 
    205 H205        0.2716  -26.4165  -47.9586 H         1 UNK         0.3000 
    206 H206        1.1855  -28.5016  -49.8848 H         1 UNK         0.0600 
    207 H207        2.9557  -26.7342  -49.5266 H         1 UNK         0.0600 
    208 H208        2.3200  -26.7168  -51.1576 H         1 UNK         0.0600 
    209 H209        1.7983  -25.4949  -49.9938 H         1 UNK         0.0600 
    210 H210        0.5326  -26.2067  -51.8660 H         1 UNK         0.3000 
    211 H211       -2.1129  -27.0778  -52.5585 H         1 UNK         0.0600 
    212 H212       -0.3996  -24.7547  -53.6043 H         1 UNK         0.0600 
    213 H213       -1.8569  -25.3705  -54.3724 H         1 UNK         0.0600 
    214 H214       -0.4319  -26.3923  -54.2612 H         1 UNK         0.0600 
    215 H215       -4.0547  -26.0254  -52.3958 H         1 UNK         0.3000 
    216 H216       -4.6238  -24.5048  -50.1226 H         1 UNK         0.0600 
    217 H217       -6.9293  -24.4323  -51.1085 H         1 UNK         0.0600 
    218 H218       -6.2283  -26.0329  -51.2589 H         1 UNK         0.0600 
    219 H219       -6.2914  -24.9621  -52.6597 H         1 UNK         0.0600 
    220 H220       -5.7478  -22.4515  -49.9483 H         1 UNK         0.3000 
    221 H221       -4.1833  -20.3386  -50.8829 H         1 UNK         0.0600 
    222 H222       -6.9517  -20.2753  -49.5728 H         1 UNK         0.0600 
    223 H223       -5.4001  -20.2586  -48.7362 H         1 UNK         0.0600 
    224 H224       -5.8719  -18.8937  -49.7278 H         1 UNK         0.0600 
    225 H225       -7.2947  -21.5076  -52.0648 H         1 UNK         0.3000 
    226 H226       -8.5859  -21.1230  -53.8318 H         1 UNK         0.0600 
    227 H227       -6.5057  -22.0291  -54.9081 H         1 UNK         0.0600 
    228 H228       -7.4042  -20.9853  -55.9962 H         1 UNK         0.0600 
    229 H229       -5.9497  -20.3843  -55.2089 H         1 UNK         0.0600 
    230 H230       -8.1033  -18.7377  -52.1116 H         1 UNK         0.3000 
    231 H231       -8.5777  -16.6039  -51.8589 H         1 UNK         0.0600 
    232 H232      -10.2295  -15.4698  -53.2699 H         1 UNK         0.0600 
    233 H233      -10.7365  -17.1325  -53.0298 H         1 UNK         0.0600 
    234 H234      -10.0159  -16.6400  -54.5620 H         1 UNK         0.0600 
    235 H235       -6.1350  -17.5312  -53.5325 H         1 UNK         0.3000 
    236 H236       -5.4493  -15.0981  -55.0522 H         1 UNK         0.0600 
    237 H237       -4.9271  -17.3637  -55.9635 H         1 UNK         0.0600 
    238 H238       -3.4613  -16.4336  -55.6889 H         1 UNK         0.0600 
    239 H239       -3.9141  -17.7063  -54.5624 H         1 UNK         0.0600 
    240 H240       -4.9023  -16.4899  -51.8933 H         1 UNK         0.3000 
    241 H241       -3.0795  -14.2798  -51.1431 H         1 UNK         0.0600 
    242 H242       -6.0981  -15.0942  -50.5283 H         1 UNK         0.3800 
    243 H243       -6.1144  -14.8719  -48.7998 H         1 UNK         0.3800 
    244 H244       -1.5817  -16.0931  -51.6042 H         1 UNK         0.0800 
    245 H245       -1.6290  -15.8719  -49.8874 H         1 UNK         0.0800 
    246 H246       -1.9365  -18.0729  -52.8087 H         1 UNK         0.0800 
    247 H247       -2.4824  -19.6197  -52.2350 H         1 UNK         0.0800 
@<TRIPOS>BOND
     1    1    2 1    
     2    1  127 1    
     3    1  128 1    
     4    1  129 1    
     5    2    3 2    
     6    2    4 am   BACKBONE|DICT|INTERRES
     7    4    5 1    
     8    4  130 1    
     9    5    6 1    
    10    5   65 1    
    11    5  131 1    
    12    6    7 1    
    13    6  132 1    
    14    6  133 1    
    15    7    8 1    
    16    8    9 1    
    17    8  134 1    
    18    8  135 1    
    19    9   10 ar   
    20    9   14 ar   
    21   10   11 ar   
    22   10  136 1    
    23   11   12 ar   
    24   11  126 1    
    25   12   13 ar   
    26   12  137 1    
    27   13   14 ar   
    28   13   15 1    
    29   14  138 1    
    30   15   16 1    
    31   15  139 1    
    32   15  140 1    
    33   16   17 1    
    34   17   18 1    
    35   17  141 1    
    36   17  142 1    
    37   18   19 1    
    38   18   67 1    
    39   18  143 1    
    40   19   20 am   BACKBONE|DICT|INTERRES
    41   19  144 1    
    42   20   21 2    
    43   20   22 1    
    44   22   23 1    
    45   22   24 1    
    46   22  145 1    
    47   23  146 1    
    48   23  147 1    
    49   23  148 1    
    50   24   25 am   BACKBONE|DICT|INTERRES
    51   24  149 1    
    52   25   26 2    
    53   25   27 1    
    54   27   28 1    
    55   27   29 1    
    56   27  150 1    
    57   28  151 1    
    58   28  152 1    
    59   28  153 1    
    60   29   30 am   BACKBONE|DICT|INTERRES
    61   29  154 1    
    62   30   31 2    
    63   30   32 1    
    64   32   33 1    
    65   32   34 1    
    66   32  155 1    
    67   33  156 1    
    68   33  157 1    
    69   33  158 1    
    70   34   35 am   BACKBONE|DICT|INTERRES
    71   34  159 1    
    72   35   36 2    
    73   35   37 1    
    74   37   38 1    
    75   37   39 1    
    76   37  160 1    
    77   38  161 1    
    78   38  162 1    
    79   38  163 1    
    80   39   40 am   BACKBONE|DICT|INTERRES
    81   39  164 1    
    82   40   41 2    
    83   40   42 1    
    84   42   43 1    
    85   42   44 1    
    86   42  165 1    
    87   43  166 1    
    88   43  167 1    
    89   43  168 1    
    90   44   45 am   BACKBONE|DICT|INTERRES
    91   44  169 1    
    92   45   46 2    
    93   45   47 1    
    94   47   48 1    
    95   47   49 1    
    96   47  170 1    
    97   48  171 1    
    98   48  172 1    
    99   48  173 1    
   100   49   50 am   BACKBONE|DICT|INTERRES
   101   49  174 1    
   102   50   51 2    
   103   50   52 1    
   104   52   53 1    
   105   52   54 1    
   106   52  175 1    
   107   53  176 1    
   108   53  177 1    
   109   53  178 1    
   110   54   55 am   BACKBONE|DICT|INTERRES
   111   54  179 1    
   112   55   56 2    
   113   55   57 1    
   114   57   58 1    
   115   57   59 1    
   116   57  180 1    
   117   58  181 1    
   118   58  182 1    
   119   58  183 1    
   120   59   60 am   BACKBONE|DICT|INTERRES
   121   59  184 1    
   122   60   61 2    
   123   60   62 1    
   124   62   63 1    
   125   62   64 1    
   126   62  185 1    
   127   63  186 1    
   128   63  187 1    
   129   63  188 1    
   130   64   65 am   BACKBONE|DICT|INTERRES
   131   64  189 1    
   132   65   66 2    
   133   67   68 2    
   134   67   69 am   BACKBONE|DICT|INTERRES
   135   69   70 1    
   136   69  190 1    
   137   70   71 1    
   138   70   72 1    
   139   70  191 1    
   140   71  192 1    
   141   71  193 1    
   142   71  194 1    
   143   72   73 2    
   144   72   74 am   BACKBONE|DICT|INTERRES
   145   74   75 1    
   146   74  195 1    
   147   75   76 1    
   148   75   77 1    
   149   75  196 1    
   150   76  197 1    
   151   76  198 1    
   152   76  199 1    
   153   77   78 2    
   154   77   79 am   BACKBONE|DICT|INTERRES
   155   79   80 1    
   156   79  200 1    
   157   80   81 1    
   158   80   82 1    
   159   80  201 1    
   160   81  202 1    
   161   81  203 1    
   162   81  204 1    
   163   82   83 2    
   164   82   84 am   BACKBONE|DICT|INTERRES
   165   84   85 1    
   166   84  205 1    
   167   85   86 1    
   168   85   87 1    
   169   85  206 1    
   170   86  207 1    
   171   86  208 1    
   172   86  209 1    
   173   87   88 2    
   174   87   89 am   BACKBONE|DICT|INTERRES
   175   89   90 1    
   176   89  210 1    
   177   90   91 1    
   178   90   92 1    
   179   90  211 1    
   180   91  212 1    
   181   91  213 1    
   182   91  214 1    
   183   92   93 2    
   184   92   94 am   BACKBONE|DICT|INTERRES
   185   94   95 1    
   186   94  215 1    
   187   95   96 1    
   188   95   97 1    
   189   95  216 1    
   190   96  217 1    
   191   96  218 1    
   192   96  219 1    
   193   97   98 2    
   194   97   99 am   BACKBONE|DICT|INTERRES
   195   99  100 1    
   196   99  220 1    
   197  100  101 1    
   198  100  102 1    
   199  100  221 1    
   200  101  222 1    
   201  101  223 1    
   202  101  224 1    
   203  102  103 2    
   204  102  104 am   BACKBONE|DICT|INTERRES
   205  104  105 1    
   206  104  225 1    
   207  105  106 1    
   208  105  107 1    
   209  105  226 1    
   210  106  227 1    
   211  106  228 1    
   212  106  229 1    
   213  107  108 2    
   214  107  109 am   BACKBONE|DICT|INTERRES
   215  109  110 1    
   216  109  230 1    
   217  110  111 1    
   218  110  112 1    
   219  110  231 1    
   220  111  232 1    
   221  111  233 1    
   222  111  234 1    
   223  112  113 2    
   224  112  114 am   BACKBONE|DICT|INTERRES
   225  114  115 1    
   226  114  235 1    
   227  115  116 1    
   228  115  117 1    
   229  115  236 1    
   230  116  237 1    
   231  116  238 1    
   232  116  239 1    
   233  117  118 2    
   234  117  119 am   BACKBONE|DICT|INTERRES
   235  119  120 1    
   236  119  240 1    
   237  120  121 1    
   238  120  124 1    
   239  120  241 1    
   240  121  122 am   BACKBONE|DICT|INTERRES
   241  121  123 2    
   242  122  242 1    
   243  122  243 1    
   244  124  125 1    
   245  124  244 1    
   246  124  245 1    
   247  125  126 1    
   248  126  246 1    
   249  126  247 1    
@<TRIPOS>SUBSTRUCTURE
     1 UNK         1 GROUP             0       ****    0 ROOT    
