@<TRIPOS>MOLECULE
3R540
247   249    1
SMALL
USER_CHARGES


@<TRIPOS>ATOM
      1 CA         -0.5257   -8.5747  -49.0539 C.3       0 UNK        -0.1800 
      2 C           0.0764   -9.9036  -48.6205 C.2       0 UNK         0.5000 
      3 O           1.0922  -10.3279  -49.1738 O.2       0 UNK        -0.5000 
      4 N          -0.5387  -10.5620  -47.6305 N.am      1 UNK        -0.5000 
      5 CA         -0.1171  -11.8510  -47.0719 C.3       1 UNK         0.1400 
      6 C6         -1.2904  -12.6042  -46.4007 C.3       23 UNK        -0.0398 
      7 S7         -2.5589  -13.1280  -47.6008 S.3       23 UNK        -0.2404 
      8 C8         -2.0465  -14.8519  -47.8727 C.3       23 UNK        -0.0205 
      9 C9         -2.9535  -15.5560  -48.8665 C.ar      23 UNK        -0.0193 
     10 C10        -2.6793  -15.4882  -50.2357 C.ar      23 UNK        -0.1150 
     11 C11        -3.5207  -16.1158  -51.1584 C.ar      23 UNK        -0.0193 
     12 C12        -4.6352  -16.8235  -50.7007 C.ar      23 UNK        -0.1150 
     13 C13        -4.9155  -16.9045  -49.3336 C.ar      23 UNK        -0.0193 
     14 C14        -4.0690  -16.2714  -48.4190 C.ar      23 UNK        -0.1150 
     15 C15        -6.1565  -17.6450  -48.8614 C.3       23 UNK        -0.0205 
     16 S16        -5.9086  -19.4456  -48.8623 S.3       23 UNK        -0.2404 
     17 C17        -5.3296  -19.7423  -47.1581 C.3       23 UNK        -0.0398 
     18 CA         -4.5810  -21.0907  -47.0668 C.3       11 UNK         0.1400 
     19 N          -3.2864  -21.0469  -47.7533 N.am      11 UNK        -0.5000 
     20 C          -2.5409  -22.1181  -48.0475 C.2       10 UNK         0.5000 
     21 O          -2.8755  -23.2734  -47.7849 O.2       10 UNK        -0.5000 
     22 CA         -1.1777  -21.8601  -48.7131 C.3       10 UNK         0.1400 
     23 CB         -1.3452  -21.8531  -50.2382 C.3       10 UNK        -0.1800 
     24 N          -0.5050  -20.6235  -48.2968 N.am      10 UNK        -0.5000 
     25 C          -0.2418  -20.2578  -47.0349 C.2       9 UNK         0.5000 
     26 O          -0.6267  -20.8848  -46.0449 O.2       9 UNK        -0.5000 
     27 CA          0.5384  -18.9466  -46.8530 C.3       9 UNK         0.1400 
     28 CB         -0.4043  -17.7455  -47.0081 C.3       9 UNK        -0.1800 
     29 N           1.1691  -18.9010  -45.5343 N.am      9 UNK        -0.5000 
     30 C           2.3082  -19.5370  -45.2231 C.2       8 UNK         0.5000 
     31 O           2.9931  -20.1364  -46.0532 O.2       8 UNK        -0.5000 
     32 CA          2.7708  -19.5099  -43.7528 C.3       8 UNK         0.1400 
     33 CB          4.2011  -18.9593  -43.6217 C.3       8 UNK        -0.1800 
     34 N           1.8755  -18.7162  -42.9090 N.am      8 UNK        -0.5000 
     35 C           1.0318  -19.2287  -42.0028 C.2       7 UNK         0.5000 
     36 O           0.9637  -20.4286  -41.7347 O.2       7 UNK        -0.5000 
     37 CA          0.0916  -18.2489  -41.2728 C.3       7 UNK         0.1400 
     38 CB          0.6276  -17.9377  -39.8681 C.3       7 UNK        -0.1800 
     39 N          -0.1522  -17.0005  -42.0048 N.am      7 UNK        -0.5000 
     40 C          -0.8685  -16.9354  -43.1374 C.2       6 UNK         0.5000 
     41 O          -1.3384  -17.9324  -43.6830 O.2       6 UNK        -0.5000 
     42 CA         -1.0748  -15.5719  -43.8231 C.3       6 UNK         0.1400 
     43 CB         -2.5731  -15.2774  -44.0521 C.3       6 UNK        -0.1800 
     44 N          -0.3757  -14.4495  -43.1909 N.am      6 UNK        -0.5000 
     45 C          -0.6924  -13.7743  -42.0775 C.2       5 UNK         0.5000 
     46 O          -1.6969  -13.9846  -41.3967 O.2       5 UNK        -0.5000 
     47 CA          0.3383  -12.7057  -41.6498 C.3       5 UNK         0.1400 
     48 CB          0.0825  -12.1444  -40.2350 C.3       5 UNK        -0.1800 
     49 N           1.7208  -13.1901  -41.7812 N.am      5 UNK        -0.5000 
     50 C           2.2454  -14.2617  -41.1662 C.2       4 UNK         0.5000 
     51 O           1.6213  -14.9547  -40.3636 O.2       4 UNK        -0.5000 
     52 CA          3.6915  -14.6389  -41.5479 C.3       4 UNK         0.1400 
     53 CB          4.1062  -16.0308  -41.0258 C.3       4 UNK        -0.1800 
     54 N           3.9515  -14.5421  -42.9876 N.am      4 UNK        -0.5000 
     55 C           3.3321  -15.1933  -43.9812 C.2       3 UNK         0.5000 
     56 O           2.3652  -15.9421  -43.8182 O.2       3 UNK        -0.5000 
     57 CA          3.8916  -14.9381  -45.3975 C.3       3 UNK         0.1400 
     58 CB          3.3559  -15.9458  -46.4297 C.3       3 UNK        -0.1800 
     59 N           3.5845  -13.5894  -45.8701 N.am      3 UNK        -0.5000 
     60 C           4.1007  -12.4395  -45.4136 C.2       2 UNK         0.5000 
     61 O           4.9912  -12.3840  -44.5640 O.2       2 UNK        -0.5000 
     62 CA          3.5170  -11.1302  -45.9867 C.3       2 UNK         0.1400 
     63 CB          4.5152  -10.4723  -46.9514 C.3       2 UNK        -0.1800 
     64 N           2.2353  -11.2992  -46.6793 N.am      2 UNK        -0.5000 
     65 C           1.0820  -11.6780  -46.1142 C.2       1 UNK         0.5000 
     66 O           0.9592  -11.9046  -44.9089 O.2       1 UNK        -0.5000 
     67 C          -4.4914  -21.6069  -45.6137 C.2       11 UNK         0.5000 
     68 O          -5.4814  -22.1446  -45.1165 O.2       11 UNK        -0.5000 
     69 N          -3.3202  -21.4791  -44.9764 N.am      12 UNK        -0.5000 
     70 CA         -3.0390  -22.0259  -43.6508 C.3       12 UNK         0.1400 
     71 CB         -2.3590  -20.9481  -42.7943 C.3       12 UNK        -0.1800 
     72 C          -2.1468  -23.2728  -43.7521 C.2       12 UNK         0.5000 
     73 O          -2.4554  -24.2927  -43.1359 O.2       12 UNK        -0.5000 
     74 N          -1.0571  -23.1708  -44.5244 N.am      13 UNK        -0.5000 
     75 CA          0.0083  -24.1699  -44.6069 C.3       13 UNK         0.1400 
     76 CB          1.2426  -23.5258  -45.2571 C.3       13 UNK        -0.1800 
     77 C          -0.3860  -25.4521  -45.3603 C.2       13 UNK         0.5000 
     78 O           0.1368  -26.5197  -45.0380 O.2       13 UNK        -0.5000 
     79 N          -1.2840  -25.3288  -46.3450 N.am      14 UNK        -0.5000 
     80 CA         -1.7466  -26.4246  -47.1992 C.3       14 UNK         0.1400 
     81 CB         -1.2222  -26.1898  -48.6275 C.3       14 UNK        -0.1800 
     82 C          -3.2799  -26.5536  -47.1826 C.2       14 UNK         0.5000 
     83 O          -3.8307  -27.2522  -48.0327 O.2       14 UNK        -0.5000 
     84 N          -3.9537  -25.8521  -46.2567 N.am      15 UNK        -0.5000 
     85 CA         -5.4137  -25.7747  -46.1015 C.3       15 UNK         0.1400 
     86 CB         -5.9613  -27.1059  -45.5469 C.3       15 UNK        -0.1800 
     87 C          -6.1466  -25.3154  -47.3849 C.2       15 UNK         0.5000 
     88 O          -7.2586  -25.7686  -47.6595 O.2       15 UNK        -0.5000 
     89 N          -5.4843  -24.4387  -48.1536 N.am      16 UNK        -0.5000 
     90 CA         -5.8884  -23.8694  -49.4423 C.3       16 UNK         0.1400 
     91 CB         -7.2510  -23.1499  -49.3550 C.3       16 UNK        -0.1800 
     92 C          -5.8159  -24.8517  -50.6286 C.2       16 UNK         0.5000 
     93 O          -6.2511  -24.4914  -51.7223 O.2       16 UNK        -0.5000 
     94 N          -5.2230  -26.0423  -50.4456 N.am      17 UNK        -0.5000 
     95 CA         -5.0104  -27.0129  -51.5269 C.3       17 UNK         0.1400 
     96 CB         -4.6195  -28.3742  -50.9337 C.3       17 UNK        -0.1800 
     97 C          -3.9508  -26.5482  -52.5464 C.2       17 UNK         0.5000 
     98 O          -4.0359  -26.9095  -53.7202 O.2       17 UNK        -0.5000 
     99 N          -2.9884  -25.7405  -52.0809 N.am      18 UNK        -0.5000 
    100 CA        -1.9043  -25.1667  -52.8799 C.3       18 UNK         0.1400 
    101 CB        -0.5919  -25.2775  -52.0845 C.3       18 UNK        -0.1800 
    102 C         -2.1818  -23.7074  -53.2951 C.2       18 UNK         0.5000 
    103 O         -1.2782  -23.0523  -53.8140 O.2       18 UNK        -0.5000 
    104 N         -3.4084  -23.2038  -53.0744 N.am      19 UNK        -0.5000 
    105 CA        -3.8116  -21.8157  -53.3503 C.3       19 UNK         0.1400 
    106 CB        -5.2138  -21.5608  -52.7788 C.3       19 UNK        -0.1800 
    107 C         -3.7413  -21.4062  -54.8369 C.2       19 UNK         0.5000 
    108 O         -3.7258  -20.2134  -55.1361 O.2       19 UNK        -0.5000 
    109 N         -3.6334  -22.3883  -55.7424 N.am      20 UNK        -0.5000 
    110 CA        -3.3307  -22.2025  -57.1637 C.3       20 UNK         0.1400 
    111 CB        -3.4343  -23.5631  -57.8699 C.3       20 UNK        -0.1800 
    112 C         -1.9516  -21.5565  -57.4325 C.2       20 UNK         0.5000 
    113 O         -1.7364  -21.0413  -58.5299 O.2       20 UNK        -0.5000 
    114 N         -1.0489  -21.5798  -56.4389 N.am      21 UNK        -0.5000 
    115 CA         0.2545  -20.9149  -56.4728 C.3       21 UNK         0.1400 
    116 CB         1.1266  -21.4689  -55.3353 C.3       21 UNK        -0.1800 
    117 C          0.1735  -19.3756  -56.3846 C.2       21 UNK         0.5000 
    118 O          1.1526  -18.7122  -56.7304 O.2       21 UNK        -0.5000 
    119 N         -0.9614  -18.8292  -55.9225 N.am      22 UNK        -0.5000 
    120 CA        -1.2365  -17.3840  -55.8786 C.3       22 UNK         0.1400 
    121 C         -1.2832  -16.7471  -57.2971 C.2       22 UNK         0.5000 
    122 N         -0.6822  -15.5793  -57.4814 N.am      22 UNK        -0.7600 
    123 O         -1.8998  -17.2782  -58.2180 O.2       22 UNK        -0.5000 
    124 C124       -2.5515  -17.0753  -55.1211 C.3       23 UNK        -0.0398 
    125 S125       -2.4725  -17.4787  -53.3409 S.3       23 UNK        -0.2404 
    126 C126       -3.2605  -15.9904  -52.6508 C.3       23 UNK        -0.0205 
    127 H127       -1.4203   -8.3289  -48.4812 H         1 UNK         0.0600 
    128 H128       -0.7971   -8.6126  -50.1088 H         1 UNK         0.0600 
    129 H129        0.1985   -7.7721  -48.9154 H         1 UNK         0.0600 
    130 H130       -1.3621  -10.1560  -47.2091 H         1 UNK         0.3000 
    131 H131        0.2374  -12.4793  -47.8924 H         1 UNK         0.0600 
    132 H132       -1.7637  -11.9830  -45.6384 H         1 UNK         0.0800 
    133 H133       -0.9241  -13.4894  -45.8817 H         1 UNK         0.0800 
    134 H134       -2.0600  -15.3853  -46.9229 H         1 UNK         0.0800 
    135 H135       -1.0156  -14.8741  -48.2294 H         1 UNK         0.0800 
    136 H136       -1.8210  -14.9302  -50.5832 H         1 UNK         0.1150 
    137 H137       -5.2919  -17.3054  -51.4116 H         1 UNK         0.1150 
    138 H138       -4.2860  -16.3202  -47.3612 H         1 UNK         0.1150 
    139 H139       -6.4609  -17.3071  -47.8695 H         1 UNK         0.0800 
    140 H140       -6.9877  -17.4087  -49.5273 H         1 UNK         0.0800 
    141 H141       -6.2089  -19.7349  -46.5110 H         1 UNK         0.0800 
    142 H142       -4.6912  -18.9214  -46.8275 H         1 UNK         0.0800 
    143 H143       -5.1900  -21.8271  -47.5871 H         1 UNK         0.0600 
    144 H144       -2.9434  -20.1340  -48.0125 H         1 UNK         0.3000 
    145 H145       -0.5271  -22.6940  -48.4421 H         1 UNK         0.0600 
    146 H146       -0.3808  -21.8683  -50.7464 H         1 UNK         0.0600 
    147 H147       -1.9009  -22.7302  -50.5681 H         1 UNK         0.0600 
    148 H148       -1.8932  -20.9741  -50.5799 H         1 UNK         0.0600 
    149 H149       -0.1703  -20.0348  -49.0457 H         1 UNK         0.3000 
    150 H150        1.3119  -18.8845  -47.6214 H         1 UNK         0.0600 
    151 H151       -0.8149  -17.6997  -48.0176 H         1 UNK         0.0600 
    152 H152        0.1201  -16.8079  -46.8311 H         1 UNK         0.0600 
    153 H153       -1.2470  -17.7990  -46.3186 H         1 UNK         0.0600 
    154 H154        0.6091  -18.5227  -44.7826 H         1 UNK         0.3000 
    155 H155        2.7887  -20.5490  -43.4188 H         1 UNK         0.0600 
    156 H156        4.2801  -17.9385  -43.9908 H         1 UNK         0.0600 
    157 H157        4.9086  -19.5664  -44.1876 H         1 UNK         0.0600 
    158 H158        4.5304  -18.9651  -42.5826 H         1 UNK         0.0600 
    159 H159        1.8772  -17.7136  -43.0778 H         1 UNK         0.3000 
    160 H160       -0.8702  -18.7524  -41.1541 H         1 UNK         0.0600 
    161 H161        1.6369  -17.5282  -39.9035 H         1 UNK         0.0600 
    162 H162        0.6677  -18.8421  -39.2600 H         1 UNK         0.0600 
    163 H163       -0.0097  -17.2228  -39.3475 H         1 UNK         0.0600 
    164 H164        0.2448  -16.1549  -41.6132 H         1 UNK         0.3000 
    165 H165       -0.6099  -15.6703  -44.8038 H         1 UNK         0.0600 
    166 H166       -3.1391  -15.3074  -43.1210 H         1 UNK         0.0600 
    167 H167       -2.7306  -14.2999  -44.5056 H         1 UNK         0.0600 
    168 H168       -3.0173  -16.0193  -44.7167 H         1 UNK         0.0600 
    169 H169        0.5073  -14.2099  -43.6221 H         1 UNK         0.3000 
    170 H170        0.2293  -11.8776  -42.3508 H         1 UNK         0.0600 
    171 H171       -0.8989  -11.6726  -40.1753 H         1 UNK         0.0600 
    172 H172        0.1153  -12.9245  -39.4740 H         1 UNK         0.0600 
    173 H173        0.8218  -11.3880  -39.9720 H         1 UNK         0.0600 
    174 H174        2.2943  -12.6971  -42.4514 H         1 UNK         0.3000 
    175 H175        4.3344  -13.9007  -41.0667 H         1 UNK         0.0600 
    176 H176        3.4777  -16.8204  -41.4365 H         1 UNK         0.0600 
    177 H177        5.1398  -16.2580  -41.2863 H         1 UNK         0.0600 
    178 H178        4.0275  -16.0822  -39.9392 H         1 UNK         0.0600 
    179 H179        4.6685  -13.8766  -43.2602 H         1 UNK         0.3000 
    180 H180        4.9766  -15.0516  -45.3503 H         1 UNK         0.0600 
    181 H181        2.2735  -15.8769  -46.5361 H         1 UNK         0.0600 
    182 H182        3.5940  -16.9689  -46.1396 H         1 UNK         0.0600 
    183 H183        3.7999  -15.7795  -47.4112 H         1 UNK         0.0600 
    184 H184        2.8615  -13.5215  -46.5695 H         1 UNK         0.3000 
    185 H185        3.3557  -10.4537  -45.1450 H         1 UNK         0.0600 
    186 H186        4.7015  -11.0984  -47.8249 H         1 UNK         0.0600 
    187 H187        4.1474   -9.5077  -47.3021 H         1 UNK         0.0600 
    188 H188        5.4744  -10.2947  -46.4632 H         1 UNK         0.0600 
    189 H189        2.2187  -11.0805  -47.6707 H         1 UNK         0.3000 
    190 H190       -2.5337  -21.0636  -45.4645 H         1 UNK         0.3000 
    191 H191       -3.9626  -22.3166  -43.1460 H         1 UNK         0.0600 
    192 H192       -2.1188  -21.3269  -41.8002 H         1 UNK         0.0600 
    193 H193       -3.0052  -20.0796  -42.6669 H         1 UNK         0.0600 
    194 H194       -1.4290  -20.6055  -43.2489 H         1 UNK         0.0600 
    195 H195       -0.8839  -22.2952  -45.0158 H         1 UNK         0.3000 
    196 H196        0.2762  -24.4582  -43.5882 H         1 UNK         0.0600 
    197 H197        1.0378  -23.2038  -46.2788 H         1 UNK         0.0600 
    198 H198        1.5751  -22.6542  -44.6930 H         1 UNK         0.0600 
    199 H199        2.0774  -24.2268  -45.2944 H         1 UNK         0.0600 
    200 H200       -1.6736  -24.4164  -46.5540 H         1 UNK         0.3000 
    201 H201       -1.3577  -27.3815  -46.8463 H         1 UNK         0.0600 
    202 H202       -1.6352  -25.2789  -49.0598 H         1 UNK         0.0600 
    203 H203       -1.4857  -27.0170  -49.2879 H         1 UNK         0.0600 
    204 H204       -0.1357  -26.1026  -48.6392 H         1 UNK         0.0600 
    205 H205       -3.4123  -25.3117  -45.5974 H         1 UNK         0.3000 
    206 H206       -5.6017  -25.0025  -45.3543 H         1 UNK         0.0600 
    207 H207       -5.4409  -27.3959  -44.6342 H         1 UNK         0.0600 
    208 H208       -7.0207  -27.0230  -45.3017 H         1 UNK         0.0600 
    209 H209       -5.8540  -27.9178  -46.2669 H         1 UNK         0.0600 
    210 H210       -4.5539  -24.1637  -47.8481 H         1 UNK         0.3000 
    211 H211       -5.1403  -23.1066  -49.6605 H         1 UNK         0.0600 
    212 H212       -7.4282  -22.5449  -50.2449 H         1 UNK         0.0600 
    213 H213       -7.2973  -22.4796  -48.4972 H         1 UNK         0.0600 
    214 H214       -8.0785  -23.8549  -49.2745 H         1 UNK         0.0600 
    215 H215       -4.8860  -26.3043  -49.5247 H         1 UNK         0.3000 
    216 H216       -5.9545  -27.1375  -52.0615 H         1 UNK         0.0600 
    217 H217       -3.6441  -28.3372  -50.4475 H         1 UNK         0.0600 
    218 H218       -4.5661  -29.1362  -51.7122 H         1 UNK         0.0600 
    219 H219       -5.3499  -28.7106  -50.1976 H         1 UNK         0.0600 
    220 H220       -3.0077  -25.4972  -51.1019 H         1 UNK         0.3000 
    221 H221       -1.7798  -25.7374  -53.8023 H         1 UNK         0.0600 
    222 H222       -0.3946  -26.3088  -51.7913 H         1 UNK         0.0600 
    223 H223       -0.6104  -24.6699  -51.1805 H         1 UNK         0.0600 
    224 H224        0.2584  -24.9456  -52.6817 H         1 UNK         0.0600 
    225 H225       -4.1196  -23.8104  -52.6903 H         1 UNK         0.3000 
    226 H226       -3.1145  -21.1640  -52.8196 H         1 UNK         0.0600 
    227 H227       -5.9596  -22.2090  -53.2399 H         1 UNK         0.0600 
    228 H228       -5.2378  -21.7265  -51.7023 H         1 UNK         0.0600 
    229 H229       -5.5246  -20.5291  -52.9493 H         1 UNK         0.0600 
    230 H230       -3.6577  -23.3401  -55.4084 H         1 UNK         0.3000 
    231 H231       -4.0883  -21.5372  -57.5826 H         1 UNK         0.0600 
    232 H232       -2.7096  -24.2765  -57.4752 H         1 UNK         0.0600 
    233 H233       -3.2482  -23.4640  -58.9401 H         1 UNK         0.0600 
    234 H234       -4.4289  -23.9941  -57.7537 H         1 UNK         0.0600 
    235 H235       -1.2842  -22.0502  -55.5705 H         1 UNK         0.3000 
    236 H236        0.7365  -21.1626  -57.4207 H         1 UNK         0.0600 
    237 H237        1.2241  -22.5526  -55.4027 H         1 UNK         0.0600 
    238 H238        2.1324  -21.0489  -55.3726 H         1 UNK         0.0600 
    239 H239        0.7077  -21.2303  -54.3568 H         1 UNK         0.0600 
    240 H240       -1.7340  -19.4333  -55.6717 H         1 UNK         0.3000 
    241 H241       -0.4155  -16.9181  -55.3298 H         1 UNK         0.0600 
    242 H242       -0.7192  -15.1481  -58.3922 H         1 UNK         0.3800 
    243 H243       -0.1745  -15.1216  -56.7398 H         1 UNK         0.3800 
    244 H244       -3.3884  -17.6153  -55.5664 H         1 UNK         0.0800 
    245 H245       -2.7960  -16.0162  -55.2229 H         1 UNK         0.0800 
    246 H246       -4.2072  -15.8123  -53.1635 H         1 UNK         0.0800 
    247 H247       -2.6317  -15.1224  -52.8553 H         1 UNK         0.0800 
@<TRIPOS>BOND
     1    1    2 1    
     2    1  127 1    
     3    1  128 1    
     4    1  129 1    
     5    2    3 2    
     6    2    4 am   BACKBONE|DICT|INTERRES
     7    4    5 1    
     8    4  130 1    
     9    5    6 1    
    10    5   65 1    
    11    5  131 1    
    12    6    7 1    
    13    6  132 1    
    14    6  133 1    
    15    7    8 1    
    16    8    9 1    
    17    8  134 1    
    18    8  135 1    
    19    9   10 ar   
    20    9   14 ar   
    21   10   11 ar   
    22   10  136 1    
    23   11   12 ar   
    24   11  126 1    
    25   12   13 ar   
    26   12  137 1    
    27   13   14 ar   
    28   13   15 1    
    29   14  138 1    
    30   15   16 1    
    31   15  139 1    
    32   15  140 1    
    33   16   17 1    
    34   17   18 1    
    35   17  141 1    
    36   17  142 1    
    37   18   19 1    
    38   18   67 1    
    39   18  143 1    
    40   19   20 am   BACKBONE|DICT|INTERRES
    41   19  144 1    
    42   20   21 2    
    43   20   22 1    
    44   22   23 1    
    45   22   24 1    
    46   22  145 1    
    47   23  146 1    
    48   23  147 1    
    49   23  148 1    
    50   24   25 am   BACKBONE|DICT|INTERRES
    51   24  149 1    
    52   25   26 2    
    53   25   27 1    
    54   27   28 1    
    55   27   29 1    
    56   27  150 1    
    57   28  151 1    
    58   28  152 1    
    59   28  153 1    
    60   29   30 am   BACKBONE|DICT|INTERRES
    61   29  154 1    
    62   30   31 2    
    63   30   32 1    
    64   32   33 1    
    65   32   34 1    
    66   32  155 1    
    67   33  156 1    
    68   33  157 1    
    69   33  158 1    
    70   34   35 am   BACKBONE|DICT|INTERRES
    71   34  159 1    
    72   35   36 2    
    73   35   37 1    
    74   37   38 1    
    75   37   39 1    
    76   37  160 1    
    77   38  161 1    
    78   38  162 1    
    79   38  163 1    
    80   39   40 am   BACKBONE|DICT|INTERRES
    81   39  164 1    
    82   40   41 2    
    83   40   42 1    
    84   42   43 1    
    85   42   44 1    
    86   42  165 1    
    87   43  166 1    
    88   43  167 1    
    89   43  168 1    
    90   44   45 am   BACKBONE|DICT|INTERRES
    91   44  169 1    
    92   45   46 2    
    93   45   47 1    
    94   47   48 1    
    95   47   49 1    
    96   47  170 1    
    97   48  171 1    
    98   48  172 1    
    99   48  173 1    
   100   49   50 am   BACKBONE|DICT|INTERRES
   101   49  174 1    
   102   50   51 2    
   103   50   52 1    
   104   52   53 1    
   105   52   54 1    
   106   52  175 1    
   107   53  176 1    
   108   53  177 1    
   109   53  178 1    
   110   54   55 am   BACKBONE|DICT|INTERRES
   111   54  179 1    
   112   55   56 2    
   113   55   57 1    
   114   57   58 1    
   115   57   59 1    
   116   57  180 1    
   117   58  181 1    
   118   58  182 1    
   119   58  183 1    
   120   59   60 am   BACKBONE|DICT|INTERRES
   121   59  184 1    
   122   60   61 2    
   123   60   62 1    
   124   62   63 1    
   125   62   64 1    
   126   62  185 1    
   127   63  186 1    
   128   63  187 1    
   129   63  188 1    
   130   64   65 am   BACKBONE|DICT|INTERRES
   131   64  189 1    
   132   65   66 2    
   133   67   68 2    
   134   67   69 am   BACKBONE|DICT|INTERRES
   135   69   70 1    
   136   69  190 1    
   137   70   71 1    
   138   70   72 1    
   139   70  191 1    
   140   71  192 1    
   141   71  193 1    
   142   71  194 1    
   143   72   73 2    
   144   72   74 am   BACKBONE|DICT|INTERRES
   145   74   75 1    
   146   74  195 1    
   147   75   76 1    
   148   75   77 1    
   149   75  196 1    
   150   76  197 1    
   151   76  198 1    
   152   76  199 1    
   153   77   78 2    
   154   77   79 am   BACKBONE|DICT|INTERRES
   155   79   80 1    
   156   79  200 1    
   157   80   81 1    
   158   80   82 1    
   159   80  201 1    
   160   81  202 1    
   161   81  203 1    
   162   81  204 1    
   163   82   83 2    
   164   82   84 am   BACKBONE|DICT|INTERRES
   165   84   85 1    
   166   84  205 1    
   167   85   86 1    
   168   85   87 1    
   169   85  206 1    
   170   86  207 1    
   171   86  208 1    
   172   86  209 1    
   173   87   88 2    
   174   87   89 am   BACKBONE|DICT|INTERRES
   175   89   90 1    
   176   89  210 1    
   177   90   91 1    
   178   90   92 1    
   179   90  211 1    
   180   91  212 1    
   181   91  213 1    
   182   91  214 1    
   183   92   93 2    
   184   92   94 am   BACKBONE|DICT|INTERRES
   185   94   95 1    
   186   94  215 1    
   187   95   96 1    
   188   95   97 1    
   189   95  216 1    
   190   96  217 1    
   191   96  218 1    
   192   96  219 1    
   193   97   98 2    
   194   97   99 am   BACKBONE|DICT|INTERRES
   195   99  100 1    
   196   99  220 1    
   197  100  101 1    
   198  100  102 1    
   199  100  221 1    
   200  101  222 1    
   201  101  223 1    
   202  101  224 1    
   203  102  103 2    
   204  102  104 am   BACKBONE|DICT|INTERRES
   205  104  105 1    
   206  104  225 1    
   207  105  106 1    
   208  105  107 1    
   209  105  226 1    
   210  106  227 1    
   211  106  228 1    
   212  106  229 1    
   213  107  108 2    
   214  107  109 am   BACKBONE|DICT|INTERRES
   215  109  110 1    
   216  109  230 1    
   217  110  111 1    
   218  110  112 1    
   219  110  231 1    
   220  111  232 1    
   221  111  233 1    
   222  111  234 1    
   223  112  113 2    
   224  112  114 am   BACKBONE|DICT|INTERRES
   225  114  115 1    
   226  114  235 1    
   227  115  116 1    
   228  115  117 1    
   229  115  236 1    
   230  116  237 1    
   231  116  238 1    
   232  116  239 1    
   233  117  118 2    
   234  117  119 am   BACKBONE|DICT|INTERRES
   235  119  120 1    
   236  119  240 1    
   237  120  121 1    
   238  120  124 1    
   239  120  241 1    
   240  121  122 am   BACKBONE|DICT|INTERRES
   241  121  123 2    
   242  122  242 1    
   243  122  243 1    
   244  124  125 1    
   245  124  244 1    
   246  124  245 1    
   247  125  126 1    
   248  126  246 1    
   249  126  247 1    
@<TRIPOS>SUBSTRUCTURE
     1 UNK         1 GROUP             0       ****    0 ROOT    
