@<TRIPOS>MOLECULE
3R540
247   249    1
SMALL
USER_CHARGES


@<TRIPOS>ATOM
      1 CA         -4.0952  -14.0665  -44.9040 C.3       0 UNK        -0.1800 
      2 C          -4.1267  -13.7791  -46.3984 C.2       0 UNK         0.5000 
      3 O          -4.7410  -12.7972  -46.8168 O.2       0 UNK        -0.5000 
      4 N          -3.4781  -14.6307  -47.2022 N.am      1 UNK        -0.5000 
      5 CA         -3.3191  -14.4502  -48.6477 C.3       1 UNK         0.1400 
      6 C6         -3.0839  -15.8006  -49.3703 C.3       23 UNK        -0.0398 
      7 S7         -1.5111  -16.6478  -48.9864 S.3       23 UNK        -0.2404 
      8 C8         -2.0466  -18.3822  -49.0662 C.3       23 UNK        -0.0205 
      9 C9         -0.9774  -19.2937  -49.6478 C.ar      23 UNK        -0.0193 
     10 C10        -1.0026  -19.6317  -51.0035 C.ar      23 UNK        -0.1150 
     11 C11        -0.0441  -20.4995  -51.5408 C.ar      23 UNK        -0.0193 
     12 C12         0.9366  -21.0371  -50.7023 C.ar      23 UNK        -0.1150 
     13 C13         0.9681  -20.7148  -49.3438 C.ar      23 UNK        -0.0193 
     14 C14         0.0135  -19.8341  -48.8265 C.ar      23 UNK        -0.1150 
     15 C15         2.0374  -21.3168  -48.4422 C.3       23 UNK        -0.0205 
     16 S16         1.6685  -23.0355  -47.9593 S.3       23 UNK        -0.2404 
     17 C17         0.0807  -22.8928  -47.0690 C.3       23 UNK        -0.0398 
     18 CA          0.1151  -23.5515  -45.6658 C.3       11 UNK         0.1400 
     19 N           0.9123  -22.7809  -44.7083 N.am      11 UNK        -0.5000 
     20 C           1.5138  -23.2669  -43.6160 C.2       10 UNK         0.5000 
     21 O           1.5034  -24.4602  -43.3091 O.2       10 UNK        -0.5000 
     22 CA          2.1914  -22.2447  -42.6858 C.3       10 UNK         0.1400 
     23 CB          3.5124  -21.7402  -43.2871 C.3       10 UNK        -0.1800 
     24 N           1.3187  -21.1092  -42.3803 N.am      10 UNK        -0.5000 
     25 C           0.2211  -21.1774  -41.6121 C.2       9 UNK         0.5000 
     26 O          -0.1475  -22.2028  -41.0385 O.2       9 UNK        -0.5000 
     27 CA         -0.6092  -19.8876  -41.4555 C.3       9 UNK         0.1400 
     28 CB         -0.0232  -18.9891  -40.3559 C.3       9 UNK        -0.1800 
     29 N          -0.7152  -19.1282  -42.7007 N.am      9 UNK        -0.5000 
     30 C          -1.4110  -19.5296  -43.7735 C.2       8 UNK         0.5000 
     31 O          -2.1159  -20.5375  -43.7911 O.2       8 UNK        -0.5000 
     32 CA         -1.2683  -18.6837  -45.0549 C.3       8 UNK         0.1400 
     33 CB         -2.2982  -17.5478  -45.0804 C.3       8 UNK        -0.1800 
     34 N           0.0744  -18.1265  -45.2420 N.am      8 UNK        -0.5000 
     35 C           1.1830  -18.8689  -45.3647 C.2       7 UNK         0.5000 
     36 O           1.1783  -20.0967  -45.3601 O.2       7 UNK        -0.5000 
     37 CA          2.5242  -18.1274  -45.4480 C.3       7 UNK         0.1400 
     38 CB          2.7594  -17.5515  -46.8540 C.3       7 UNK        -0.1800 
     39 N           2.6079  -17.0775  -44.4338 N.am      7 UNK        -0.5000 
     40 C           2.6898  -17.3176  -43.1159 C.2       6 UNK         0.5000 
     41 O           2.7783  -18.4460  -42.6330 O.2       6 UNK        -0.5000 
     42 CA          2.6140  -16.0981  -42.1786 C.3       6 UNK         0.1400 
     43 CB          4.0089  -15.4903  -41.9704 C.3       6 UNK        -0.1800 
     44 N           1.7053  -15.0644  -42.6756 N.am      6 UNK        -0.5000 
     45 C           0.3766  -15.2064  -42.7926 C.2       5 UNK         0.5000 
     46 O          -0.2384  -16.2057  -42.4228 O.2       5 UNK        -0.5000 
     47 CA         -0.3742  -14.0641  -43.5052 C.3       5 UNK         0.1400 
     48 CB         -0.7875  -12.9725  -42.5080 C.3       5 UNK        -0.1800 
     49 N           0.4244  -13.4715  -44.5831 N.am      5 UNK        -0.5000 
     50 C           0.7571  -14.1286  -45.7014 C.2       4 UNK         0.5000 
     51 O           0.3365  -15.2565  -45.9732 O.2       4 UNK        -0.5000 
     52 CA          1.8038  -13.4600  -46.6053 C.3       4 UNK         0.1400 
     53 CB          3.2123  -13.7545  -46.0410 C.3       4 UNK        -0.1800 
     54 N           1.6183  -13.9571  -47.9693 N.am      4 UNK        -0.5000 
     55 C           2.4363  -13.8689  -49.0285 C.2       3 UNK         0.5000 
     56 O           3.5771  -13.4069  -49.0031 O.2       3 UNK        -0.5000 
     57 CA          1.8381  -14.3209  -50.3761 C.3       3 UNK         0.1400 
     58 CB          1.7834  -15.8548  -50.4715 C.3       3 UNK        -0.1800 
     59 N           0.5016  -13.7526  -50.5784 N.am      3 UNK        -0.5000 
     60 C           0.2637  -12.4386  -50.7308 C.2       2 UNK         0.5000 
     61 O           1.1551  -11.6025  -50.8838 O.2       2 UNK        -0.5000 
     62 CA         -1.2020  -11.9561  -50.6908 C.3       2 UNK         0.1400 
     63 CB         -1.6452  -11.4391  -52.0658 C.3       2 UNK        -0.1800 
     64 N          -2.1593  -12.9614  -50.2208 N.am      2 UNK        -0.5000 
     65 C          -2.2257  -13.4042  -48.9584 C.2       1 UNK         0.5000 
     66 O          -1.4489  -13.0329  -48.0742 O.2       1 UNK        -0.5000 
     67 C          -1.3031  -23.8061  -45.1092 C.2       11 UNK         0.5000 
     68 O          -2.2930  -23.4293  -45.7350 O.2       11 UNK        -0.5000 
     69 N          -1.3800  -24.4703  -43.9484 N.am      12 UNK        -0.5000 
     70 CA         -2.6224  -24.9806  -43.3626 C.3       12 UNK         0.1400 
     71 CB         -2.3773  -25.3047  -41.8816 C.3       12 UNK        -0.1800 
     72 C          -3.1501  -26.2222  -44.1128 C.2       12 UNK         0.5000 
     73 O          -4.3460  -26.5094  -44.0584 O.2       12 UNK        -0.5000 
     74 N          -2.2447  -26.9136  -44.8128 N.am      13 UNK        -0.5000 
     75 CA         -2.4990  -28.0059  -45.7447 C.3       13 UNK         0.1400 
     76 CB         -1.9164  -29.3018  -45.1521 C.3       13 UNK        -0.1800 
     77 C          -1.8603  -27.6471  -47.1008 C.2       13 UNK         0.5000 
     78 O          -1.4202  -26.5075  -47.2878 O.2       13 UNK        -0.5000 
     79 N          -1.8318  -28.6145  -48.0289 N.am      14 UNK        -0.5000 
     80 CA         -1.3240  -28.5113  -49.4028 C.3       14 UNK         0.1400 
     81 CB          0.2004  -28.2570  -49.4214 C.3       14 UNK        -0.1800 
     82 C          -2.1353  -27.4867  -50.2186 C.2       14 UNK         0.5000 
     83 O          -3.1976  -27.8381  -50.7336 O.2       14 UNK        -0.5000 
     84 N          -1.6527  -26.2381  -50.2850 N.am      15 UNK        -0.5000 
     85 CA         -2.3797  -25.0965  -50.8441 C.3       15 UNK         0.1400 
     86 CB         -1.4153  -23.9117  -51.0112 C.3       15 UNK        -0.1800 
     87 C          -3.5924  -24.6831  -49.9867 C.2       15 UNK         0.5000 
     88 O          -4.5374  -24.1028  -50.5228 O.2       15 UNK        -0.5000 
     89 N          -3.5348  -24.9691  -48.6741 N.am      16 UNK        -0.5000 
     90 CA         -4.5864  -24.7793  -47.6624 C.3       16 UNK         0.1400 
     91 CB         -5.7379  -25.7727  -47.9155 C.3       16 UNK        -0.1800 
     92 C          -5.0896  -23.3241  -47.5219 C.2       16 UNK         0.5000 
     93 O          -6.1945  -23.1011  -47.0239 O.2       16 UNK        -0.5000 
     94 N          -4.2789  -22.3697  -48.0015 N.am      17 UNK        -0.5000 
     95 CA         -4.5595  -20.9432  -48.1660 C.3       17 UNK         0.1400 
     96 CB         -4.6353  -20.2403  -46.7959 C.3       17 UNK        -0.1800 
     97 C          -5.7769  -20.6470  -49.0721 C.2       17 UNK         0.5000 
     98 O          -6.4158  -19.6055  -48.9154 O.2       17 UNK        -0.5000 
     99 N          -6.0825  -21.5642  -50.0035 N.am      18 UNK        -0.5000 
    100 CA        -7.2169  -21.4592  -50.9226 C.3       18 UNK         0.1400 
    101 CB        -7.5317  -22.8495  -51.4952 C.3       18 UNK        -0.1800 
    102 C         -6.9729  -20.4477  -52.0568 C.2       18 UNK         0.5000 
    103 O         -7.9224  -19.8147  -52.5209 O.2       18 UNK        -0.5000 
    104 N         -5.7100  -20.3127  -52.4809 N.am      19 UNK        -0.5000 
    105 CA        -5.2688  -19.3298  -53.4663 C.3       19 UNK         0.1400 
    106 CB        -3.9443  -19.8002  -54.0819 C.3       19 UNK        -0.1800 
    107 C         -5.1104  -17.9468  -52.8123 C.2       19 UNK         0.5000 
    108 O         -4.5632  -17.8515  -51.7120 O.2       19 UNK        -0.5000 
    109 N         -5.5800  -16.9019  -53.5049 N.am      20 UNK        -0.5000 
    110 CA        -5.5482  -15.5162  -53.0296 C.3       20 UNK         0.1400 
    111 CB        -6.5347  -14.6789  -53.8573 C.3       20 UNK        -0.1800 
    112 C         -4.1453  -14.8831  -53.0709 C.2       20 UNK         0.5000 
    113 O         -3.8689  -13.9811  -52.2783 O.2       20 UNK        -0.5000 
    114 N         -3.2867  -15.3638  -53.9761 N.am      21 UNK        -0.5000 
    115 CA        -1.9136  -14.9127  -54.1578 C.3       21 UNK         0.1400 
    116 CB        -1.8858  -13.7201  -55.1310 C.3       21 UNK        -0.1800 
    117 C         -1.0875  -16.0781  -54.7113 C.2       21 UNK         0.5000 
    118 O         -1.5802  -16.8046  -55.5778 O.2       21 UNK        -0.5000 
    119 N          0.1505  -16.2049  -54.2271 N.am      22 UNK        -0.5000 
    120 CA         1.1647  -17.1727  -54.6668 C.3       22 UNK         0.1400 
    121 C          2.5669  -16.5104  -54.6227 C.2       22 UNK         0.5000 
    122 N          3.5151  -17.0015  -55.4085 N.am      22 UNK        -0.7600 
    123 O          2.8130  -15.5699  -53.8694 O.2       22 UNK        -0.5000 
    124 C124        1.1498  -18.4818  -53.8302 C.3       23 UNK        -0.0398 
    125 S125       -0.3221  -19.5056  -54.1539 S.3       23 UNK        -0.2404 
    126 C126       -0.0740  -20.9012  -53.0117 C.3       23 UNK        -0.0205 
    127 H127       -3.6403  -15.0311  -44.6857 H         1 UNK         0.0600 
    128 H128       -5.1080  -14.0739  -44.5012 H         1 UNK         0.0600 
    129 H129       -3.5271  -13.2938  -44.3861 H         1 UNK         0.0600 
    130 H130       -2.9370  -15.3828  -46.8028 H         1 UNK         0.3000 
    131 H131       -4.2553  -14.0446  -49.0381 H         1 UNK         0.0600 
    132 H132       -3.9183  -16.4639  -49.1380 H         1 UNK         0.0800 
    133 H133       -3.1207  -15.6695  -50.4502 H         1 UNK         0.0800 
    134 H134       -2.3163  -18.7092  -48.0626 H         1 UNK         0.0800 
    135 H135       -2.9501  -18.4667  -49.6707 H         1 UNK         0.0800 
    136 H136       -1.7717  -19.2166  -51.6387 H         1 UNK         0.1150 
    137 H137        1.6723  -21.7211  -51.1017 H         1 UNK         0.1150 
    138 H138        0.0292  -19.5772  -47.7803 H         1 UNK         0.1150 
    139 H139        2.9943  -21.3029  -48.9657 H         1 UNK         0.0800 
    140 H140        2.1832  -20.7123  -47.5509 H         1 UNK         0.0800 
    141 H141       -0.6624  -23.3767  -47.7043 H         1 UNK         0.0800 
    142 H142       -0.2255  -21.8509  -46.9828 H         1 UNK         0.0800 
    143 H143        0.5712  -24.5371  -45.7831 H         1 UNK         0.0600 
    144 H144        0.9692  -21.7784  -44.8863 H         1 UNK         0.3000 
    145 H145        2.4244  -22.7524  -41.7475 H         1 UNK         0.0600 
    146 H146        4.0232  -21.0633  -42.6021 H         1 UNK         0.0600 
    147 H147        4.1898  -22.5704  -43.4905 H         1 UNK         0.0600 
    148 H148        3.3557  -21.2086  -44.2256 H         1 UNK         0.0600 
    149 H149        1.5761  -20.2176  -42.7871 H         1 UNK         0.3000 
    150 H150       -1.6171  -20.1772  -41.1506 H         1 UNK         0.0600 
    151 H151        0.0277  -19.5201  -39.4047 H         1 UNK         0.0600 
    152 H152       -0.6386  -18.1024  -40.2019 H         1 UNK         0.0600 
    153 H153        0.9857  -18.6568  -40.6003 H         1 UNK         0.0600 
    154 H154       -0.2292  -18.2391  -42.7414 H         1 UNK         0.3000 
    155 H155       -1.4696  -19.3449  -45.8992 H         1 UNK         0.0600 
    156 H156       -2.1490  -16.8587  -44.2496 H         1 UNK         0.0600 
    157 H157       -3.3140  -17.9375  -45.0070 H         1 UNK         0.0600 
    158 H158       -2.2295  -16.9799  -46.0067 H         1 UNK         0.0600 
    159 H159        0.1506  -17.1158  -45.3066 H         1 UNK         0.3000 
    160 H160        3.3171  -18.8520  -45.2506 H         1 UNK         0.0600 
    161 H161        2.0048  -16.8174  -47.1316 H         1 UNK         0.0600 
    162 H162        2.7296  -18.3388  -47.6075 H         1 UNK         0.0600 
    163 H163        3.7370  -17.0759  -46.9274 H         1 UNK         0.0600 
    164 H164        2.4881  -16.1281  -44.7493 H         1 UNK         0.3000 
    165 H165        2.2411  -16.4427  -41.2117 H         1 UNK         0.0600 
    166 H166        3.9784  -14.6692  -41.2539 H         1 UNK         0.0600 
    167 H167        4.7039  -16.2349  -41.5800 H         1 UNK         0.0600 
    168 H168        4.4269  -15.1081  -42.9027 H         1 UNK         0.0600 
    169 H169        2.1254  -14.2018  -42.9867 H         1 UNK         0.3000 
    170 H170       -1.2796  -14.4870  -43.9439 H         1 UNK         0.0600 
    171 H171       -1.4016  -13.3887  -41.7082 H         1 UNK         0.0600 
    172 H172        0.0786  -12.4984  -42.0448 H         1 UNK         0.0600 
    173 H173       -1.3754  -12.1954  -42.9966 H         1 UNK         0.0600 
    174 H174        0.7951  -12.5462  -44.4200 H         1 UNK         0.3000 
    175 H175        1.6245  -12.3837  -46.6094 H         1 UNK         0.0600 
    176 H176        3.5066  -14.7902  -46.2038 H         1 UNK         0.0600 
    177 H177        3.9672  -13.1172  -46.4999 H         1 UNK         0.0600 
    178 H178        3.2650  -13.5615  -44.9691 H         1 UNK         0.0600 
    179 H179        0.7020  -14.3652  -48.1097 H         1 UNK         0.3000 
    180 H180        2.4831  -13.9569  -51.1789 H         1 UNK         0.0600 
    181 H181        1.2674  -16.3016  -49.6225 H         1 UNK         0.0600 
    182 H182        2.7899  -16.2739  -50.4909 H         1 UNK         0.0600 
    183 H183        1.2791  -16.1805  -51.3805 H         1 UNK         0.0600 
    184 H184       -0.2848  -14.3698  -50.4421 H         1 UNK         0.3000 
    185 H185       -1.2386  -11.1158  -49.9943 H         1 UNK         0.0600 
    186 H186       -1.0161  -10.6115  -52.3959 H         1 UNK         0.0600 
    187 H187       -1.5778  -12.2202  -52.8186 H         1 UNK         0.0600 
    188 H188       -2.6737  -11.0785  -52.0441 H         1 UNK         0.0600 
    189 H189       -2.8194  -13.3088  -50.9149 H         1 UNK         0.3000 
    190 H190       -0.5130  -24.7039  -43.4759 H         1 UNK         0.3000 
    191 H191       -3.3850  -24.2013  -43.4244 H         1 UNK         0.0600 
    192 H192       -2.0509  -24.4198  -41.3345 H         1 UNK         0.0600 
    193 H193       -3.2897  -25.6642  -41.4040 H         1 UNK         0.0600 
    194 H194       -1.6152  -26.0752  -41.7586 H         1 UNK         0.0600 
    195 H195       -1.3065  -26.5419  -44.8486 H         1 UNK         0.3000 
    196 H196       -3.5717  -28.1293  -45.9061 H         1 UNK         0.0600 
    197 H197       -2.1598  -30.1688  -45.7667 H         1 UNK         0.0600 
    198 H198       -2.3210  -29.4934  -44.1580 H         1 UNK         0.0600 
    199 H199       -0.8302  -29.2515  -45.0646 H         1 UNK         0.0600 
    200 H200       -2.2438  -29.5069  -47.7953 H         1 UNK         0.3000 
    201 H201       -1.4952  -29.4821  -49.8706 H         1 UNK         0.0600 
    202 H202        0.7337  -29.0724  -48.9329 H         1 UNK         0.0600 
    203 H203        0.4831  -27.3335  -48.9161 H         1 UNK         0.0600 
    204 H204        0.5721  -28.1979  -50.4452 H         1 UNK         0.0600 
    205 H205       -0.7910  -26.0355  -49.7983 H         1 UNK         0.3000 
    206 H206       -2.7544  -25.3758  -51.8311 H         1 UNK         0.0600 
    207 H207       -0.6062  -24.1544  -51.7001 H         1 UNK         0.0600 
    208 H208       -1.9339  -23.0409  -51.4141 H         1 UNK         0.0600 
    209 H209       -0.9677  -23.6136  -50.0632 H         1 UNK         0.0600 
    210 H210       -2.6914  -25.4172  -48.3275 H         1 UNK         0.3000 
    211 H211       -4.1376  -25.0395  -46.7044 H         1 UNK         0.0600 
    212 H212       -6.2785  -25.5367  -48.8328 H         1 UNK         0.0600 
    213 H213       -6.4575  -25.7579  -47.0961 H         1 UNK         0.0600 
    214 H214       -5.3653  -26.7938  -47.9983 H         1 UNK         0.0600 
    215 H215       -3.3883  -22.6822  -48.3586 H         1 UNK         0.3000 
    216 H216       -3.6972  -20.5475  -48.6984 H         1 UNK         0.0600 
    217 H217       -4.6796  -19.1568  -46.9114 H         1 UNK         0.0600 
    218 H218       -3.7589  -20.4677  -46.1888 H         1 UNK         0.0600 
    219 H219       -5.5180  -20.5472  -46.2345 H         1 UNK         0.0600 
    220 H220       -5.5208  -22.4080  -50.0723 H         1 UNK         0.3000 
    221 H221       -8.0886  -21.1221  -50.3575 H         1 UNK         0.0600 
    222 H222       -6.7002  -23.2405  -52.0830 H         1 UNK         0.0600 
    223 H223       -7.7440  -23.5646  -50.7001 H         1 UNK         0.0600 
    224 H224       -8.4065  -22.8151  -52.1457 H         1 UNK         0.0600 
    225 H225       -4.9896  -20.8400  -52.0116 H         1 UNK         0.3000 
    226 H226       -6.0121  -19.2657  -54.2640 H         1 UNK         0.0600 
    227 H227       -4.0726  -20.7360  -54.6259 H         1 UNK         0.0600 
    228 H228       -3.5518  -19.0649  -54.7859 H         1 UNK         0.0600 
    229 H229       -3.1848  -19.9619  -53.3180 H         1 UNK         0.0600 
    230 H230       -6.0164  -17.0601  -54.4019 H         1 UNK         0.3000 
    231 H231       -5.8815  -15.5022  -51.9895 H         1 UNK         0.0600 
    232 H232       -6.2646  -14.6653  -54.9140 H         1 UNK         0.0600 
    233 H233       -6.5554  -13.6446  -53.5109 H         1 UNK         0.0600 
    234 H234       -7.5497  -15.0679  -53.7739 H         1 UNK         0.0600 
    235 H235       -3.5618  -16.1370  -54.5673 H         1 UNK         0.3000 
    236 H236       -1.4991  -14.6130  -53.1927 H         1 UNK         0.0600 
    237 H237       -2.5421  -12.9152  -54.8006 H         1 UNK         0.0600 
    238 H238       -0.8788  -13.3101  -55.2160 H         1 UNK         0.0600 
    239 H239       -2.2076  -14.0124  -56.1315 H         1 UNK         0.0600 
    240 H240        0.5038  -15.5227  -53.5700 H         1 UNK         0.3000 
    241 H241        0.9733  -17.4213  -55.7128 H         1 UNK         0.0600 
    242 H242        4.4329  -16.5844  -55.3835 H         1 UNK         0.3800 
    243 H243        3.3408  -17.7717  -56.0360 H         1 UNK         0.3800 
    244 H244        2.0239  -19.0957  -54.0539 H         1 UNK         0.0800 
    245 H245        1.2010  -18.2523  -52.7649 H         1 UNK         0.0800 
    246 H246        0.8461  -21.4168  -53.2909 H         1 UNK         0.0800 
    247 H247       -0.8840  -21.6157  -53.1598 H         1 UNK         0.0800 
@<TRIPOS>BOND
     1    1    2 1    
     2    1  127 1    
     3    1  128 1    
     4    1  129 1    
     5    2    3 2    
     6    2    4 am   BACKBONE|DICT|INTERRES
     7    4    5 1    
     8    4  130 1    
     9    5    6 1    
    10    5   65 1    
    11    5  131 1    
    12    6    7 1    
    13    6  132 1    
    14    6  133 1    
    15    7    8 1    
    16    8    9 1    
    17    8  134 1    
    18    8  135 1    
    19    9   10 ar   
    20    9   14 ar   
    21   10   11 ar   
    22   10  136 1    
    23   11   12 ar   
    24   11  126 1    
    25   12   13 ar   
    26   12  137 1    
    27   13   14 ar   
    28   13   15 1    
    29   14  138 1    
    30   15   16 1    
    31   15  139 1    
    32   15  140 1    
    33   16   17 1    
    34   17   18 1    
    35   17  141 1    
    36   17  142 1    
    37   18   19 1    
    38   18   67 1    
    39   18  143 1    
    40   19   20 am   BACKBONE|DICT|INTERRES
    41   19  144 1    
    42   20   21 2    
    43   20   22 1    
    44   22   23 1    
    45   22   24 1    
    46   22  145 1    
    47   23  146 1    
    48   23  147 1    
    49   23  148 1    
    50   24   25 am   BACKBONE|DICT|INTERRES
    51   24  149 1    
    52   25   26 2    
    53   25   27 1    
    54   27   28 1    
    55   27   29 1    
    56   27  150 1    
    57   28  151 1    
    58   28  152 1    
    59   28  153 1    
    60   29   30 am   BACKBONE|DICT|INTERRES
    61   29  154 1    
    62   30   31 2    
    63   30   32 1    
    64   32   33 1    
    65   32   34 1    
    66   32  155 1    
    67   33  156 1    
    68   33  157 1    
    69   33  158 1    
    70   34   35 am   BACKBONE|DICT|INTERRES
    71   34  159 1    
    72   35   36 2    
    73   35   37 1    
    74   37   38 1    
    75   37   39 1    
    76   37  160 1    
    77   38  161 1    
    78   38  162 1    
    79   38  163 1    
    80   39   40 am   BACKBONE|DICT|INTERRES
    81   39  164 1    
    82   40   41 2    
    83   40   42 1    
    84   42   43 1    
    85   42   44 1    
    86   42  165 1    
    87   43  166 1    
    88   43  167 1    
    89   43  168 1    
    90   44   45 am   BACKBONE|DICT|INTERRES
    91   44  169 1    
    92   45   46 2    
    93   45   47 1    
    94   47   48 1    
    95   47   49 1    
    96   47  170 1    
    97   48  171 1    
    98   48  172 1    
    99   48  173 1    
   100   49   50 am   BACKBONE|DICT|INTERRES
   101   49  174 1    
   102   50   51 2    
   103   50   52 1    
   104   52   53 1    
   105   52   54 1    
   106   52  175 1    
   107   53  176 1    
   108   53  177 1    
   109   53  178 1    
   110   54   55 am   BACKBONE|DICT|INTERRES
   111   54  179 1    
   112   55   56 2    
   113   55   57 1    
   114   57   58 1    
   115   57   59 1    
   116   57  180 1    
   117   58  181 1    
   118   58  182 1    
   119   58  183 1    
   120   59   60 am   BACKBONE|DICT|INTERRES
   121   59  184 1    
   122   60   61 2    
   123   60   62 1    
   124   62   63 1    
   125   62   64 1    
   126   62  185 1    
   127   63  186 1    
   128   63  187 1    
   129   63  188 1    
   130   64   65 am   BACKBONE|DICT|INTERRES
   131   64  189 1    
   132   65   66 2    
   133   67   68 2    
   134   67   69 am   BACKBONE|DICT|INTERRES
   135   69   70 1    
   136   69  190 1    
   137   70   71 1    
   138   70   72 1    
   139   70  191 1    
   140   71  192 1    
   141   71  193 1    
   142   71  194 1    
   143   72   73 2    
   144   72   74 am   BACKBONE|DICT|INTERRES
   145   74   75 1    
   146   74  195 1    
   147   75   76 1    
   148   75   77 1    
   149   75  196 1    
   150   76  197 1    
   151   76  198 1    
   152   76  199 1    
   153   77   78 2    
   154   77   79 am   BACKBONE|DICT|INTERRES
   155   79   80 1    
   156   79  200 1    
   157   80   81 1    
   158   80   82 1    
   159   80  201 1    
   160   81  202 1    
   161   81  203 1    
   162   81  204 1    
   163   82   83 2    
   164   82   84 am   BACKBONE|DICT|INTERRES
   165   84   85 1    
   166   84  205 1    
   167   85   86 1    
   168   85   87 1    
   169   85  206 1    
   170   86  207 1    
   171   86  208 1    
   172   86  209 1    
   173   87   88 2    
   174   87   89 am   BACKBONE|DICT|INTERRES
   175   89   90 1    
   176   89  210 1    
   177   90   91 1    
   178   90   92 1    
   179   90  211 1    
   180   91  212 1    
   181   91  213 1    
   182   91  214 1    
   183   92   93 2    
   184   92   94 am   BACKBONE|DICT|INTERRES
   185   94   95 1    
   186   94  215 1    
   187   95   96 1    
   188   95   97 1    
   189   95  216 1    
   190   96  217 1    
   191   96  218 1    
   192   96  219 1    
   193   97   98 2    
   194   97   99 am   BACKBONE|DICT|INTERRES
   195   99  100 1    
   196   99  220 1    
   197  100  101 1    
   198  100  102 1    
   199  100  221 1    
   200  101  222 1    
   201  101  223 1    
   202  101  224 1    
   203  102  103 2    
   204  102  104 am   BACKBONE|DICT|INTERRES
   205  104  105 1    
   206  104  225 1    
   207  105  106 1    
   208  105  107 1    
   209  105  226 1    
   210  106  227 1    
   211  106  228 1    
   212  106  229 1    
   213  107  108 2    
   214  107  109 am   BACKBONE|DICT|INTERRES
   215  109  110 1    
   216  109  230 1    
   217  110  111 1    
   218  110  112 1    
   219  110  231 1    
   220  111  232 1    
   221  111  233 1    
   222  111  234 1    
   223  112  113 2    
   224  112  114 am   BACKBONE|DICT|INTERRES
   225  114  115 1    
   226  114  235 1    
   227  115  116 1    
   228  115  117 1    
   229  115  236 1    
   230  116  237 1    
   231  116  238 1    
   232  116  239 1    
   233  117  118 2    
   234  117  119 am   BACKBONE|DICT|INTERRES
   235  119  120 1    
   236  119  240 1    
   237  120  121 1    
   238  120  124 1    
   239  120  241 1    
   240  121  122 am   BACKBONE|DICT|INTERRES
   241  121  123 2    
   242  122  242 1    
   243  122  243 1    
   244  124  125 1    
   245  124  244 1    
   246  124  245 1    
   247  125  126 1    
   248  126  246 1    
   249  126  247 1    
@<TRIPOS>SUBSTRUCTURE
     1 UNK         1 GROUP             0       ****    0 ROOT    
