@<TRIPOS>MOLECULE
3R540
247   249    1
SMALL
USER_CHARGES


@<TRIPOS>ATOM
      1 CA         -2.5644  -11.9419  -45.8022 C.3       0 UNK        -0.1800 
      2 C          -2.6949  -11.6315  -47.2923 C.2       0 UNK         0.5000 
      3 O          -3.4328  -10.7136  -47.6445 O.2       0 UNK        -0.5000 
      4 N          -2.0203  -12.3421  -48.2103 N.am      1 UNK        -0.5000 
      5 CA         -1.0781  -13.4611  -48.0312 C.3       1 UNK         0.1400 
      6 C6         -1.6795  -14.7319  -47.3686 C.3       23 UNK        -0.0398 
      7 S7         -3.2387  -15.2797  -48.1435 S.3       23 UNK        -0.2404 
      8 C8         -3.6969  -16.6632  -47.0512 C.3       23 UNK        -0.0205 
      9 C9         -3.5647  -18.0263  -47.7205 C.ar      23 UNK        -0.0193 
     10 C10        -4.6623  -18.8919  -47.7647 C.ar      23 UNK        -0.1150 
     11 C11        -4.5444  -20.1654  -48.3294 C.ar      23 UNK        -0.0193 
     12 C12        -3.3133  -20.5759  -48.8452 C.ar      23 UNK        -0.1150 
     13 C13        -2.2062  -19.7253  -48.8075 C.ar      23 UNK        -0.0193 
     14 C14        -2.3418  -18.4475  -48.2521 C.ar      23 UNK        -0.1150 
     15 C15        -0.8712  -20.2125  -49.3598 C.3       23 UNK        -0.0205 
     16 S16         0.5649  -19.8622  -48.2869 S.3       23 UNK        -0.2404 
     17 C17        -0.0092  -20.3532  -46.6240 C.3       23 UNK        -0.0398 
     18 CA          0.3852  -21.7926  -46.2275 C.3       11 UNK         0.1400 
     19 N           0.4604  -21.9340  -44.7744 N.am      11 UNK        -0.5000 
     20 C           0.9043  -23.0150  -44.1215 C.2       10 UNK         0.5000 
     21 O           1.3614  -24.0141  -44.6755 O.2       10 UNK        -0.5000 
     22 CA          0.7626  -22.9862  -42.5909 C.3       10 UNK         0.1400 
     23 CB          1.9274  -22.2187  -41.9477 C.3       10 UNK        -0.1800 
     24 N          -0.5084  -22.3890  -42.1771 N.am      10 UNK        -0.5000 
     25 C          -1.7048  -22.9669  -42.3546 C.2       9 UNK         0.5000 
     26 O          -1.8584  -24.0810  -42.8548 O.2       9 UNK        -0.5000 
     27 CA         -2.9375  -22.1437  -41.9381 C.3       9 UNK         0.1400 
     28 CB         -3.1597  -22.2254  -40.4205 C.3       9 UNK        -0.1800 
     29 N          -2.8464  -20.7393  -42.3427 N.am      9 UNK        -0.5000 
     30 C          -2.8426  -20.3215  -43.6162 C.2       8 UNK         0.5000 
     31 O          -2.9115  -21.0763  -44.5826 O.2       8 UNK        -0.5000 
     32 CA         -2.6936  -18.8106  -43.8577 C.3       8 UNK         0.1400 
     33 CB         -4.0594  -18.1156  -43.7528 C.3       8 UNK        -0.1800 
     34 N          -1.7456  -18.1486  -42.9595 N.am      8 UNK        -0.5000 
     35 C          -0.4606  -18.4824  -42.7809 C.2       7 UNK         0.5000 
     36 O           0.0670  -19.4684  -43.2987 O.2       7 UNK        -0.5000 
     37 CA          0.3644  -17.5255  -41.8986 C.3       7 UNK         0.1400 
     38 CB          1.7719  -18.0669  -41.5928 C.3       7 UNK        -0.1800 
     39 N           0.4783  -16.2097  -42.5322 N.am      7 UNK        -0.5000 
     40 C          -0.4690  -15.2589  -42.5059 C.2       6 UNK         0.5000 
     41 O          -1.5421  -15.4067  -41.9174 O.2       6 UNK        -0.5000 
     42 CA         -0.2177  -13.9546  -43.2958 C.3       6 UNK         0.1400 
     43 CB         -0.7912  -12.7106  -42.5867 C.3       6 UNK        -0.1800 
     44 N           1.1777  -13.7425  -43.6899 N.am      6 UNK        -0.5000 
     45 C           2.2369  -13.5473  -42.8884 C.2       5 UNK         0.5000 
     46 O           2.1592  -13.4434  -41.6634 O.2       5 UNK        -0.5000 
     47 CA          3.6169  -13.4843  -43.5816 C.3       5 UNK         0.1400 
     48 CB          4.7724  -13.8955  -42.6458 C.3       5 UNK        -0.1800 
     49 N           3.6754  -14.2478  -44.8353 N.am      5 UNK        -0.5000 
     50 C           3.4416  -15.5610  -44.9999 C.2       4 UNK         0.5000 
     51 O           3.1564  -16.3151  -44.0701 O.2       4 UNK        -0.5000 
     52 CA          3.4728  -16.1184  -46.4374 C.3       4 UNK         0.1400 
     53 CB          2.2565  -17.0223  -46.7022 C.3       4 UNK        -0.1800 
     54 N           3.4712  -15.0430  -47.4284 N.am      4 UNK        -0.5000 
     55 C           4.5334  -14.6186  -48.1256 C.2       3 UNK         0.5000 
     56 O           5.6453  -15.1442  -48.0687 O.2       3 UNK        -0.5000 
     57 CA          4.3271  -13.3771  -49.0200 C.3       3 UNK         0.1400 
     58 CB          4.0877  -13.8006  -50.4772 C.3       3 UNK        -0.1800 
     59 N           3.2190  -12.5195  -48.5870 N.am      3 UNK        -0.5000 
     60 C           3.1749  -11.8417  -47.4309 C.2       2 UNK         0.5000 
     61 O           4.0964  -11.8258  -46.6153 O.2       2 UNK        -0.5000 
     62 CA          1.8549  -11.1216  -47.0948 C.3       2 UNK         0.1400 
     63 CB          1.9032   -9.6597  -47.5616 C.3       2 UNK        -0.1800 
     64 N           0.6639  -11.7682  -47.6567 N.am      2 UNK        -0.5000 
     65 C           0.2476  -13.0121  -47.3754 C.2       1 UNK         0.5000 
     66 O           0.8608  -13.7743  -46.6248 O.2       1 UNK        -0.5000 
     67 C          -0.5569  -22.8453  -46.8491 C.2       11 UNK         0.5000 
     68 O          -0.1570  -23.5328  -47.7863 O.2       11 UNK        -0.5000 
     69 N          -1.7606  -23.0012  -46.2781 N.am      12 UNK        -0.5000 
     70 CA         -2.7552  -23.9954  -46.6815 C.3       12 UNK         0.1400 
     71 CB         -4.0681  -23.7495  -45.9241 C.3       12 UNK        -0.1800 
     72 C          -2.2851  -25.4462  -46.4788 C.2       12 UNK         0.5000 
     73 O          -2.5828  -26.2987  -47.3154 O.2       12 UNK        -0.5000 
     74 N          -1.5472  -25.6994  -45.3883 N.am      13 UNK        -0.5000 
     75 CA         -0.9223  -26.9913  -45.1027 C.3       13 UNK         0.1400 
     76 CB         -0.3912  -27.0039  -43.6614 C.3       13 UNK        -0.1800 
     77 C           0.1947  -27.3428  -46.1037 C.2       13 UNK         0.5000 
     78 O           0.3305  -28.5114  -46.4686 O.2       13 UNK        -0.5000 
     79 N           0.9595  -26.3316  -46.5393 N.am      14 UNK        -0.5000 
     80 CA          1.9879  -26.4573  -47.5695 C.3       14 UNK         0.1400 
     81 CB          2.9132  -25.2300  -47.5377 C.3       14 UNK        -0.1800 
     82 C           1.3803  -26.6702  -48.9683 C.2       14 UNK         0.5000 
     83 O           1.7417  -27.6378  -49.6401 O.2       14 UNK        -0.5000 
     84 N           0.4623  -25.7836  -49.3738 N.am      15 UNK        -0.5000 
     85 CA         -0.2288  -25.8191  -50.6586 C.3       15 UNK         0.1400 
     86 CB          0.7339  -25.4483  -51.8052 C.3       15 UNK        -0.1800 
     87 C          -1.4383  -24.8737  -50.6164 C.2       15 UNK         0.5000 
     88 O          -1.2764  -23.6592  -50.7494 O.2       15 UNK        -0.5000 
     89 N          -2.6385  -25.4400  -50.4427 N.am      16 UNK        -0.5000 
     90 CA         -3.9062  -24.7141  -50.5222 C.3       16 UNK         0.1400 
     91 CB         -5.0535  -25.6365  -50.0863 C.3       16 UNK        -0.1800 
     92 C          -4.1498  -24.1579  -51.9375 C.2       16 UNK         0.5000 
     93 O          -3.9067  -24.8601  -52.9216 O.2       16 UNK        -0.5000 
     94 N          -4.6161  -22.9044  -51.9971 N.am      17 UNK        -0.5000 
     95 CA         -4.8968  -22.1120  -53.1984 C.3       17 UNK         0.1400 
     96 CB         -6.0654  -22.7168  -54.0024 C.3       17 UNK        -0.1800 
     97 C          -3.6598  -21.8068  -54.0709 C.2       17 UNK         0.5000 
     98 O          -3.8189  -21.4588  -55.2430 O.2       17 UNK        -0.5000 
     99 N          -2.4520  -21.8888  -53.4901 N.am      18 UNK        -0.5000 
    100 CA        -1.1967  -21.4755  -54.1211 C.3       18 UNK         0.1400 
    101 CB        -0.0192  -21.7934  -53.1902 C.3       18 UNK        -0.1800 
    102 C         -1.2273  -19.9774  -54.4674 C.2       18 UNK         0.5000 
    103 O         -1.5910  -19.1680  -53.6127 O.2       18 UNK        -0.5000 
    104 N         -0.9189  -19.6496  -55.7301 N.am      19 UNK        -0.5000 
    105 CA        -1.0181  -18.3129  -56.3361 C.3       19 UNK         0.1400 
    106 CB         0.0361  -17.3639  -55.7279 C.3       19 UNK        -0.1800 
    107 C         -2.4461  -17.7149  -56.2957 C.2       19 UNK         0.5000 
    108 O         -2.5987  -16.4937  -56.3485 O.2       19 UNK        -0.5000 
    109 N         -3.4616  -18.5884  -56.1896 N.am      20 UNK        -0.5000 
    110 CA        -4.8879  -18.2923  -56.0256 C.3       20 UNK         0.1400 
    111 CB        -5.4536  -17.5820  -57.2733 C.3       20 UNK        -0.1800 
    112 C         -5.2232  -17.5549  -54.7093 C.2       20 UNK         0.5000 
    113 O         -6.2469  -16.8730  -54.6444 O.2       20 UNK        -0.5000 
    114 N         -4.3835  -17.7220  -53.6735 N.am      21 UNK        -0.5000 
    115 CA        -4.4876  -17.0449  -52.3733 C.3       21 UNK         0.1400 
    116 CB        -3.2637  -17.4123  -51.5247 C.3       21 UNK        -0.1800 
    117 C         -5.7855  -17.3271  -51.5874 C.2       21 UNK         0.5000 
    118 O         -6.2078  -16.4868  -50.7923 O.2       21 UNK        -0.5000 
    119 N         -6.4052  -18.4823  -51.8440 N.am      22 UNK        -0.5000 
    120 CA        -7.6992  -18.8999  -51.2870 C.3       22 UNK         0.1400 
    121 C         -8.5845  -19.6455  -52.3279 C.2       22 UNK         0.5000 
    122 N         -8.3798  -19.4374  -53.6243 N.am      22 UNK        -0.7600 
    123 O         -9.4806  -20.4041  -51.9685 O.2       22 UNK        -0.5000 
    124 C124       -7.5577  -19.6216  -49.9196 C.3       23 UNK        -0.0398 
    125 S125       -6.5543  -21.1470  -49.9759 S.3       23 UNK        -0.2404 
    126 C126       -5.7318  -21.1159  -48.3544 C.3       23 UNK        -0.0205 
    127 H127       -3.1538  -12.8206  -45.5425 H         1 UNK         0.0600 
    128 H128       -2.9419  -11.1077  -45.2105 H         1 UNK         0.0600 
    129 H129       -1.5314  -12.1018  -45.5030 H         1 UNK         0.0600 
    130 H130       -2.1741  -12.0945  -49.1777 H         1 UNK         0.3000 
    131 H131       -0.7966  -13.7512  -49.0445 H         1 UNK         0.0600 
    132 H132       -0.9683  -15.5569  -47.4341 H         1 UNK         0.0800 
    133 H133       -1.8544  -14.5743  -46.3055 H         1 UNK         0.0800 
    134 H134       -3.0777  -16.6522  -46.1548 H         1 UNK         0.0800 
    135 H135       -4.7217  -16.5013  -46.7141 H         1 UNK         0.0800 
    136 H136       -5.6083  -18.5793  -47.3462 H         1 UNK         0.1150 
    137 H137       -3.2132  -21.5648  -49.2687 H         1 UNK         0.1150 
    138 H138       -1.4877  -17.7872  -48.2180 H         1 UNK         0.1150 
    139 H139       -0.9021  -21.2881  -49.5393 H         1 UNK         0.0800 
    140 H140       -0.7070  -19.7446  -50.3313 H         1 UNK         0.0800 
    141 H141       -1.0781  -20.1876  -46.4957 H         1 UNK         0.0800 
    142 H142        0.4655  -19.6480  -45.9412 H         1 UNK         0.0800 
    143 H143        1.3908  -21.9883  -46.6064 H         1 UNK         0.0600 
    144 H144        0.1464  -21.1382  -44.2253 H         1 UNK         0.3000 
    145 H145        0.7921  -24.0164  -42.2299 H         1 UNK         0.0600 
    146 H146        1.8494  -22.2201  -40.8605 H         1 UNK         0.0600 
    147 H147        2.8831  -22.6766  -42.2059 H         1 UNK         0.0600 
    148 H148        1.9620  -21.1812  -42.2812 H         1 UNK         0.0600 
    149 H149       -0.4723  -21.4463  -41.8181 H         1 UNK         0.3000 
    150 H150       -3.8080  -22.5803  -42.4327 H         1 UNK         0.0600 
    151 H151       -4.0793  -21.7177  -40.1291 H         1 UNK         0.0600 
    152 H152       -3.2454  -23.2629  -40.0945 H         1 UNK         0.0600 
    153 H153       -2.3363  -21.7739  -39.8658 H         1 UNK         0.0600 
    154 H154       -2.7753  -20.0510  -41.6080 H         1 UNK         0.3000 
    155 H155       -2.3187  -18.6784  -44.8743 H         1 UNK         0.0600 
    156 H156       -4.4953  -18.2330  -42.7600 H         1 UNK         0.0600 
    157 H157       -4.7643  -18.5326  -44.4736 H         1 UNK         0.0600 
    158 H158       -3.9804  -17.0475  -43.9548 H         1 UNK         0.0600 
    159 H159       -2.0652  -17.2969  -42.5103 H         1 UNK         0.3000 
    160 H160       -0.1588  -17.4191  -40.9460 H         1 UNK         0.0600 
    161 H161        2.3359  -18.2716  -42.5032 H         1 UNK         0.0600 
    162 H162        1.7148  -18.9980  -41.0281 H         1 UNK         0.0600 
    163 H163        2.3467  -17.3588  -40.9956 H         1 UNK         0.0600 
    164 H164        1.3287  -16.0461  -43.0606 H         1 UNK         0.3000 
    165 H165       -0.7660  -14.0757  -44.2294 H         1 UNK         0.0600 
    166 H166       -0.5934  -11.8032  -43.1572 H         1 UNK         0.0600 
    167 H167       -1.8728  -12.7901  -42.4718 H         1 UNK         0.0600 
    168 H168       -0.3676  -12.5796  -41.5908 H         1 UNK         0.0600 
    169 H169        1.3484  -13.8178  -44.6883 H         1 UNK         0.3000 
    170 H170        3.7686  -12.4391  -43.8540 H         1 UNK         0.0600 
    171 H171        4.8284  -13.2368  -41.7784 H         1 UNK         0.0600 
    172 H172        4.6506  -14.9139  -42.2754 H         1 UNK         0.0600 
    173 H173        5.7331  -13.8370  -43.1573 H         1 UNK         0.0600 
    174 H174        3.8919  -13.6962  -45.6571 H         1 UNK         0.3000 
    175 H175        4.3760  -16.7241  -46.5316 H         1 UNK         0.0600 
    176 H176        1.3157  -16.4964  -46.5366 H         1 UNK         0.0600 
    177 H177        2.2585  -17.3896  -47.7282 H         1 UNK         0.0600 
    178 H178        2.2644  -17.8942  -46.0470 H         1 UNK         0.0600 
    179 H179        2.6018  -14.5283  -47.5023 H         1 UNK         0.3000 
    180 H180        5.2453  -12.7873  -48.9795 H         1 UNK         0.0600 
    181 H181        3.1693  -14.3797  -50.5822 H         1 UNK         0.0600 
    182 H182        4.9086  -14.4177  -50.8448 H         1 UNK         0.0600 
    183 H183        4.0162  -12.9334  -51.1340 H         1 UNK         0.0600 
    184 H184        2.4162  -12.4747  -49.1971 H         1 UNK         0.3000 
    185 H185        1.7501  -11.1291  -46.0077 H         1 UNK         0.0600 
    186 H186        2.7658   -9.1424  -47.1392 H         1 UNK         0.0600 
    187 H187        1.9750   -9.5859  -48.6475 H         1 UNK         0.0600 
    188 H188        1.0133   -9.1150  -47.2455 H         1 UNK         0.0600 
    189 H189        0.0947  -11.2038  -48.2714 H         1 UNK         0.3000 
    190 H190       -2.0435  -22.3656  -45.5346 H         1 UNK         0.3000 
    191 H191       -2.9408  -23.8520  -47.7456 H         1 UNK         0.0600 
    192 H192       -4.4333  -22.7354  -46.0816 H         1 UNK         0.0600 
    193 H193       -4.8477  -24.4343  -46.2599 H         1 UNK         0.0600 
    194 H194       -3.9432  -23.8911  -44.8499 H         1 UNK         0.0600 
    195 H195       -1.4023  -24.9603  -44.7095 H         1 UNK         0.3000 
    196 H196       -1.6927  -27.7609  -45.1836 H         1 UNK         0.0600 
    197 H197        0.0555  -27.9689  -43.4189 H         1 UNK         0.0600 
    198 H198       -1.1931  -26.8277  -42.9444 H         1 UNK         0.0600 
    199 H199        0.3713  -26.2412  -43.5047 H         1 UNK         0.0600 
    200 H200        0.8146  -25.4069  -46.1496 H         1 UNK         0.3000 
    201 H201        2.5960  -27.3334  -47.3344 H         1 UNK         0.0600 
    202 H202        3.3942  -25.1266  -46.5649 H         1 UNK         0.0600 
    203 H203        2.3740  -24.3050  -47.7406 H         1 UNK         0.0600 
    204 H204        3.7032  -25.3190  -48.2843 H         1 UNK         0.0600 
    205 H205        0.2158  -25.0010  -48.7660 H         1 UNK         0.3000 
    206 H206       -0.5935  -26.8338  -50.8315 H         1 UNK         0.0600 
    207 H207        1.5112  -26.2006  -51.9363 H         1 UNK         0.0600 
    208 H208        0.2000  -25.3710  -52.7531 H         1 UNK         0.0600 
    209 H209        1.2243  -24.4917  -51.6212 H         1 UNK         0.0600 
    210 H210       -2.6997  -26.4405  -50.3245 H         1 UNK         0.3000 
    211 H211       -3.8605  -23.8767  -49.8248 H         1 UNK         0.0600 
    212 H212       -5.1391  -26.5075  -50.7372 H         1 UNK         0.0600 
    213 H213       -6.0084  -25.1098  -50.1136 H         1 UNK         0.0600 
    214 H214       -4.9076  -25.9914  -49.0657 H         1 UNK         0.0600 
    215 H215       -4.8153  -22.4266  -51.1281 H         1 UNK         0.3000 
    216 H216       -5.2321  -21.1411  -52.8334 H         1 UNK         0.0600 
    217 H217       -6.3789  -22.0471  -54.8041 H         1 UNK         0.0600 
    218 H218       -6.9348  -22.8829  -53.3660 H         1 UNK         0.0600 
    219 H219       -5.7941  -23.6688  -54.4590 H         1 UNK         0.0600 
    220 H220       -2.3930  -22.1830  -52.5251 H         1 UNK         0.3000 
    221 H221       -1.0758  -22.0540  -55.0392 H         1 UNK         0.0600 
    222 H222       -0.1272  -21.3064  -52.2206 H         1 UNK         0.0600 
    223 H223        0.0613  -22.8655  -53.0197 H         1 UNK         0.0600 
    224 H224        0.9255  -21.4623  -53.6231 H         1 UNK         0.0600 
    225 H225       -0.6545  -20.3901  -56.3654 H         1 UNK         0.3000 
    226 H226       -0.7769  -18.4389  -57.3924 H         1 UNK         0.0600 
    227 H227        1.0327  -17.8034  -55.7685 H         1 UNK         0.0600 
    228 H228        0.0773  -16.4211  -56.2744 H         1 UNK         0.0600 
    229 H229       -0.1842  -17.1276  -54.6864 H         1 UNK         0.0600 
    230 H230       -3.2310  -19.5738  -56.1274 H         1 UNK         0.3000 
    231 H231       -5.3850  -19.2606  -55.9539 H         1 UNK         0.0600 
    232 H232       -5.0699  -16.5663  -57.3722 H         1 UNK         0.0600 
    233 H233       -5.2035  -18.1259  -58.1842 H         1 UNK         0.0600 
    234 H234       -6.5411  -17.5153  -57.2268 H         1 UNK         0.0600 
    235 H235       -3.5470  -18.2783  -53.8117 H         1 UNK         0.3000 
    236 H236       -4.4570  -15.9704  -52.5636 H         1 UNK         0.0600 
    237 H237       -2.3378  -17.0941  -52.0038 H         1 UNK         0.0600 
    238 H238       -3.3049  -16.9267  -50.5511 H         1 UNK         0.0600 
    239 H239       -3.2031  -18.4876  -51.3523 H         1 UNK         0.0600 
    240 H240       -5.9920  -19.1140  -52.5112 H         1 UNK         0.3000 
    241 H241       -8.2761  -17.9943  -51.0907 H         1 UNK         0.0600 
    242 H242       -7.7415  -18.7220  -53.9370 H         1 UNK         0.3800 
    243 H243       -8.9644  -19.9136  -54.2932 H         1 UNK         0.3800 
    244 H244       -7.1149  -18.9284  -49.2053 H         1 UNK         0.0800 
    245 H245       -8.5393  -19.8689  -49.5127 H         1 UNK         0.0800 
    246 H246       -6.4530  -20.8591  -47.5769 H         1 UNK         0.0800 
    247 H247       -5.3901  -22.1261  -48.1286 H         1 UNK         0.0800 
@<TRIPOS>BOND
     1    1    2 1    
     2    1  127 1    
     3    1  128 1    
     4    1  129 1    
     5    2    3 2    
     6    2    4 am   BACKBONE|DICT|INTERRES
     7    4    5 1    
     8    4  130 1    
     9    5    6 1    
    10    5   65 1    
    11    5  131 1    
    12    6    7 1    
    13    6  132 1    
    14    6  133 1    
    15    7    8 1    
    16    8    9 1    
    17    8  134 1    
    18    8  135 1    
    19    9   10 ar   
    20    9   14 ar   
    21   10   11 ar   
    22   10  136 1    
    23   11   12 ar   
    24   11  126 1    
    25   12   13 ar   
    26   12  137 1    
    27   13   14 ar   
    28   13   15 1    
    29   14  138 1    
    30   15   16 1    
    31   15  139 1    
    32   15  140 1    
    33   16   17 1    
    34   17   18 1    
    35   17  141 1    
    36   17  142 1    
    37   18   19 1    
    38   18   67 1    
    39   18  143 1    
    40   19   20 am   BACKBONE|DICT|INTERRES
    41   19  144 1    
    42   20   21 2    
    43   20   22 1    
    44   22   23 1    
    45   22   24 1    
    46   22  145 1    
    47   23  146 1    
    48   23  147 1    
    49   23  148 1    
    50   24   25 am   BACKBONE|DICT|INTERRES
    51   24  149 1    
    52   25   26 2    
    53   25   27 1    
    54   27   28 1    
    55   27   29 1    
    56   27  150 1    
    57   28  151 1    
    58   28  152 1    
    59   28  153 1    
    60   29   30 am   BACKBONE|DICT|INTERRES
    61   29  154 1    
    62   30   31 2    
    63   30   32 1    
    64   32   33 1    
    65   32   34 1    
    66   32  155 1    
    67   33  156 1    
    68   33  157 1    
    69   33  158 1    
    70   34   35 am   BACKBONE|DICT|INTERRES
    71   34  159 1    
    72   35   36 2    
    73   35   37 1    
    74   37   38 1    
    75   37   39 1    
    76   37  160 1    
    77   38  161 1    
    78   38  162 1    
    79   38  163 1    
    80   39   40 am   BACKBONE|DICT|INTERRES
    81   39  164 1    
    82   40   41 2    
    83   40   42 1    
    84   42   43 1    
    85   42   44 1    
    86   42  165 1    
    87   43  166 1    
    88   43  167 1    
    89   43  168 1    
    90   44   45 am   BACKBONE|DICT|INTERRES
    91   44  169 1    
    92   45   46 2    
    93   45   47 1    
    94   47   48 1    
    95   47   49 1    
    96   47  170 1    
    97   48  171 1    
    98   48  172 1    
    99   48  173 1    
   100   49   50 am   BACKBONE|DICT|INTERRES
   101   49  174 1    
   102   50   51 2    
   103   50   52 1    
   104   52   53 1    
   105   52   54 1    
   106   52  175 1    
   107   53  176 1    
   108   53  177 1    
   109   53  178 1    
   110   54   55 am   BACKBONE|DICT|INTERRES
   111   54  179 1    
   112   55   56 2    
   113   55   57 1    
   114   57   58 1    
   115   57   59 1    
   116   57  180 1    
   117   58  181 1    
   118   58  182 1    
   119   58  183 1    
   120   59   60 am   BACKBONE|DICT|INTERRES
   121   59  184 1    
   122   60   61 2    
   123   60   62 1    
   124   62   63 1    
   125   62   64 1    
   126   62  185 1    
   127   63  186 1    
   128   63  187 1    
   129   63  188 1    
   130   64   65 am   BACKBONE|DICT|INTERRES
   131   64  189 1    
   132   65   66 2    
   133   67   68 2    
   134   67   69 am   BACKBONE|DICT|INTERRES
   135   69   70 1    
   136   69  190 1    
   137   70   71 1    
   138   70   72 1    
   139   70  191 1    
   140   71  192 1    
   141   71  193 1    
   142   71  194 1    
   143   72   73 2    
   144   72   74 am   BACKBONE|DICT|INTERRES
   145   74   75 1    
   146   74  195 1    
   147   75   76 1    
   148   75   77 1    
   149   75  196 1    
   150   76  197 1    
   151   76  198 1    
   152   76  199 1    
   153   77   78 2    
   154   77   79 am   BACKBONE|DICT|INTERRES
   155   79   80 1    
   156   79  200 1    
   157   80   81 1    
   158   80   82 1    
   159   80  201 1    
   160   81  202 1    
   161   81  203 1    
   162   81  204 1    
   163   82   83 2    
   164   82   84 am   BACKBONE|DICT|INTERRES
   165   84   85 1    
   166   84  205 1    
   167   85   86 1    
   168   85   87 1    
   169   85  206 1    
   170   86  207 1    
   171   86  208 1    
   172   86  209 1    
   173   87   88 2    
   174   87   89 am   BACKBONE|DICT|INTERRES
   175   89   90 1    
   176   89  210 1    
   177   90   91 1    
   178   90   92 1    
   179   90  211 1    
   180   91  212 1    
   181   91  213 1    
   182   91  214 1    
   183   92   93 2    
   184   92   94 am   BACKBONE|DICT|INTERRES
   185   94   95 1    
   186   94  215 1    
   187   95   96 1    
   188   95   97 1    
   189   95  216 1    
   190   96  217 1    
   191   96  218 1    
   192   96  219 1    
   193   97   98 2    
   194   97   99 am   BACKBONE|DICT|INTERRES
   195   99  100 1    
   196   99  220 1    
   197  100  101 1    
   198  100  102 1    
   199  100  221 1    
   200  101  222 1    
   201  101  223 1    
   202  101  224 1    
   203  102  103 2    
   204  102  104 am   BACKBONE|DICT|INTERRES
   205  104  105 1    
   206  104  225 1    
   207  105  106 1    
   208  105  107 1    
   209  105  226 1    
   210  106  227 1    
   211  106  228 1    
   212  106  229 1    
   213  107  108 2    
   214  107  109 am   BACKBONE|DICT|INTERRES
   215  109  110 1    
   216  109  230 1    
   217  110  111 1    
   218  110  112 1    
   219  110  231 1    
   220  111  232 1    
   221  111  233 1    
   222  111  234 1    
   223  112  113 2    
   224  112  114 am   BACKBONE|DICT|INTERRES
   225  114  115 1    
   226  114  235 1    
   227  115  116 1    
   228  115  117 1    
   229  115  236 1    
   230  116  237 1    
   231  116  238 1    
   232  116  239 1    
   233  117  118 2    
   234  117  119 am   BACKBONE|DICT|INTERRES
   235  119  120 1    
   236  119  240 1    
   237  120  121 1    
   238  120  124 1    
   239  120  241 1    
   240  121  122 am   BACKBONE|DICT|INTERRES
   241  121  123 2    
   242  122  242 1    
   243  122  243 1    
   244  124  125 1    
   245  124  244 1    
   246  124  245 1    
   247  125  126 1    
   248  126  246 1    
   249  126  247 1    
@<TRIPOS>SUBSTRUCTURE
     1 UNK         1 GROUP             0       ****    0 ROOT    
