@<TRIPOS>MOLECULE
3R540
247   249    1
SMALL
USER_CHARGES


@<TRIPOS>ATOM
      1 CA         -1.4449  -13.0196  -45.6069 C.3       0 UNK        -0.1800 
      2 C          -1.4147  -12.8936  -47.1230 C.2       0 UNK         0.5000 
      3 O          -2.4143  -13.1791  -47.7808 O.2       0 UNK        -0.5000 
      4 N          -0.2794  -12.4519  -47.6765 N.am      1 UNK        -0.5000 
      5 CA         -0.0951  -12.1897  -49.1051 C.3       1 UNK         0.1400 
      6 C6          0.2956  -13.4706  -49.9002 C.3       23 UNK        -0.0398 
      7 S7          1.8660  -14.2728  -49.4031 S.3       23 UNK        -0.2404 
      8 C8          1.3596  -15.4105  -48.0767 C.3       23 UNK        -0.0205 
      9 C9          0.6272  -16.6354  -48.5944 C.ar      23 UNK        -0.0193 
     10 C10        -0.7697  -16.6616  -48.6249 C.ar      23 UNK        -0.1150 
     11 C11        -1.4501  -17.8062  -49.0455 C.ar      23 UNK        -0.0193 
     12 C12        -0.7165  -18.9309  -49.4349 C.ar      23 UNK        -0.1150 
     13 C13         0.6806  -18.9144  -49.4208 C.ar      23 UNK        -0.0193 
     14 C14         1.3478  -17.7627  -48.9979 C.ar      23 UNK        -0.1150 
     15 C15         1.4663  -20.1396  -49.8647 C.3       23 UNK        -0.0205 
     16 S16         1.9574  -21.1874  -48.4579 S.3       23 UNK        -0.2404 
     17 C17         0.3251  -21.6955  -47.8264 C.3       23 UNK        -0.0398 
     18 CA          0.3892  -22.8751  -46.8243 C.3       11 UNK         0.1400 
     19 N           1.0873  -22.5027  -45.5898 N.am      11 UNK        -0.5000 
     20 C           1.6287  -23.3471  -44.7035 C.2       10 UNK         0.5000 
     21 O           1.6205  -24.5712  -44.8346 O.2       10 UNK        -0.5000 
     22 CA          2.2301  -22.7167  -43.4316 C.3       10 UNK         0.1400 
     23 CB          3.6965  -22.3147  -43.6513 C.3       10 UNK        -0.1800 
     24 N           1.4602  -21.5563  -42.9732 N.am      10 UNK        -0.5000 
     25 C           0.2384  -21.6380  -42.4271 C.2       9 UNK         0.5000 
     26 O          -0.3228  -22.7066  -42.1883 O.2       9 UNK        -0.5000 
     27 CA         -0.4960  -20.3184  -42.1212 C.3       9 UNK         0.1400 
     28 CB         -0.1199  -19.7987  -40.7258 C.3       9 UNK        -0.1800 
     29 N          -0.2410  -19.2750  -43.1138 N.am      9 UNK        -0.5000 
     30 C          -0.6431  -19.3171  -44.3922 C.2       8 UNK         0.5000 
     31 O          -1.3351  -20.2189  -44.8639 O.2       8 UNK        -0.5000 
     32 CA         -0.1447  -18.1826  -45.3094 C.3       8 UNK         0.1400 
     33 CB         -1.0560  -16.9533  -45.1950 C.3       8 UNK        -0.1800 
     34 N           1.2434  -17.7943  -45.0401 N.am      8 UNK        -0.5000 
     35 C           2.2884  -18.6297  -45.1364 C.2       7 UNK         0.5000 
     36 O           2.1887  -19.8056  -45.4770 O.2       7 UNK        -0.5000 
     37 CA          3.6604  -18.0929  -44.7012 C.3       7 UNK         0.1400 
     38 CB          4.3288  -17.2802  -45.8181 C.3       7 UNK        -0.1800 
     39 N           3.5543  -17.2871  -43.4866 N.am      7 UNK        -0.5000 
     40 C           3.3330  -17.8007  -42.2681 C.2       6 UNK         0.5000 
     41 O           3.2686  -19.0085  -42.0375 O.2       6 UNK        -0.5000 
     42 CA          3.1064  -16.7942  -41.1243 C.3       6 UNK         0.1400 
     43 CB          4.4469  -16.3431  -40.5256 C.3       6 UNK        -0.1800 
     44 N           2.3447  -15.6179  -41.5499 N.am      6 UNK        -0.5000 
     45 C           1.0625  -15.6474  -41.9400 C.2       5 UNK         0.5000 
     46 O           0.3756  -16.6680  -41.9396 O.2       5 UNK        -0.5000 
     47 CA          0.4585  -14.3283  -42.4581 C.3       5 UNK         0.1400 
     48 CB         -0.2031  -13.5475  -41.3141 C.3       5 UNK        -0.1800 
     49 N           1.4280  -13.4629  -43.1340 N.am      5 UNK        -0.5000 
     50 C           2.0950  -13.7694  -44.2523 C.2       4 UNK         0.5000 
     51 O           1.9639  -14.8465  -44.8375 O.2       4 UNK        -0.5000 
     52 CA          3.0633  -12.6923  -44.7915 C.3       4 UNK         0.1400 
     53 CB          3.8159  -13.1503  -46.0519 C.3       4 UNK        -0.1800 
     54 N           2.4143  -11.4084  -45.0800 N.am      4 UNK        -0.5000 
     55 C           2.0146  -10.5055  -44.1726 C.2       3 UNK         0.5000 
     56 O           2.0661  -10.6976  -42.9568 O.2       3 UNK        -0.5000 
     57 CA          1.4892   -9.1573  -44.6996 C.3       3 UNK         0.1400 
     58 CB          2.5952   -8.0937  -44.6139 C.3       3 UNK        -0.1800 
     59 N           1.0131   -9.2270  -46.0848 N.am      3 UNK        -0.5000 
     60 C          -0.2687   -9.4031  -46.4357 C.2       2 UNK         0.5000 
     61 O          -1.1782   -9.5835  -45.6268 O.2       2 UNK        -0.5000 
     62 CA         -0.5965   -9.3920  -47.9418 C.3       2 UNK         0.1400 
     63 CB         -1.0480   -7.9854  -48.3639 C.3       2 UNK        -0.1800 
     64 N           0.5558   -9.7783  -48.7646 N.am      2 UNK        -0.5000 
     65 C           0.8382  -10.9691  -49.3209 C.2       1 UNK         0.5000 
     66 O           1.8498  -11.0928  -50.0083 O.2       1 UNK        -0.5000 
     67 C          -1.0310  -23.4432  -46.5898 C.2       11 UNK         0.5000 
     68 O          -1.7029  -23.7469  -47.5716 O.2       11 UNK        -0.5000 
     69 N          -1.4904  -23.5882  -45.3368 N.am      12 UNK        -0.5000 
     70 CA         -2.8441  -24.0424  -44.9881 C.3       12 UNK         0.1400 
     71 CB         -3.0385  -23.9363  -43.4692 C.3       12 UNK        -0.1800 
     72 C          -3.2179  -25.4579  -45.4827 C.2       12 UNK         0.5000 
     73 O          -4.4083  -25.7645  -45.5755 O.2       12 UNK        -0.5000 
     74 N          -2.2150  -26.2860  -45.8104 N.am      13 UNK        -0.5000 
     75 CA         -2.3667  -27.5976  -46.4429 C.3       13 UNK         0.1400 
     76 CB         -0.9775  -28.2208  -46.6459 C.3       13 UNK        -0.1800 
     77 C          -3.1241  -27.5010  -47.7829 C.2       13 UNK         0.5000 
     78 O          -2.7365  -26.7136  -48.6493 O.2       13 UNK        -0.5000 
     79 N          -4.2181  -28.2680  -47.9013 N.am      14 UNK        -0.5000 
     80 CA         -5.1724  -28.2769  -49.0210 C.3       14 UNK         0.1400 
     81 CB         -4.5100  -28.8419  -50.2958 C.3       14 UNK        -0.1800 
     82 C          -5.8498  -26.9087  -49.2684 C.2       14 UNK         0.5000 
     83 O          -6.2563  -26.6214  -50.3967 O.2       14 UNK        -0.5000 
     84 N          -5.9252  -26.0735  -48.2186 N.am      15 UNK        -0.5000 
     85 CA         -6.4020  -24.6873  -48.2255 C.3       15 UNK         0.1400 
     86 CB         -7.9301  -24.6428  -48.4366 C.3       15 UNK        -0.1800 
     87 C          -5.6295  -23.8095  -49.2322 C.2       15 UNK         0.5000 
     88 O          -6.2445  -23.0423  -49.9730 O.2       15 UNK        -0.5000 
     89 N          -4.2988  -23.9826  -49.2796 N.am      16 UNK        -0.5000 
     90 CA         -3.3678  -23.3516  -50.2224 C.3       16 UNK         0.1400 
     91 CB         -3.2873  -21.8320  -49.9740 C.3       16 UNK        -0.1800 
     92 C          -3.6731  -23.7238  -51.6857 C.2       16 UNK         0.5000 
     93 O          -3.6259  -22.8660  -52.5687 O.2       16 UNK        -0.5000 
     94 N          -4.0129  -25.0048  -51.8966 N.am      17 UNK        -0.5000 
     95 CA         -4.4864  -25.6014  -53.1492 C.3       17 UNK         0.1400 
     96 CB         -3.3540  -25.6373  -54.1970 C.3       17 UNK        -0.1800 
     97 C          -5.7680  -24.9074  -53.6549 C.2       17 UNK         0.5000 
     98 O          -5.8351  -24.4947  -54.8127 O.2       17 UNK        -0.5000 
     99 N          -6.7405  -24.7462  -52.7445 N.am      18 UNK        -0.5000 
    100 CA        -7.9779  -23.9720  -52.9057 C.3       18 UNK         0.1400 
    101 CB        -8.9322  -24.6663  -53.8992 C.3       18 UNK        -0.1800 
    102 C         -7.6985  -22.4926  -53.2580 C.2       18 UNK         0.5000 
    103 O         -8.2662  -21.9547  -54.2103 O.2       18 UNK        -0.5000 
    104 N         -6.7953  -21.8821  -52.4794 N.am      19 UNK        -0.5000 
    105 CA        -6.2918  -20.5069  -52.5574 C.3       19 UNK         0.1400 
    106 CB        -7.4261  -19.4922  -52.3095 C.3       19 UNK        -0.1800 
    107 C         -5.4718  -20.1695  -53.8224 C.2       19 UNK         0.5000 
    108 O         -5.1594  -18.9973  -54.0378 O.2       19 UNK        -0.5000 
    109 N         -5.1051  -21.1744  -54.6298 N.am      20 UNK        -0.5000 
    110 CA        -4.3073  -21.0028  -55.8451 C.3       20 UNK         0.1400 
    111 CB        -4.3822  -22.2778  -56.6963 C.3       20 UNK        -0.1800 
    112 C         -2.8404  -20.6343  -55.5578 C.2       20 UNK         0.5000 
    113 O         -2.2427  -19.8883  -56.3349 O.2       20 UNK        -0.5000 
    114 N         -2.2865  -21.1407  -54.4466 N.am      21 UNK        -0.5000 
    115 CA        -0.9045  -20.8881  -54.0295 C.3       21 UNK         0.1400 
    116 CB        -0.4528  -21.9966  -53.0651 C.3       21 UNK        -0.1800 
    117 C         -0.6926  -19.4917  -53.4085 C.2       21 UNK         0.5000 
    118 O          0.4569  -19.0903  -53.2255 O.2       21 UNK        -0.5000 
    119 N         -1.7839  -18.7774  -53.1010 N.am      22 UNK        -0.5000 
    120 CA        -1.7693  -17.4216  -52.5244 C.3       22 UNK         0.1400 
    121 C         -1.3887  -16.2932  -53.5278 C.2       22 UNK         0.5000 
    122 N         -1.3045  -16.5542  -54.8275 N.am      22 UNK        -0.7600 
    123 O         -1.1628  -15.1578  -53.1187 O.2       22 UNK        -0.5000 
    124 C124       -3.0968  -17.0738  -51.7966 C.3       23 UNK        -0.0398 
    125 S125       -3.6768  -18.3670  -50.6452 S.3       23 UNK        -0.2404 
    126 C126       -2.9735  -17.8262  -49.0533 C.3       23 UNK        -0.0205 
    127 H127       -0.5059  -12.7017  -45.1563 H         1 UNK         0.0600 
    128 H128       -1.6404  -14.0493  -45.3131 H         1 UNK         0.0600 
    129 H129       -2.2383  -12.3940  -45.1983 H         1 UNK         0.0600 
    130 H130        0.5211  -12.2562  -47.0957 H         1 UNK         0.3000 
    131 H131       -1.0525  -11.8668  -49.5191 H         1 UNK         0.0600 
    132 H132       -0.5123  -14.1981  -49.8403 H         1 UNK         0.0800 
    133 H133        0.3725  -13.2318  -50.9621 H         1 UNK         0.0800 
    134 H134        0.7565  -14.8896  -47.3358 H         1 UNK         0.0800 
    135 H135        2.2551  -15.7307  -47.5473 H         1 UNK         0.0800 
    136 H136       -1.3285  -15.7947  -48.3021 H         1 UNK         0.1150 
    137 H137       -1.2353  -19.8189  -49.7590 H         1 UNK         0.1150 
    138 H138        2.4282  -17.7484  -48.9707 H         1 UNK         0.1150 
    139 H139        0.8824  -20.7287  -50.5728 H         1 UNK         0.0800 
    140 H140        2.3618  -19.8240  -50.4018 H         1 UNK         0.0800 
    141 H141       -0.2810  -21.9554  -48.6962 H         1 UNK         0.0800 
    142 H142       -0.1568  -20.8344  -47.3615 H         1 UNK         0.0800 
    143 H143        0.9570  -23.6797  -47.2961 H         1 UNK         0.0600 
    144 H144        1.2136  -21.5059  -45.4370 H         1 UNK         0.3000 
    145 H145        2.2062  -23.4722  -42.6433 H         1 UNK         0.0600 
    146 H146        4.3010  -23.1836  -43.9138 H         1 UNK         0.0600 
    147 H147        3.8045  -21.5887  -44.4566 H         1 UNK         0.0600 
    148 H148        4.1258  -21.8791  -42.7488 H         1 UNK         0.0600 
    149 H149        1.8661  -20.6438  -43.1349 H         1 UNK         0.3000 
    150 H150       -1.5675  -20.5293  -42.1269 H         1 UNK         0.0600 
    151 H151       -0.3228  -20.5494  -39.9610 H         1 UNK         0.0600 
    152 H152       -0.6948  -18.9087  -40.4689 H         1 UNK         0.0600 
    153 H153        0.9379  -19.5424  -40.6630 H         1 UNK         0.0600 
    154 H154        0.2591  -18.4524  -42.7908 H         1 UNK         0.3000 
    155 H155       -0.1852  -18.5444  -46.3382 H         1 UNK         0.0600 
    156 H156       -0.6718  -16.1243  -45.7866 H         1 UNK         0.0600 
    157 H157       -1.1520  -16.6136  -44.1645 H         1 UNK         0.0600 
    158 H158       -2.0583  -17.1798  -45.5600 H         1 UNK         0.0600 
    159 H159        1.4125  -16.8290  -44.7793 H         1 UNK         0.3000 
    160 H160        4.2993  -18.9536  -44.4913 H         1 UNK         0.0600 
    161 H161        3.7867  -16.3607  -46.0255 H         1 UNK         0.0600 
    162 H162        4.3741  -17.8529  -46.7454 H         1 UNK         0.0600 
    163 H163        5.3503  -17.0108  -45.5500 H         1 UNK         0.0600 
    164 H164        3.5351  -16.2849  -43.6058 H         1 UNK         0.3000 
    165 H165        2.5367  -17.3026  -40.3433 H         1 UNK         0.0600 
    166 H166        4.2949  -15.6900  -39.6661 H         1 UNK         0.0600 
    167 H167        5.0284  -17.1999  -40.1826 H         1 UNK         0.0600 
    168 H168        5.0541  -15.8046  -41.2542 H         1 UNK         0.0600 
    169 H169        2.8349  -14.7360  -41.5746 H         1 UNK         0.3000 
    170 H170       -0.3148  -14.5861  -43.1832 H         1 UNK         0.0600 
    171 H171       -0.9497  -14.1580  -40.8043 H         1 UNK         0.0600 
    172 H172        0.5274  -13.2293  -40.5692 H         1 UNK         0.0600 
    173 H173       -0.7110  -12.6580  -41.6874 H         1 UNK         0.0600 
    174 H174        1.5766  -12.5372  -42.7414 H         1 UNK         0.3000 
    175 H175        3.8096  -12.5270  -44.0116 H         1 UNK         0.0600 
    176 H176        4.3715  -14.0695  -45.8662 H         1 UNK         0.0600 
    177 H177        3.1346  -13.3354  -46.8812 H         1 UNK         0.0600 
    178 H178        4.5387  -12.4007  -46.3745 H         1 UNK         0.0600 
    179 H179        2.3591  -11.1486  -46.0518 H         1 UNK         0.3000 
    180 H180        0.6755   -8.8450  -44.0414 H         1 UNK         0.0600 
    181 H181        3.4487   -8.3457  -45.2446 H         1 UNK         0.0600 
    182 H182        2.9615   -7.9909  -43.5915 H         1 UNK         0.0600 
    183 H183        2.2255   -7.1161  -44.9241 H         1 UNK         0.0600 
    184 H184        1.6988   -9.0737  -46.8095 H         1 UNK         0.3000 
    185 H185       -1.4388  -10.0624  -48.1130 H         1 UNK         0.0600 
    186 H186       -1.9175   -7.6645  -47.7884 H         1 UNK         0.0600 
    187 H187       -0.2622   -7.2442  -48.2118 H         1 UNK         0.0600 
    188 H188       -1.3312   -7.9622  -49.4164 H         1 UNK         0.0600 
    189 H189        1.1928   -9.0232  -48.9711 H         1 UNK         0.3000 
    190 H190       -0.8950  -23.3104  -44.5692 H         1 UNK         0.3000 
    191 H191       -3.5444  -23.3525  -45.4635 H         1 UNK         0.0600 
    192 H192       -2.9141  -22.9083  -43.1285 H         1 UNK         0.0600 
    193 H193       -4.0404  -24.2532  -43.1766 H         1 UNK         0.0600 
    194 H194       -2.3251  -24.5602  -42.9294 H         1 UNK         0.0600 
    195 H195       -1.2731  -25.9333  -45.7281 H         1 UNK         0.3000 
    196 H196       -2.9315  -28.2322  -45.7571 H         1 UNK         0.0600 
    197 H197       -1.0557  -29.2085  -47.1020 H         1 UNK         0.0600 
    198 H198       -0.4556  -28.3415  -45.6964 H         1 UNK         0.0600 
    199 H199       -0.3531  -27.6068  -47.2966 H         1 UNK         0.0600 
    200 H200       -4.4640  -28.8677  -47.1255 H         1 UNK         0.3000 
    201 H201       -5.9736  -28.9597  -48.7354 H         1 UNK         0.0600 
    202 H202       -4.0459  -29.8090  -50.1029 H         1 UNK         0.0600 
    203 H203       -3.7418  -28.1736  -50.6859 H         1 UNK         0.0600 
    204 H204       -5.2453  -28.9900  -51.0876 H         1 UNK         0.0600 
    205 H205       -5.5258  -26.3791  -47.3384 H         1 UNK         0.3000 
    206 H206       -6.1902  -24.2786  -47.2366 H         1 UNK         0.0600 
    207 H207       -8.4471  -25.2562  -47.6989 H         1 UNK         0.0600 
    208 H208       -8.3091  -23.6253  -48.3343 H         1 UNK         0.0600 
    209 H209       -8.2146  -24.9990  -49.4271 H         1 UNK         0.0600 
    210 H210       -3.8714  -24.6581  -48.6571 H         1 UNK         0.3000 
    211 H211       -2.3815  -23.7717  -50.0259 H         1 UNK         0.0600 
    212 H212       -4.2568  -21.3482  -50.0752 H         1 UNK         0.0600 
    213 H213       -2.6155  -21.3485  -50.6802 H         1 UNK         0.0600 
    214 H214       -2.9162  -21.6179  -48.9720 H         1 UNK         0.0600 
    215 H215       -4.0549  -25.6096  -51.0880 H         1 UNK         0.3000 
    216 H216       -4.7620  -26.6321  -52.9216 H         1 UNK         0.0600 
    217 H217       -3.6779  -26.1477  -55.1046 H         1 UNK         0.0600 
    218 H218       -2.4845  -26.1728  -53.8162 H         1 UNK         0.0600 
    219 H219       -3.0297  -24.6366  -54.4829 H         1 UNK         0.0600 
    220 H220       -6.5870  -25.1448  -51.8234 H         1 UNK         0.3000 
    221 H221       -8.4650  -23.9672  -51.9295 H         1 UNK         0.0600 
    222 H222       -8.5284  -24.6774  -54.9120 H         1 UNK         0.0600 
    223 H223       -9.1250  -25.6976  -53.6039 H         1 UNK         0.0600 
    224 H224       -9.8943  -24.1543  -53.9371 H         1 UNK         0.0600 
    225 H225       -6.4290  -22.4157  -51.6928 H         1 UNK         0.3000 
    226 H226       -5.5920  -20.4145  -51.7283 H         1 UNK         0.0600 
    227 H227       -7.9709  -19.7263  -51.3949 H         1 UNK         0.0600 
    228 H228       -7.0297  -18.4822  -52.1978 H         1 UNK         0.0600 
    229 H229       -8.1404  -19.4735  -53.1328 H         1 UNK         0.0600 
    230 H230       -5.3572  -22.1207  -54.3749 H         1 UNK         0.3000 
    231 H231       -4.7464  -20.1873  -56.4237 H         1 UNK         0.0600 
    232 H232       -3.9289  -23.1278  -56.1861 H         1 UNK         0.0600 
    233 H233       -3.8569  -22.1463  -57.6430 H         1 UNK         0.0600 
    234 H234       -5.4150  -22.5379  -56.9295 H         1 UNK         0.0600 
    235 H235       -2.8455  -21.7393  -53.8406 H         1 UNK         0.3000 
    236 H236       -0.2672  -20.9440  -54.9144 H         1 UNK         0.0600 
    237 H237       -0.6085  -22.9853  -53.4974 H         1 UNK         0.0600 
    238 H238        0.6099  -21.9052  -52.8380 H         1 UNK         0.0600 
    239 H239       -0.9914  -21.9561  -52.1204 H         1 UNK         0.0600 
    240 H240       -2.6947  -19.1713  -53.2887 H         1 UNK         0.3000 
    241 H241       -0.9774  -17.4051  -51.7749 H         1 UNK         0.0600 
    242 H242       -1.0546  -15.8163  -55.4669 H         1 UNK         0.3800 
    243 H243       -1.4914  -17.4814  -55.1780 H         1 UNK         0.3800 
    244 H244       -2.9977  -16.1346  -51.2494 H         1 UNK         0.0800 
    245 H245       -3.8912  -16.9149  -52.5279 H         1 UNK         0.0800 
    246 H246       -3.3144  -18.5070  -48.2723 H         1 UNK         0.0800 
    247 H247       -3.3787  -16.8440  -48.8049 H         1 UNK         0.0800 
@<TRIPOS>BOND
     1    1    2 1    
     2    1  127 1    
     3    1  128 1    
     4    1  129 1    
     5    2    3 2    
     6    2    4 am   BACKBONE|DICT|INTERRES
     7    4    5 1    
     8    4  130 1    
     9    5    6 1    
    10    5   65 1    
    11    5  131 1    
    12    6    7 1    
    13    6  132 1    
    14    6  133 1    
    15    7    8 1    
    16    8    9 1    
    17    8  134 1    
    18    8  135 1    
    19    9   10 ar   
    20    9   14 ar   
    21   10   11 ar   
    22   10  136 1    
    23   11   12 ar   
    24   11  126 1    
    25   12   13 ar   
    26   12  137 1    
    27   13   14 ar   
    28   13   15 1    
    29   14  138 1    
    30   15   16 1    
    31   15  139 1    
    32   15  140 1    
    33   16   17 1    
    34   17   18 1    
    35   17  141 1    
    36   17  142 1    
    37   18   19 1    
    38   18   67 1    
    39   18  143 1    
    40   19   20 am   BACKBONE|DICT|INTERRES
    41   19  144 1    
    42   20   21 2    
    43   20   22 1    
    44   22   23 1    
    45   22   24 1    
    46   22  145 1    
    47   23  146 1    
    48   23  147 1    
    49   23  148 1    
    50   24   25 am   BACKBONE|DICT|INTERRES
    51   24  149 1    
    52   25   26 2    
    53   25   27 1    
    54   27   28 1    
    55   27   29 1    
    56   27  150 1    
    57   28  151 1    
    58   28  152 1    
    59   28  153 1    
    60   29   30 am   BACKBONE|DICT|INTERRES
    61   29  154 1    
    62   30   31 2    
    63   30   32 1    
    64   32   33 1    
    65   32   34 1    
    66   32  155 1    
    67   33  156 1    
    68   33  157 1    
    69   33  158 1    
    70   34   35 am   BACKBONE|DICT|INTERRES
    71   34  159 1    
    72   35   36 2    
    73   35   37 1    
    74   37   38 1    
    75   37   39 1    
    76   37  160 1    
    77   38  161 1    
    78   38  162 1    
    79   38  163 1    
    80   39   40 am   BACKBONE|DICT|INTERRES
    81   39  164 1    
    82   40   41 2    
    83   40   42 1    
    84   42   43 1    
    85   42   44 1    
    86   42  165 1    
    87   43  166 1    
    88   43  167 1    
    89   43  168 1    
    90   44   45 am   BACKBONE|DICT|INTERRES
    91   44  169 1    
    92   45   46 2    
    93   45   47 1    
    94   47   48 1    
    95   47   49 1    
    96   47  170 1    
    97   48  171 1    
    98   48  172 1    
    99   48  173 1    
   100   49   50 am   BACKBONE|DICT|INTERRES
   101   49  174 1    
   102   50   51 2    
   103   50   52 1    
   104   52   53 1    
   105   52   54 1    
   106   52  175 1    
   107   53  176 1    
   108   53  177 1    
   109   53  178 1    
   110   54   55 am   BACKBONE|DICT|INTERRES
   111   54  179 1    
   112   55   56 2    
   113   55   57 1    
   114   57   58 1    
   115   57   59 1    
   116   57  180 1    
   117   58  181 1    
   118   58  182 1    
   119   58  183 1    
   120   59   60 am   BACKBONE|DICT|INTERRES
   121   59  184 1    
   122   60   61 2    
   123   60   62 1    
   124   62   63 1    
   125   62   64 1    
   126   62  185 1    
   127   63  186 1    
   128   63  187 1    
   129   63  188 1    
   130   64   65 am   BACKBONE|DICT|INTERRES
   131   64  189 1    
   132   65   66 2    
   133   67   68 2    
   134   67   69 am   BACKBONE|DICT|INTERRES
   135   69   70 1    
   136   69  190 1    
   137   70   71 1    
   138   70   72 1    
   139   70  191 1    
   140   71  192 1    
   141   71  193 1    
   142   71  194 1    
   143   72   73 2    
   144   72   74 am   BACKBONE|DICT|INTERRES
   145   74   75 1    
   146   74  195 1    
   147   75   76 1    
   148   75   77 1    
   149   75  196 1    
   150   76  197 1    
   151   76  198 1    
   152   76  199 1    
   153   77   78 2    
   154   77   79 am   BACKBONE|DICT|INTERRES
   155   79   80 1    
   156   79  200 1    
   157   80   81 1    
   158   80   82 1    
   159   80  201 1    
   160   81  202 1    
   161   81  203 1    
   162   81  204 1    
   163   82   83 2    
   164   82   84 am   BACKBONE|DICT|INTERRES
   165   84   85 1    
   166   84  205 1    
   167   85   86 1    
   168   85   87 1    
   169   85  206 1    
   170   86  207 1    
   171   86  208 1    
   172   86  209 1    
   173   87   88 2    
   174   87   89 am   BACKBONE|DICT|INTERRES
   175   89   90 1    
   176   89  210 1    
   177   90   91 1    
   178   90   92 1    
   179   90  211 1    
   180   91  212 1    
   181   91  213 1    
   182   91  214 1    
   183   92   93 2    
   184   92   94 am   BACKBONE|DICT|INTERRES
   185   94   95 1    
   186   94  215 1    
   187   95   96 1    
   188   95   97 1    
   189   95  216 1    
   190   96  217 1    
   191   96  218 1    
   192   96  219 1    
   193   97   98 2    
   194   97   99 am   BACKBONE|DICT|INTERRES
   195   99  100 1    
   196   99  220 1    
   197  100  101 1    
   198  100  102 1    
   199  100  221 1    
   200  101  222 1    
   201  101  223 1    
   202  101  224 1    
   203  102  103 2    
   204  102  104 am   BACKBONE|DICT|INTERRES
   205  104  105 1    
   206  104  225 1    
   207  105  106 1    
   208  105  107 1    
   209  105  226 1    
   210  106  227 1    
   211  106  228 1    
   212  106  229 1    
   213  107  108 2    
   214  107  109 am   BACKBONE|DICT|INTERRES
   215  109  110 1    
   216  109  230 1    
   217  110  111 1    
   218  110  112 1    
   219  110  231 1    
   220  111  232 1    
   221  111  233 1    
   222  111  234 1    
   223  112  113 2    
   224  112  114 am   BACKBONE|DICT|INTERRES
   225  114  115 1    
   226  114  235 1    
   227  115  116 1    
   228  115  117 1    
   229  115  236 1    
   230  116  237 1    
   231  116  238 1    
   232  116  239 1    
   233  117  118 2    
   234  117  119 am   BACKBONE|DICT|INTERRES
   235  119  120 1    
   236  119  240 1    
   237  120  121 1    
   238  120  124 1    
   239  120  241 1    
   240  121  122 am   BACKBONE|DICT|INTERRES
   241  121  123 2    
   242  122  242 1    
   243  122  243 1    
   244  124  125 1    
   245  124  244 1    
   246  124  245 1    
   247  125  126 1    
   248  126  246 1    
   249  126  247 1    
@<TRIPOS>SUBSTRUCTURE
     1 UNK         1 GROUP             0       ****    0 ROOT    
