@<TRIPOS>MOLECULE
3R540
247   249    1
SMALL
USER_CHARGES


@<TRIPOS>ATOM
      1 CA         -2.4626  -18.5429  -49.3689 C.3       0 UNK        -0.1800 
      2 C          -2.1269  -17.0983  -49.0346 C.2       0 UNK         0.5000 
      3 O          -1.5399  -16.8149  -47.9912 O.2       0 UNK        -0.5000 
      4 N          -2.5215  -16.1787  -49.9209 N.am      1 UNK        -0.5000 
      5 CA         -2.2329  -14.7357  -49.8894 C.3       1 UNK         0.1400 
      6 C6         -0.7122  -14.3998  -49.8958 C.3       23 UNK        -0.0398 
      7 S7          0.2089  -15.2558  -51.2223 S.3       23 UNK        -0.2404 
      8 C8          1.2809  -16.3850  -50.2693 C.3       23 UNK        -0.0205 
      9 C9          1.5026  -17.6928  -51.0136 C.ar      23 UNK        -0.0193 
     10 C10         2.2511  -17.7085  -52.1933 C.ar      23 UNK        -0.1150 
     11 C11         2.4156  -18.8932  -52.9203 C.ar      23 UNK        -0.0193 
     12 C12         1.8539  -20.0747  -52.4265 C.ar      23 UNK        -0.1150 
     13 C13         1.1255  -20.0808  -51.2338 C.ar      23 UNK        -0.0193 
     14 C14         0.9523  -18.8847  -50.5321 C.ar      23 UNK        -0.1150 
     15 C15         0.4999  -21.3765  -50.7353 C.3       23 UNK        -0.0205 
     16 S16         1.6722  -22.3932  -49.7883 S.3       23 UNK        -0.2404 
     17 C17         1.5061  -21.6940  -48.1146 C.3       23 UNK        -0.0398 
     18 CA          0.6437  -22.5866  -47.1862 C.3       11 UNK         0.1400 
     19 N           1.0317  -22.4531  -45.7820 N.am      11 UNK        -0.5000 
     20 C           0.5675  -23.2088  -44.7766 C.2       10 UNK         0.5000 
     21 O          -0.1785  -24.1759  -44.9328 O.2       10 UNK        -0.5000 
     22 CA          0.9471  -22.7569  -43.3534 C.3       10 UNK         0.1400 
     23 CB          2.3357  -23.2763  -42.9520 C.3       10 UNK        -0.1800 
     24 N           0.9005  -21.2978  -43.2236 N.am      10 UNK        -0.5000 
     25 C          -0.2320  -20.5831  -43.2930 C.2       9 UNK         0.5000 
     26 O          -1.3504  -21.0917  -43.3617 O.2       9 UNK        -0.5000 
     27 CA         -0.0946  -19.0522  -43.3470 C.3       9 UNK         0.1400 
     28 CB         -0.0931  -18.4574  -41.9358 C.3       9 UNK        -0.1800 
     29 N           1.0997  -18.6183  -44.0763 N.am      9 UNK        -0.5000 
     30 C           1.2298  -18.7184  -45.4083 C.2       8 UNK         0.5000 
     31 O           0.3494  -19.1632  -46.1405 O.2       8 UNK        -0.5000 
     32 CA          2.5804  -18.3152  -46.0288 C.3       8 UNK         0.1400 
     33 CB          2.6290  -16.8095  -46.3203 C.3       8 UNK        -0.1800 
     34 N           3.7197  -18.6863  -45.1926 N.am      8 UNK        -0.5000 
     35 C           4.0454  -19.9453  -44.8689 C.2       7 UNK         0.5000 
     36 O           3.4519  -20.9316  -45.3029 O.2       7 UNK        -0.5000 
     37 CA          5.1906  -20.1354  -43.8565 C.3       7 UNK         0.1400 
     38 CB          6.5095  -20.4267  -44.5870 C.3       7 UNK        -0.1800 
     39 N           5.3781  -18.9896  -42.9608 N.am      7 UNK        -0.5000 
     40 C           4.4725  -18.5450  -42.0781 C.2       6 UNK         0.5000 
     41 O           3.3736  -19.0810  -41.9133 O.2       6 UNK        -0.5000 
     42 CA          4.8809  -17.3096  -41.2460 C.3       6 UNK         0.1400 
     43 CB          5.5896  -16.2285  -42.0935 C.3       6 UNK        -0.1800 
     44 N           3.7712  -16.7196  -40.4882 N.am      6 UNK        -0.5000 
     45 C           2.6696  -16.1289  -40.9724 C.2       5 UNK         0.5000 
     46 O           2.4118  -15.9997  -42.1735 O.2       5 UNK        -0.5000 
     47 CA          1.7057  -15.5665  -39.9159 C.3       5 UNK         0.1400 
     48 CB          2.2999  -14.3288  -39.2178 C.3       5 UNK        -0.1800 
     49 N           0.4400  -15.2050  -40.5453 N.am      5 UNK        -0.5000 
     50 C          -0.7567  -15.2199  -39.9453 C.2       4 UNK         0.5000 
     51 O          -0.9143  -15.5268  -38.7625 O.2       4 UNK        -0.5000 
     52 CA         -1.9871  -14.8270  -40.7875 C.3       4 UNK         0.1400 
     53 CB         -2.7098  -13.6201  -40.1642 C.3       4 UNK        -0.1800 
     54 N          -1.6390  -14.4917  -42.1712 N.am      4 UNK        -0.5000 
     55 C          -2.0100  -15.1908  -43.2497 C.2       3 UNK         0.5000 
     56 O          -2.6627  -16.2362  -43.2096 O.2       3 UNK        -0.5000 
     57 CA         -1.5403  -14.6328  -44.6048 C.3       3 UNK         0.1400 
     58 CB         -0.2816  -15.3662  -45.0803 C.3       3 UNK        -0.1800 
     59 N          -2.5656  -14.7459  -45.6390 N.am      3 UNK        -0.5000 
     60 C          -3.7038  -14.0375  -45.6708 C.2       2 UNK         0.5000 
     61 O          -4.0118  -13.2115  -44.8092 O.2       2 UNK        -0.5000 
     62 CA         -4.6419  -14.2825  -46.8765 C.3       2 UNK         0.1400 
     63 CB         -5.5826  -13.0930  -47.1604 C.3       2 UNK        -0.1800 
     64 N          -3.9241  -14.6805  -48.0937 N.am      2 UNK        -0.5000 
     65 C          -2.9695  -13.9961  -48.7461 C.2       1 UNK         0.5000 
     66 O          -2.6509  -12.8386  -48.4694 O.2       1 UNK        -0.5000 
     67 C          -0.8683  -22.3406  -47.3805 C.2       11 UNK         0.5000 
     68 O          -1.5287  -23.1421  -48.0381 O.2       11 UNK        -0.5000 
     69 N          -1.4024  -21.2766  -46.7618 N.am      12 UNK        -0.5000 
     70 CA         -2.8260  -20.9338  -46.7592 C.3       12 UNK         0.1400 
     71 CB         -3.0465  -19.5847  -46.0565 C.3       12 UNK        -0.1800 
     72 C          -3.7089  -22.0150  -46.1206 C.2       12 UNK         0.5000 
     73 O          -4.7712  -22.3141  -46.6638 O.2       12 UNK        -0.5000 
     74 N          -3.2501  -22.6023  -45.0080 N.am      13 UNK        -0.5000 
     75 CA         -3.9206  -23.7105  -44.3274 C.3       13 UNK         0.1400 
     76 CB         -3.2189  -23.9942  -42.9908 C.3       13 UNK        -0.1800 
     77 C          -3.9963  -24.9836  -45.1920 C.2       13 UNK         0.5000 
     78 O          -5.0213  -25.6657  -45.1750 O.2       13 UNK        -0.5000 
     79 N          -2.9272  -25.2636  -45.9498 N.am      14 UNK        -0.5000 
     80 CA         -2.8547  -26.3772  -46.8948 C.3       14 UNK         0.1400 
     81 CB         -1.3848  -26.6411  -47.2576 C.3       14 UNK        -0.1800 
     82 C          -3.6989  -26.1351  -48.1611 C.2       14 UNK         0.5000 
     83 O          -4.4077  -27.0407  -48.6017 O.2       14 UNK        -0.5000 
     84 N          -3.6048  -24.9236  -48.7247 N.am      15 UNK        -0.5000 
     85 CA         -4.2651  -24.5240  -49.9697 C.3       15 UNK         0.1400 
     86 CB         -3.5371  -23.2977  -50.5406 C.3       15 UNK        -0.1800 
     87 C          -5.7675  -24.2167  -49.8222 C.2       15 UNK         0.5000 
     88 O          -6.4675  -24.1867  -50.8349 O.2       15 UNK        -0.5000 
     89 N          -6.2228  -23.9751  -48.5845 N.am      16 UNK        -0.5000 
     90 CA         -7.5419  -23.4572  -48.2066 C.3       16 UNK         0.1400 
     91 CB         -8.6818  -24.4049  -48.6374 C.3       16 UNK        -0.1800 
     92 C          -7.7228  -22.0010  -48.6850 C.2       16 UNK         0.5000 
     93 O          -8.7072  -21.6725  -49.3504 O.2       16 UNK        -0.5000 
     94 N          -6.7432  -21.1639  -48.3166 N.am      17 UNK        -0.5000 
     95 CA         -6.6046  -19.7401  -48.6288 C.3       17 UNK         0.1400 
     96 CB         -7.7224  -18.9201  -47.9455 C.3       17 UNK        -0.1800 
     97 C          -6.4449  -19.4722  -50.1427 C.2       17 UNK         0.5000 
     98 O          -5.7702  -20.2482  -50.8230 O.2       17 UNK        -0.5000 
     99 N          -7.0270  -18.3619  -50.6235 N.am      18 UNK        -0.5000 
    100 CA        -6.9301  -17.8136  -51.9826 C.3       18 UNK         0.1400 
    101 CB        -7.5575  -18.7834  -53.0093 C.3       18 UNK        -0.1800 
    102 C         -5.4901  -17.3854  -52.3472 C.2       18 UNK         0.5000 
    103 O         -4.6648  -17.1758  -51.4563 O.2       18 UNK        -0.5000 
    104 N         -5.2082  -17.2323  -53.6475 N.am      19 UNK        -0.5000 
    105 CA        -3.8643  -16.9520  -54.1658 C.3       19 UNK         0.1400 
    106 CB        -3.9855  -16.3596  -55.5777 C.3       19 UNK        -0.1800 
    107 C         -2.9626  -18.2033  -54.1800 C.2       19 UNK         0.5000 
    108 O         -1.7394  -18.0670  -54.2105 O.2       19 UNK        -0.5000 
    109 N         -3.5867  -19.3921  -54.1580 N.am      20 UNK        -0.5000 
    110 CA        -2.9695  -20.7192  -54.1722 C.3       20 UNK         0.1400 
    111 CB        -2.2294  -20.9667  -52.8419 C.3       20 UNK        -0.1800 
    112 C         -2.1009  -20.9339  -55.4313 C.2       20 UNK         0.5000 
    113 O         -2.5118  -20.5327  -56.5231 O.2       20 UNK        -0.5000 
    114 N         -0.9146  -21.5382  -55.2727 N.am      21 UNK        -0.5000 
    115 CA         0.0565  -21.7839  -56.3457 C.3       21 UNK         0.1400 
    116 CB         1.1940  -22.6605  -55.7995 C.3       21 UNK        -0.1800 
    117 C          0.6223  -20.4981  -56.9856 C.2       21 UNK         0.5000 
    118 O          1.0921  -20.5444  -58.1230 O.2       21 UNK        -0.5000 
    119 N          0.5478  -19.3804  -56.2543 N.am      22 UNK        -0.5000 
    120 CA         0.8642  -18.0280  -56.7301 C.3       22 UNK         0.1400 
    121 C         -0.3140  -17.3446  -57.4911 C.2       22 UNK         0.5000 
    122 N         -1.4800  -17.9637  -57.6433 N.am      22 UNK        -0.7600 
    123 O         -0.1583  -16.2310  -57.9848 O.2       22 UNK        -0.5000 
    124 C124        1.3974  -17.1509  -55.5655 C.3       23 UNK        -0.0398 
    125 S125        3.1751  -17.4166  -55.2328 S.3       23 UNK        -0.2404 
    126 C126        3.2122  -18.9408  -54.2230 C.3       23 UNK        -0.0205 
    127 H127       -3.4684  -18.7822  -49.0283 H         1 UNK         0.0600 
    128 H128       -1.7589  -19.2195  -48.8866 H         1 UNK         0.0600 
    129 H129       -2.4146  -18.7174  -50.4443 H         1 UNK         0.0600 
    130 H130       -3.1062  -16.4877  -50.6949 H         1 UNK         0.3000 
    131 H131       -2.6569  -14.3385  -50.8127 H         1 UNK         0.0600 
    132 H132       -0.2633  -14.6225  -48.9267 H         1 UNK         0.0800 
    133 H133       -0.5672  -13.3289  -50.0467 H         1 UNK         0.0800 
    134 H134        0.8445  -16.5874  -49.2910 H         1 UNK         0.0800 
    135 H135        2.2398  -15.9001  -50.0826 H         1 UNK         0.0800 
    136 H136        2.6834  -16.7858  -52.5527 H         1 UNK         0.1150 
    137 H137        1.9876  -20.9995  -52.9684 H         1 UNK         0.1150 
    138 H138        0.3859  -18.8780  -49.6131 H         1 UNK         0.1150 
    139 H139       -0.3957  -21.1751  -50.1455 H         1 UNK         0.0800 
    140 H140        0.1709  -21.9682  -51.5891 H         1 UNK         0.0800 
    141 H141        1.1347  -20.6701  -48.1602 H         1 UNK         0.0800 
    142 H142        2.5202  -21.6194  -47.7208 H         1 UNK         0.0800 
    143 H143        0.8336  -23.6306  -47.4458 H         1 UNK         0.0600 
    144 H144        1.6995  -21.7199  -45.5639 H         1 UNK         0.3000 
    145 H145        0.2159  -23.1820  -42.6625 H         1 UNK         0.0600 
    146 H146        2.5930  -22.9709  -41.9376 H         1 UNK         0.0600 
    147 H147        2.3632  -24.3662  -42.9804 H         1 UNK         0.0600 
    148 H148        3.1172  -22.9145  -43.6193 H         1 UNK         0.0600 
    149 H149        1.7817  -20.8069  -43.1651 H         1 UNK         0.3000 
    150 H150       -0.9702  -18.6591  -43.8680 H         1 UNK         0.0600 
    151 H151       -0.9865  -18.7523  -41.3841 H         1 UNK         0.0600 
    152 H152       -0.0909  -17.3720  -41.9896 H         1 UNK         0.0600 
    153 H153        0.7748  -18.7738  -41.3573 H         1 UNK         0.0600 
    154 H154        1.8738  -18.2745  -43.5216 H         1 UNK         0.3000 
    155 H155        2.6760  -18.8455  -46.9788 H         1 UNK         0.0600 
    156 H156        2.5918  -16.2206  -45.4029 H         1 UNK         0.0600 
    157 H157        1.7871  -16.5075  -46.9444 H         1 UNK         0.0600 
    158 H158        3.5401  -16.5407  -46.8549 H         1 UNK         0.0600 
    159 H159        4.2535  -17.9325  -44.7866 H         1 UNK         0.3000 
    160 H160        4.9404  -21.0026  -43.2418 H         1 UNK         0.0600 
    161 H161        6.8249  -19.5823  -45.2012 H         1 UNK         0.0600 
    162 H162        6.4089  -21.2915  -45.2443 H         1 UNK         0.0600 
    163 H163        7.3109  -20.6485  -43.8820 H         1 UNK         0.0600 
    164 H164        6.2624  -18.5074  -43.0321 H         1 UNK         0.3000 
    165 H165        5.5928  -17.6679  -40.5012 H         1 UNK         0.0600 
    166 H166        5.7995  -15.3394  -41.4986 H         1 UNK         0.0600 
    167 H167        6.5466  -16.5827  -42.4774 H         1 UNK         0.0600 
    168 H168        4.9862  -15.9204  -42.9481 H         1 UNK         0.0600 
    169 H169        3.8590  -16.7973  -39.4849 H         1 UNK         0.3000 
    170 H170        1.5325  -16.3532  -39.1783 H         1 UNK         0.0600 
    171 H171        3.2416  -14.5655  -38.7215 H         1 UNK         0.0600 
    172 H172        2.4955  -13.5250  -39.9286 H         1 UNK         0.0600 
    173 H173        1.6235  -13.9426  -38.4550 H         1 UNK         0.0600 
    174 H174        0.5048  -15.0258  -41.5384 H         1 UNK         0.3000 
    175 H175       -2.6689  -15.6794  -40.7601 H         1 UNK         0.0600 
    176 H176       -2.0659  -12.7405  -40.1268 H         1 UNK         0.0600 
    177 H177       -3.6015  -13.3589  -40.7347 H         1 UNK         0.0600 
    178 H178       -3.0315  -13.8362  -39.1446 H         1 UNK         0.0600 
    179 H179       -1.1070  -13.6419  -42.2976 H         1 UNK         0.3000 
    180 H180       -1.2967  -13.5749  -44.4861 H         1 UNK         0.0600 
    181 H181       -0.4991  -16.4102  -45.3050 H         1 UNK         0.0600 
    182 H182        0.5018  -15.3454  -44.3214 H         1 UNK         0.0600 
    183 H183        0.1217  -14.9081  -45.9834 H         1 UNK         0.0600 
    184 H184       -2.3855  -15.4176  -46.3751 H         1 UNK         0.3000 
    185 H185       -5.2651  -15.1342  -46.6005 H         1 UNK         0.0600 
    186 H186       -6.2263  -12.8899  -46.3039 H         1 UNK         0.0600 
    187 H187       -5.0280  -12.1793  -47.3752 H         1 UNK         0.0600 
    188 H188       -6.2328  -13.2988  -48.0107 H         1 UNK         0.0600 
    189 H189       -4.0984  -15.6218  -48.4157 H         1 UNK         0.3000 
    190 H190       -0.7787  -20.6168  -46.3026 H         1 UNK         0.3000 
    191 H191       -3.1376  -20.8395  -47.8002 H         1 UNK         0.0600 
    192 H192       -2.8796  -19.6546  -44.9823 H         1 UNK         0.0600 
    193 H193       -4.0682  -19.2328  -46.2013 H         1 UNK         0.0600 
    194 H194       -2.3787  -18.8157  -46.4409 H         1 UNK         0.0600 
    195 H195       -2.3990  -22.2475  -44.5825 H         1 UNK         0.3000 
    196 H196       -4.9439  -23.3962  -44.1119 H         1 UNK         0.0600 
    197 H197       -3.7260  -24.7909  -42.4454 H         1 UNK         0.0600 
    198 H198       -3.2176  -23.1112  -42.3514 H         1 UNK         0.0600 
    199 H199       -2.1836  -24.3029  -43.1352 H         1 UNK         0.0600 
    200 H200       -2.1114  -24.6662  -45.8808 H         1 UNK         0.3000 
    201 H201       -3.2428  -27.2708  -46.4013 H         1 UNK         0.0600 
    202 H202       -0.7972  -26.8767  -46.3701 H         1 UNK         0.0600 
    203 H203       -0.9249  -25.7787  -47.7409 H         1 UNK         0.0600 
    204 H204       -1.2971  -27.4864  -47.9411 H         1 UNK         0.0600 
    205 H205       -2.9490  -24.2516  -48.3301 H         1 UNK         0.3000 
    206 H206       -4.1674  -25.3404  -50.6882 H         1 UNK         0.0600 
    207 H207       -2.4819  -23.5082  -50.7157 H         1 UNK         0.0600 
    208 H208       -3.9736  -22.9955  -51.4933 H         1 UNK         0.0600 
    209 H209       -3.6020  -22.4422  -49.8666 H         1 UNK         0.0600 
    210 H210       -5.5358  -23.9701  -47.8402 H         1 UNK         0.3000 
    211 H211       -7.5481  -23.4229  -47.1160 H         1 UNK         0.0600 
    212 H212       -8.8039  -24.4390  -49.7199 H         1 UNK         0.0600 
    213 H213       -9.6332  -24.0785  -48.2163 H         1 UNK         0.0600 
    214 H214       -8.5025  -25.4212  -48.2868 H         1 UNK         0.0600 
    215 H215       -5.9795  -21.5665  -47.7769 H         1 UNK         0.3000 
    216 H216       -5.6610  -19.4348  -48.1764 H         1 UNK         0.0600 
    217 H217       -7.5213  -17.8496  -47.9980 H         1 UNK         0.0600 
    218 H218       -7.7997  -19.1734  -46.8880 H         1 UNK         0.0600 
    219 H219       -8.6972  -19.1010  -48.4000 H         1 UNK         0.0600 
    220 H220       -7.5358  -17.7859  -49.9686 H         1 UNK         0.3000 
    221 H221       -7.5262  -16.9002  -51.9810 H         1 UNK         0.0600 
    222 H222       -6.9391  -19.6678  -53.1657 H         1 UNK         0.0600 
    223 H223       -8.5392  -19.1218  -52.6774 H         1 UNK         0.0600 
    224 H224       -7.7003  -18.3036  -53.9777 H         1 UNK         0.0600 
    225 H225       -5.9369  -17.3803  -54.3306 H         1 UNK         0.3000 
    226 H226       -3.3845  -16.2074  -53.5265 H         1 UNK         0.0600 
    227 H227       -4.5957  -15.4564  -55.5768 H         1 UNK         0.0600 
    228 H228       -3.0045  -16.0863  -55.9686 H         1 UNK         0.0600 
    229 H229       -4.4318  -17.0688  -56.2760 H         1 UNK         0.0600 
    230 H230       -4.5951  -19.3849  -54.1559 H         1 UNK         0.3000 
    231 H231       -3.7865  -21.4390  -54.2374 H         1 UNK         0.0600 
    232 H232       -2.8825  -20.7681  -51.9916 H         1 UNK         0.0600 
    233 H233       -1.3571  -20.3211  -52.7393 H         1 UNK         0.0600 
    234 H234       -1.9023  -22.0030  -52.7592 H         1 UNK         0.0600 
    235 H235       -0.6458  -21.8350  -54.3467 H         1 UNK         0.3000 
    236 H236       -0.4542  -22.3401  -57.1345 H         1 UNK         0.0600 
    237 H237        1.9108  -22.9031  -56.5851 H         1 UNK         0.0600 
    238 H238        1.7418  -22.1598  -55.0016 H         1 UNK         0.0600 
    239 H239        0.8136  -23.6037  -55.4071 H         1 UNK         0.0600 
    240 H240        0.1055  -19.4265  -55.3468 H         1 UNK         0.3000 
    241 H241        1.6580  -18.1058  -57.4753 H         1 UNK         0.0600 
    242 H242       -2.2121  -17.5050  -58.1603 H         1 UNK         0.3800 
    243 H243       -1.6516  -18.8793  -57.2427 H         1 UNK         0.3800 
    244 H244        1.2978  -16.0892  -55.7969 H         1 UNK         0.0800 
    245 H245        0.8134  -17.3030  -54.6570 H         1 UNK         0.0800 
    246 H246        2.8732  -19.7714  -54.8423 H         1 UNK         0.0800 
    247 H247        4.2515  -19.1570  -53.9737 H         1 UNK         0.0800 
@<TRIPOS>BOND
     1    1    2 1    
     2    1  127 1    
     3    1  128 1    
     4    1  129 1    
     5    2    3 2    
     6    2    4 am   BACKBONE|DICT|INTERRES
     7    4    5 1    
     8    4  130 1    
     9    5    6 1    
    10    5   65 1    
    11    5  131 1    
    12    6    7 1    
    13    6  132 1    
    14    6  133 1    
    15    7    8 1    
    16    8    9 1    
    17    8  134 1    
    18    8  135 1    
    19    9   10 ar   
    20    9   14 ar   
    21   10   11 ar   
    22   10  136 1    
    23   11   12 ar   
    24   11  126 1    
    25   12   13 ar   
    26   12  137 1    
    27   13   14 ar   
    28   13   15 1    
    29   14  138 1    
    30   15   16 1    
    31   15  139 1    
    32   15  140 1    
    33   16   17 1    
    34   17   18 1    
    35   17  141 1    
    36   17  142 1    
    37   18   19 1    
    38   18   67 1    
    39   18  143 1    
    40   19   20 am   BACKBONE|DICT|INTERRES
    41   19  144 1    
    42   20   21 2    
    43   20   22 1    
    44   22   23 1    
    45   22   24 1    
    46   22  145 1    
    47   23  146 1    
    48   23  147 1    
    49   23  148 1    
    50   24   25 am   BACKBONE|DICT|INTERRES
    51   24  149 1    
    52   25   26 2    
    53   25   27 1    
    54   27   28 1    
    55   27   29 1    
    56   27  150 1    
    57   28  151 1    
    58   28  152 1    
    59   28  153 1    
    60   29   30 am   BACKBONE|DICT|INTERRES
    61   29  154 1    
    62   30   31 2    
    63   30   32 1    
    64   32   33 1    
    65   32   34 1    
    66   32  155 1    
    67   33  156 1    
    68   33  157 1    
    69   33  158 1    
    70   34   35 am   BACKBONE|DICT|INTERRES
    71   34  159 1    
    72   35   36 2    
    73   35   37 1    
    74   37   38 1    
    75   37   39 1    
    76   37  160 1    
    77   38  161 1    
    78   38  162 1    
    79   38  163 1    
    80   39   40 am   BACKBONE|DICT|INTERRES
    81   39  164 1    
    82   40   41 2    
    83   40   42 1    
    84   42   43 1    
    85   42   44 1    
    86   42  165 1    
    87   43  166 1    
    88   43  167 1    
    89   43  168 1    
    90   44   45 am   BACKBONE|DICT|INTERRES
    91   44  169 1    
    92   45   46 2    
    93   45   47 1    
    94   47   48 1    
    95   47   49 1    
    96   47  170 1    
    97   48  171 1    
    98   48  172 1    
    99   48  173 1    
   100   49   50 am   BACKBONE|DICT|INTERRES
   101   49  174 1    
   102   50   51 2    
   103   50   52 1    
   104   52   53 1    
   105   52   54 1    
   106   52  175 1    
   107   53  176 1    
   108   53  177 1    
   109   53  178 1    
   110   54   55 am   BACKBONE|DICT|INTERRES
   111   54  179 1    
   112   55   56 2    
   113   55   57 1    
   114   57   58 1    
   115   57   59 1    
   116   57  180 1    
   117   58  181 1    
   118   58  182 1    
   119   58  183 1    
   120   59   60 am   BACKBONE|DICT|INTERRES
   121   59  184 1    
   122   60   61 2    
   123   60   62 1    
   124   62   63 1    
   125   62   64 1    
   126   62  185 1    
   127   63  186 1    
   128   63  187 1    
   129   63  188 1    
   130   64   65 am   BACKBONE|DICT|INTERRES
   131   64  189 1    
   132   65   66 2    
   133   67   68 2    
   134   67   69 am   BACKBONE|DICT|INTERRES
   135   69   70 1    
   136   69  190 1    
   137   70   71 1    
   138   70   72 1    
   139   70  191 1    
   140   71  192 1    
   141   71  193 1    
   142   71  194 1    
   143   72   73 2    
   144   72   74 am   BACKBONE|DICT|INTERRES
   145   74   75 1    
   146   74  195 1    
   147   75   76 1    
   148   75   77 1    
   149   75  196 1    
   150   76  197 1    
   151   76  198 1    
   152   76  199 1    
   153   77   78 2    
   154   77   79 am   BACKBONE|DICT|INTERRES
   155   79   80 1    
   156   79  200 1    
   157   80   81 1    
   158   80   82 1    
   159   80  201 1    
   160   81  202 1    
   161   81  203 1    
   162   81  204 1    
   163   82   83 2    
   164   82   84 am   BACKBONE|DICT|INTERRES
   165   84   85 1    
   166   84  205 1    
   167   85   86 1    
   168   85   87 1    
   169   85  206 1    
   170   86  207 1    
   171   86  208 1    
   172   86  209 1    
   173   87   88 2    
   174   87   89 am   BACKBONE|DICT|INTERRES
   175   89   90 1    
   176   89  210 1    
   177   90   91 1    
   178   90   92 1    
   179   90  211 1    
   180   91  212 1    
   181   91  213 1    
   182   91  214 1    
   183   92   93 2    
   184   92   94 am   BACKBONE|DICT|INTERRES
   185   94   95 1    
   186   94  215 1    
   187   95   96 1    
   188   95   97 1    
   189   95  216 1    
   190   96  217 1    
   191   96  218 1    
   192   96  219 1    
   193   97   98 2    
   194   97   99 am   BACKBONE|DICT|INTERRES
   195   99  100 1    
   196   99  220 1    
   197  100  101 1    
   198  100  102 1    
   199  100  221 1    
   200  101  222 1    
   201  101  223 1    
   202  101  224 1    
   203  102  103 2    
   204  102  104 am   BACKBONE|DICT|INTERRES
   205  104  105 1    
   206  104  225 1    
   207  105  106 1    
   208  105  107 1    
   209  105  226 1    
   210  106  227 1    
   211  106  228 1    
   212  106  229 1    
   213  107  108 2    
   214  107  109 am   BACKBONE|DICT|INTERRES
   215  109  110 1    
   216  109  230 1    
   217  110  111 1    
   218  110  112 1    
   219  110  231 1    
   220  111  232 1    
   221  111  233 1    
   222  111  234 1    
   223  112  113 2    
   224  112  114 am   BACKBONE|DICT|INTERRES
   225  114  115 1    
   226  114  235 1    
   227  115  116 1    
   228  115  117 1    
   229  115  236 1    
   230  116  237 1    
   231  116  238 1    
   232  116  239 1    
   233  117  118 2    
   234  117  119 am   BACKBONE|DICT|INTERRES
   235  119  120 1    
   236  119  240 1    
   237  120  121 1    
   238  120  124 1    
   239  120  241 1    
   240  121  122 am   BACKBONE|DICT|INTERRES
   241  121  123 2    
   242  122  242 1    
   243  122  243 1    
   244  124  125 1    
   245  124  244 1    
   246  124  245 1    
   247  125  126 1    
   248  126  246 1    
   249  126  247 1    
@<TRIPOS>SUBSTRUCTURE
     1 UNK         1 GROUP             0       ****    0 ROOT    
