@<TRIPOS>MOLECULE
3R540
247   249    1
SMALL
USER_CHARGES


@<TRIPOS>ATOM
      1 CA         -4.5065  -10.4213  -44.3106 C.3       0 UNK        -0.1800 
      2 C          -3.3412  -11.2921  -44.7573 C.2       0 UNK         0.5000 
      3 O          -3.3628  -12.5011  -44.5322 O.2       0 UNK        -0.5000 
      4 N          -2.3270  -10.6784  -45.3855 N.am      1 UNK        -0.5000 
      5 CA         -1.1114  -11.3101  -45.9312 C.3       1 UNK         0.1400 
      6 C6         -1.3979  -12.3363  -47.0663 C.3       23 UNK        -0.0398 
      7 S7         -2.1217  -11.5522  -48.5507 S.3       23 UNK        -0.2404 
      8 C8         -3.9000  -11.9199  -48.3982 C.3       23 UNK        -0.0205 
      9 C9         -4.2382  -13.3568  -48.7657 C.ar      23 UNK        -0.0193 
     10 C10        -4.4453  -13.7089  -50.1030 C.ar      23 UNK        -0.1150 
     11 C11        -4.7916  -15.0191  -50.4463 C.ar      23 UNK        -0.0193 
     12 C12        -4.9317  -15.9801  -49.4417 C.ar      23 UNK        -0.1150 
     13 C13        -4.7223  -15.6421  -48.1021 C.ar      23 UNK        -0.0193 
     14 C14        -4.3806  -14.3277  -47.7699 C.ar      23 UNK        -0.1150 
     15 C15        -4.8680  -16.6901  -47.0101 C.3       23 UNK        -0.0205 
     16 S16        -3.2947  -17.5515  -46.7133 S.3       23 UNK        -0.2404 
     17 C17        -3.3203  -18.8672  -47.9814 C.3       23 UNK        -0.0398 
     18 CA         -3.2724  -20.3118  -47.4235 C.3       11 UNK         0.1400 
     19 N          -1.9476  -20.6899  -46.9145 N.am      11 UNK        -0.5000 
     20 C          -1.5770  -21.9503  -46.6439 C.2       10 UNK         0.5000 
     21 O          -2.3457  -22.9093  -46.7091 O.2       10 UNK        -0.5000 
     22 CA         -0.1232  -22.1883  -46.2078 C.3       10 UNK         0.1400 
     23 CB          0.8449  -22.0055  -47.3869 C.3       10 UNK        -0.1800 
     24 N           0.2679  -21.3324  -45.0908 N.am      10 UNK        -0.5000 
     25 C          -0.2266  -21.4439  -43.8492 C.2       9 UNK         0.5000 
     26 O          -1.0360  -22.3074  -43.5097 O.2       9 UNK        -0.5000 
     27 CA          0.2468  -20.4062  -42.8152 C.3       9 UNK         0.1400 
     28 CB          1.5878  -20.8289  -42.1970 C.3       9 UNK        -0.1800 
     29 N           0.3706  -19.0628  -43.3796 N.am      9 UNK        -0.5000 
     30 C          -0.6583  -18.3370  -43.8403 C.2       8 UNK         0.5000 
     31 O          -1.8324  -18.7023  -43.7779 O.2       8 UNK        -0.5000 
     32 CA         -0.3064  -17.0020  -44.5229 C.3       8 UNK         0.1400 
     33 CB         -0.0300  -15.9063  -43.4838 C.3       8 UNK        -0.1800 
     34 N           0.8359  -17.1194  -45.4296 N.am      8 UNK        -0.5000 
     35 C           0.8864  -17.9090  -46.5123 C.2       7 UNK         0.5000 
     36 O          -0.0457  -18.6111  -46.8994 O.2       7 UNK        -0.5000 
     37 CA          2.2280  -17.9704  -47.2586 C.3       7 UNK         0.1400 
     38 CB          2.3716  -16.7918  -48.2333 C.3       7 UNK        -0.1800 
     39 N           3.3568  -17.9945  -46.3291 N.am      7 UNK        -0.5000 
     40 C           3.6813  -19.0488  -45.5676 C.2       6 UNK         0.5000 
     41 O           3.0861  -20.1259  -45.6037 O.2       6 UNK        -0.5000 
     42 CA          4.8424  -18.8545  -44.5744 C.3       6 UNK         0.1400 
     43 CB          6.1942  -19.0663  -45.2720 C.3       6 UNK        -0.1800 
     44 N           4.8261  -17.5370  -43.9356 N.am      6 UNK        -0.5000 
     45 C           3.8860  -17.1334  -43.0702 C.2       5 UNK         0.5000 
     46 O           2.9532  -17.8442  -42.6973 O.2       5 UNK        -0.5000 
     47 CA          3.9752  -15.6787  -42.5692 C.3       5 UNK         0.1400 
     48 CB          4.8931  -15.5865  -41.3416 C.3       5 UNK        -0.1800 
     49 N           4.4136  -14.7035  -43.5735 N.am      5 UNK        -0.5000 
     50 C           3.8477  -14.5118  -44.7727 C.2       4 UNK         0.5000 
     51 O           2.9582  -15.2290  -45.2292 O.2       4 UNK        -0.5000 
     52 CA          4.3225  -13.2777  -45.5542 C.3       4 UNK         0.1400 
     53 CB          3.8497  -13.2828  -47.0190 C.3       4 UNK        -0.1800 
     54 N           3.7744  -12.1042  -44.8857 N.am      4 UNK        -0.5000 
     55 C           4.4403  -11.3203  -44.0279 C.2       3 UNK         0.5000 
     56 O           5.6448  -11.4308  -43.7962 O.2       3 UNK        -0.5000 
     57 CA          3.6174  -10.2574  -43.2712 C.3       3 UNK         0.1400 
     58 CB          3.6678   -8.9110  -44.0091 C.3       3 UNK        -0.1800 
     59 N           2.2180  -10.6447  -43.0787 N.am      3 UNK        -0.5000 
     60 C           1.8014  -11.6770  -42.3310 C.2       2 UNK         0.5000 
     61 O           2.5515  -12.3628  -41.6360 O.2       2 UNK        -0.5000 
     62 CA          0.2989  -12.0181  -42.3806 C.3       2 UNK         0.1400 
     63 CB         -0.4142  -11.4893  -41.1270 C.3       2 UNK        -0.1800 
     64 N          -0.4080  -11.5247  -43.5680 N.am      2 UNK        -0.5000 
     65 C          -0.1695  -11.8804  -44.8402 C.2       1 UNK         0.5000 
     66 O           0.7826  -12.5880  -45.1681 O.2       1 UNK        -0.5000 
     67 C          -4.4188  -20.6162  -46.4336 C.2       11 UNK         0.5000 
     68 O          -5.5285  -20.9140  -46.8755 O.2       11 UNK        -0.5000 
     69 N          -4.1201  -20.6188  -45.1255 N.am      12 UNK        -0.5000 
     70 CA         -5.0271  -21.0481  -44.0570 C.3       12 UNK         0.1400 
     71 CB         -4.3848  -20.7344  -42.6978 C.3       12 UNK        -0.1800 
     72 C          -5.4200  -22.5397  -44.1398 C.2       12 UNK         0.5000 
     73 O          -6.4888  -22.9094  -43.6529 O.2       12 UNK        -0.5000 
     74 N          -4.5710  -23.3566  -44.7769 N.am      13 UNK        -0.5000 
     75 CA         -4.8037  -24.7680  -45.0865 C.3       13 UNK         0.1400 
     76 CB         -3.5701  -25.5689  -44.6335 C.3       13 UNK        -0.1800 
     77 C          -5.0806  -24.9755  -46.5915 C.2       13 UNK         0.5000 
     78 O          -4.9766  -26.1039  -47.0776 O.2       13 UNK        -0.5000 
     79 N          -5.3726  -23.8835  -47.3201 N.am      14 UNK        -0.5000 
     80 CA         -5.5788  -23.7991  -48.7727 C.3       14 UNK         0.1400 
     81 CB         -6.9007  -24.4894  -49.1661 C.3       14 UNK        -0.1800 
     82 C          -4.3793  -24.3153  -49.5975 C.2       14 UNK         0.5000 
     83 O          -4.5665  -24.7883  -50.7183 O.2       14 UNK        -0.5000 
     84 N          -3.1759  -24.2665  -49.0046 N.am      15 UNK        -0.5000 
     85 CA         -1.9085  -24.8316  -49.4766 C.3       15 UNK         0.1400 
     86 CB         -1.3450  -23.9883  -50.6364 C.3       15 UNK        -0.1800 
     87 C          -1.9901  -26.3367  -49.8152 C.2       15 UNK         0.5000 
     88 O          -1.2689  -26.8010  -50.6966 O.2       15 UNK        -0.5000 
     89 N          -2.9023  -27.0660  -49.1508 N.am      16 UNK        -0.5000 
     90 CA         -3.2878  -28.4533  -49.4407 C.3       16 UNK         0.1400 
     91 CB         -2.1456  -29.4266  -49.0820 C.3       16 UNK        -0.1800 
     92 C          -3.8163  -28.6403  -50.8840 C.2       16 UNK         0.5000 
     93 O          -3.5863  -29.6838  -51.4972 O.2       16 UNK        -0.5000 
     94 N          -4.5053  -27.6074  -51.3934 N.am      17 UNK        -0.5000 
     95 CA         -5.0716  -27.4589  -52.7371 C.3       17 UNK         0.1400 
     96 CB         -6.0583  -28.5974  -53.0732 C.3       17 UNK        -0.1800 
     97 C          -4.0228  -27.2205  -53.8451 C.2       17 UNK         0.5000 
     98 O          -4.3579  -27.3440  -55.0251 O.2       17 UNK        -0.5000 
     99 N          -2.7870  -26.8545  -53.4736 N.am      18 UNK        -0.5000 
    100 CA        -1.7484  -26.4173  -54.4078 C.3       18 UNK         0.1400 
    101 CB        -0.3730  -26.5259  -53.7316 C.3       18 UNK        -0.1800 
    102 C         -1.9915  -24.9748  -54.8922 C.2       18 UNK         0.5000 
    103 O         -2.7084  -24.2060  -54.2462 O.2       18 UNK        -0.5000 
    104 N         -1.3386  -24.6172  -56.0055 N.am      19 UNK        -0.5000 
    105 CA        -1.4256  -23.3052  -56.6566 C.3       19 UNK         0.1400 
    106 CB        -0.7318  -23.3869  -58.0253 C.3       19 UNK        -0.1800 
    107 C         -0.8509  -22.1337  -55.8324 C.2       19 UNK         0.5000 
    108 O         -1.1331  -20.9795  -56.1550 O.2       19 UNK        -0.5000 
    109 N         -0.0723  -22.4348  -54.7827 N.am      20 UNK        -0.5000 
    110 CA         0.5303  -21.4623  -53.8669 C.3       20 UNK         0.1400 
    111 CB         1.4528  -22.2000  -52.8856 C.3       20 UNK        -0.1800 
    112 C         -0.4911  -20.5905  -53.1067 C.2       20 UNK         0.5000 
    113 O         -0.1604  -19.4628  -52.7386 O.2       20 UNK        -0.5000 
    114 N         -1.7224  -21.0899  -52.9265 N.am      21 UNK        -0.5000 
    115 CA        -2.8553  -20.3513  -52.3649 C.3       21 UNK         0.1400 
    116 CB        -3.8359  -21.3469  -51.7210 C.3       21 UNK        -0.1800 
    117 C         -3.5237  -19.4366  -53.4168 C.2       21 UNK         0.5000 
    118 O         -4.7261  -19.5478  -53.6624 O.2       21 UNK        -0.5000 
    119 N         -2.7236  -18.5405  -54.0080 N.am      22 UNK        -0.5000 
    120 CA        -3.1287  -17.4849  -54.9552 C.3       22 UNK         0.1400 
    121 C         -3.6450  -18.0010  -56.3346 C.2       22 UNK         0.5000 
    122 N         -3.2255  -19.1673  -56.8065 N.am      22 UNK        -0.7600 
    123 O         -4.4222  -17.3288  -57.0084 O.2       22 UNK        -0.5000 
    124 C124       -4.0854  -16.4316  -54.3234 C.3       23 UNK        -0.0398 
    125 S125       -3.4599  -15.7312  -52.7568 S.3       23 UNK        -0.2404 
    126 C126       -5.0274  -15.3975  -51.8987 C.3       23 UNK        -0.0205 
    127 H127       -4.6301  -10.4854  -43.2296 H         1 UNK         0.0600 
    128 H128       -5.4290  -10.7613  -44.7812 H         1 UNK         0.0600 
    129 H129       -4.3561   -9.3743  -44.5749 H         1 UNK         0.0600 
    130 H130       -2.3841   -9.6798  -45.5322 H         1 UNK         0.3000 
    131 H131       -0.5396  -10.4947  -46.3766 H         1 UNK         0.0600 
    132 H132       -0.4722  -12.8101  -47.3976 H         1 UNK         0.0800 
    133 H133       -2.0306  -13.1501  -46.7145 H         1 UNK         0.0800 
    134 H134       -4.2472  -11.6926  -47.3916 H         1 UNK         0.0800 
    135 H135       -4.4474  -11.2446  -49.0574 H         1 UNK         0.0800 
    136 H136       -4.3383  -12.9625  -50.8778 H         1 UNK         0.1150 
    137 H137       -5.2041  -16.9915  -49.7061 H         1 UNK         0.1150 
    138 H138       -4.2276  -14.0611  -46.7332 H         1 UNK         0.1150 
    139 H139       -5.1814  -16.2115  -46.0811 H         1 UNK         0.0800 
    140 H140       -5.6531  -17.4056  -47.2595 H         1 UNK         0.0800 
    141 H141       -2.4765  -18.7025  -48.6530 H         1 UNK         0.0800 
    142 H142       -4.2091  -18.7568  -48.6024 H         1 UNK         0.0800 
    143 H143       -3.4485  -20.9668  -48.2801 H         1 UNK         0.0600 
    144 H144       -1.2653  -19.9368  -46.8261 H         1 UNK         0.3000 
    145 H145       -0.0459  -23.2259  -45.8759 H         1 UNK         0.0600 
    146 H146        1.8675  -22.2469  -47.0966 H         1 UNK         0.0600 
    147 H147        0.5786  -22.6628  -48.2157 H         1 UNK         0.0600 
    148 H148        0.8390  -20.9841  -47.7658 H         1 UNK         0.0600 
    149 H149        0.9580  -20.6164  -45.2825 H         1 UNK         0.3000 
    150 H150       -0.4989  -20.3680  -42.0183 H         1 UNK         0.0600 
    151 H151        1.5213  -21.8271  -41.7623 H         1 UNK         0.0600 
    152 H152        1.8863  -20.1467  -41.4008 H         1 UNK         0.0600 
    153 H153        2.3862  -20.8450  -42.9397 H         1 UNK         0.0600 
    154 H154        1.3047  -18.6651  -43.4086 H         1 UNK         0.3000 
    155 H155       -1.1621  -16.6830  -45.1160 H         1 UNK         0.0600 
    156 H156       -0.9115  -15.7228  -42.8685 H         1 UNK         0.0600 
    157 H157        0.2325  -14.9665  -43.9684 H         1 UNK         0.0600 
    158 H158        0.7861  -16.1781  -42.8157 H         1 UNK         0.0600 
    159 H159        1.6426  -16.5328  -45.2279 H         1 UNK         0.3000 
    160 H160        2.2471  -18.8927  -47.8431 H         1 UNK         0.0600 
    161 H161        1.5798  -16.8131  -48.9830 H         1 UNK         0.0600 
    162 H162        2.3078  -15.8312  -47.7227 H         1 UNK         0.0600 
    163 H163        3.3233  -16.8295  -48.7634 H         1 UNK         0.0600 
    164 H164        3.8287  -17.1152  -46.1710 H         1 UNK         0.3000 
    165 H165        4.7404  -19.6116  -43.7938 H         1 UNK         0.0600 
    166 H166        7.0181  -19.0096  -44.5604 H         1 UNK         0.0600 
    167 H167        6.2399  -20.0493  -45.7428 H         1 UNK         0.0600 
    168 H168        6.3692  -18.3215  -46.0493 H         1 UNK         0.0600 
    169 H169        5.5549  -16.8885  -44.1949 H         1 UNK         0.3000 
    170 H170        2.9721  -15.3815  -42.2585 H         1 UNK         0.0600 
    171 H171        4.5804  -16.2866  -40.5657 H         1 UNK         0.0600 
    172 H172        5.9288  -15.8161  -41.5947 H         1 UNK         0.0600 
    173 H173        4.8660  -14.5876  -40.9052 H         1 UNK         0.0600 
    174 H174        5.1196  -14.0458  -43.2739 H         1 UNK         0.3000 
    175 H175        5.4142  -13.2640  -45.5480 H         1 UNK         0.0600 
    176 H176        2.7614  -13.2989  -47.0946 H         1 UNK         0.0600 
    177 H177        4.2066  -12.3998  -47.5490 H         1 UNK         0.0600 
    178 H178        4.2310  -14.1567  -47.5483 H         1 UNK         0.0600 
    179 H179        2.7669  -12.0049  -44.9550 H         1 UNK         0.3000 
    180 H180        4.0708  -10.1274  -42.2864 H         1 UNK         0.0600 
    181 H181        3.1504   -8.1331  -43.4474 H         1 UNK         0.0600 
    182 H182        3.2089   -8.9757  -44.9965 H         1 UNK         0.0600 
    183 H183        4.6980   -8.5800  -44.1470 H         1 UNK         0.0600 
    184 H184        1.5273  -10.1318  -43.6061 H         1 UNK         0.3000 
    185 H185        0.2201  -13.1064  -42.3809 H         1 UNK         0.0600 
    186 H186       -0.3963  -10.3996  -41.0841 H         1 UNK         0.0600 
    187 H187       -1.4558  -11.8106  -41.1004 H         1 UNK         0.0600 
    188 H188        0.0617  -11.8618  -40.2188 H         1 UNK         0.0600 
    189 H189       -1.2003  -10.9233  -43.3968 H         1 UNK         0.3000 
    190 H190       -3.1948  -20.3196  -44.8422 H         1 UNK         0.3000 
    191 H191       -5.9449  -20.4632  -44.1448 H         1 UNK         0.0600 
    192 H192       -3.4388  -21.2614  -42.5697 H         1 UNK         0.0600 
    193 H193       -4.1904  -19.6670  -42.5912 H         1 UNK         0.0600 
    194 H194       -5.0398  -21.0284  -41.8767 H         1 UNK         0.0600 
    195 H195       -3.7198  -22.9659  -45.1668 H         1 UNK         0.3000 
    196 H196       -5.6741  -25.1422  -44.5445 H         1 UNK         0.0600 
    197 H197       -3.3702  -25.4159  -43.5728 H         1 UNK         0.0600 
    198 H198       -2.6765  -25.2767  -45.1867 H         1 UNK         0.0600 
    199 H199       -3.7160  -26.6394  -44.7832 H         1 UNK         0.0600 
    200 H200       -5.4307  -22.9958  -46.8348 H         1 UNK         0.3000 
    201 H201       -5.6735  -22.7389  -49.0103 H         1 UNK         0.0600 
    202 H202       -7.1377  -24.3154  -50.2163 H         1 UNK         0.0600 
    203 H203       -7.7352  -24.1049  -48.5797 H         1 UNK         0.0600 
    204 H204       -6.8540  -25.5685  -49.0159 H         1 UNK         0.0600 
    205 H205       -3.1202  -23.8439  -48.0803 H         1 UNK         0.3000 
    206 H206       -1.2106  -24.7523  -48.6421 H         1 UNK         0.0600 
    207 H207       -1.2448  -22.9412  -50.3510 H         1 UNK         0.0600 
    208 H208       -1.9817  -24.0400  -51.5201 H         1 UNK         0.0600 
    209 H209       -0.3535  -24.3385  -50.9220 H         1 UNK         0.0600 
    210 H210       -3.4706  -26.6001  -48.4503 H         1 UNK         0.3000 
    211 H211       -4.1282  -28.6760  -48.7818 H         1 UNK         0.0600 
    212 H212       -1.8024  -29.2711  -48.0593 H         1 UNK         0.0600 
    213 H213       -2.4772  -30.4627  -49.1577 H         1 UNK         0.0600 
    214 H214       -1.2883  -29.3095  -49.7455 H         1 UNK         0.0600 
    215 H215       -4.5720  -26.7629  -50.8331 H         1 UNK         0.3000 
    216 H216       -5.6546  -26.5377  -52.6962 H         1 UNK         0.0600 
    217 H217       -6.6217  -28.3701  -53.9789 H         1 UNK         0.0600 
    218 H218       -5.5459  -29.5447  -53.2418 H         1 UNK         0.0600 
    219 H219       -6.7825  -28.7428  -52.2717 H         1 UNK         0.0600 
    220 H220       -2.5748  -26.7619  -52.4883 H         1 UNK         0.3000 
    221 H221       -1.7578  -27.0820  -55.2743 H         1 UNK         0.0600 
    222 H222       -0.2606  -25.7987  -52.9274 H         1 UNK         0.0600 
    223 H223       -0.2155  -27.5191  -53.3103 H         1 UNK         0.0600 
    224 H224        0.4315  -26.3467  -54.4456 H         1 UNK         0.0600 
    225 H225       -0.7535  -25.3001  -56.4654 H         1 UNK         0.3000 
    226 H226       -2.4824  -23.0869  -56.8233 H         1 UNK         0.0600 
    227 H227       -1.1899  -24.1491  -58.6559 H         1 UNK         0.0600 
    228 H228       -0.8065  -22.4391  -58.5603 H         1 UNK         0.0600 
    229 H229        0.3280  -23.6243  -57.9251 H         1 UNK         0.0600 
    230 H230        0.1080  -23.4087  -54.5925 H         1 UNK         0.3000 
    231 H231        1.1441  -20.7863  -54.4658 H         1 UNK         0.0600 
    232 H232        1.9255  -21.5031  -52.1921 H         1 UNK         0.0600 
    233 H233        2.2508  -22.7238  -53.4121 H         1 UNK         0.0600 
    234 H234        0.9055  -22.9319  -52.2932 H         1 UNK         0.0600 
    235 H235       -1.9276  -22.0074  -53.3001 H         1 UNK         0.3000 
    236 H236       -2.4935  -19.6980  -51.5678 H         1 UNK         0.0600 
    237 H237       -4.7087  -20.8366  -51.3120 H         1 UNK         0.0600 
    238 H238       -4.1893  -22.0890  -52.4384 H         1 UNK         0.0600 
    239 H239       -3.3617  -21.8755  -50.8963 H         1 UNK         0.0600 
    240 H240       -1.7454  -18.5451  -53.7434 H         1 UNK         0.3000 
    241 H241       -2.2059  -16.9575  -55.1983 H         1 UNK         0.0600 
    242 H242       -3.5651  -19.4793  -57.7017 H         1 UNK         0.3800 
    243 H243       -2.5243  -19.7229  -56.3233 H         1 UNK         0.3800 
    244 H244       -4.2428  -15.5991  -55.0112 H         1 UNK         0.0800 
    245 H245       -5.0678  -16.8766  -54.1588 H         1 UNK         0.0800 
    246 H246       -5.5587  -14.5946  -52.4121 H         1 UNK         0.0800 
    247 H247       -5.6698  -16.2780  -51.9526 H         1 UNK         0.0800 
@<TRIPOS>BOND
     1    1    2 1    
     2    1  127 1    
     3    1  128 1    
     4    1  129 1    
     5    2    3 2    
     6    2    4 am   BACKBONE|DICT|INTERRES
     7    4    5 1    
     8    4  130 1    
     9    5    6 1    
    10    5   65 1    
    11    5  131 1    
    12    6    7 1    
    13    6  132 1    
    14    6  133 1    
    15    7    8 1    
    16    8    9 1    
    17    8  134 1    
    18    8  135 1    
    19    9   10 ar   
    20    9   14 ar   
    21   10   11 ar   
    22   10  136 1    
    23   11   12 ar   
    24   11  126 1    
    25   12   13 ar   
    26   12  137 1    
    27   13   14 ar   
    28   13   15 1    
    29   14  138 1    
    30   15   16 1    
    31   15  139 1    
    32   15  140 1    
    33   16   17 1    
    34   17   18 1    
    35   17  141 1    
    36   17  142 1    
    37   18   19 1    
    38   18   67 1    
    39   18  143 1    
    40   19   20 am   BACKBONE|DICT|INTERRES
    41   19  144 1    
    42   20   21 2    
    43   20   22 1    
    44   22   23 1    
    45   22   24 1    
    46   22  145 1    
    47   23  146 1    
    48   23  147 1    
    49   23  148 1    
    50   24   25 am   BACKBONE|DICT|INTERRES
    51   24  149 1    
    52   25   26 2    
    53   25   27 1    
    54   27   28 1    
    55   27   29 1    
    56   27  150 1    
    57   28  151 1    
    58   28  152 1    
    59   28  153 1    
    60   29   30 am   BACKBONE|DICT|INTERRES
    61   29  154 1    
    62   30   31 2    
    63   30   32 1    
    64   32   33 1    
    65   32   34 1    
    66   32  155 1    
    67   33  156 1    
    68   33  157 1    
    69   33  158 1    
    70   34   35 am   BACKBONE|DICT|INTERRES
    71   34  159 1    
    72   35   36 2    
    73   35   37 1    
    74   37   38 1    
    75   37   39 1    
    76   37  160 1    
    77   38  161 1    
    78   38  162 1    
    79   38  163 1    
    80   39   40 am   BACKBONE|DICT|INTERRES
    81   39  164 1    
    82   40   41 2    
    83   40   42 1    
    84   42   43 1    
    85   42   44 1    
    86   42  165 1    
    87   43  166 1    
    88   43  167 1    
    89   43  168 1    
    90   44   45 am   BACKBONE|DICT|INTERRES
    91   44  169 1    
    92   45   46 2    
    93   45   47 1    
    94   47   48 1    
    95   47   49 1    
    96   47  170 1    
    97   48  171 1    
    98   48  172 1    
    99   48  173 1    
   100   49   50 am   BACKBONE|DICT|INTERRES
   101   49  174 1    
   102   50   51 2    
   103   50   52 1    
   104   52   53 1    
   105   52   54 1    
   106   52  175 1    
   107   53  176 1    
   108   53  177 1    
   109   53  178 1    
   110   54   55 am   BACKBONE|DICT|INTERRES
   111   54  179 1    
   112   55   56 2    
   113   55   57 1    
   114   57   58 1    
   115   57   59 1    
   116   57  180 1    
   117   58  181 1    
   118   58  182 1    
   119   58  183 1    
   120   59   60 am   BACKBONE|DICT|INTERRES
   121   59  184 1    
   122   60   61 2    
   123   60   62 1    
   124   62   63 1    
   125   62   64 1    
   126   62  185 1    
   127   63  186 1    
   128   63  187 1    
   129   63  188 1    
   130   64   65 am   BACKBONE|DICT|INTERRES
   131   64  189 1    
   132   65   66 2    
   133   67   68 2    
   134   67   69 am   BACKBONE|DICT|INTERRES
   135   69   70 1    
   136   69  190 1    
   137   70   71 1    
   138   70   72 1    
   139   70  191 1    
   140   71  192 1    
   141   71  193 1    
   142   71  194 1    
   143   72   73 2    
   144   72   74 am   BACKBONE|DICT|INTERRES
   145   74   75 1    
   146   74  195 1    
   147   75   76 1    
   148   75   77 1    
   149   75  196 1    
   150   76  197 1    
   151   76  198 1    
   152   76  199 1    
   153   77   78 2    
   154   77   79 am   BACKBONE|DICT|INTERRES
   155   79   80 1    
   156   79  200 1    
   157   80   81 1    
   158   80   82 1    
   159   80  201 1    
   160   81  202 1    
   161   81  203 1    
   162   81  204 1    
   163   82   83 2    
   164   82   84 am   BACKBONE|DICT|INTERRES
   165   84   85 1    
   166   84  205 1    
   167   85   86 1    
   168   85   87 1    
   169   85  206 1    
   170   86  207 1    
   171   86  208 1    
   172   86  209 1    
   173   87   88 2    
   174   87   89 am   BACKBONE|DICT|INTERRES
   175   89   90 1    
   176   89  210 1    
   177   90   91 1    
   178   90   92 1    
   179   90  211 1    
   180   91  212 1    
   181   91  213 1    
   182   91  214 1    
   183   92   93 2    
   184   92   94 am   BACKBONE|DICT|INTERRES
   185   94   95 1    
   186   94  215 1    
   187   95   96 1    
   188   95   97 1    
   189   95  216 1    
   190   96  217 1    
   191   96  218 1    
   192   96  219 1    
   193   97   98 2    
   194   97   99 am   BACKBONE|DICT|INTERRES
   195   99  100 1    
   196   99  220 1    
   197  100  101 1    
   198  100  102 1    
   199  100  221 1    
   200  101  222 1    
   201  101  223 1    
   202  101  224 1    
   203  102  103 2    
   204  102  104 am   BACKBONE|DICT|INTERRES
   205  104  105 1    
   206  104  225 1    
   207  105  106 1    
   208  105  107 1    
   209  105  226 1    
   210  106  227 1    
   211  106  228 1    
   212  106  229 1    
   213  107  108 2    
   214  107  109 am   BACKBONE|DICT|INTERRES
   215  109  110 1    
   216  109  230 1    
   217  110  111 1    
   218  110  112 1    
   219  110  231 1    
   220  111  232 1    
   221  111  233 1    
   222  111  234 1    
   223  112  113 2    
   224  112  114 am   BACKBONE|DICT|INTERRES
   225  114  115 1    
   226  114  235 1    
   227  115  116 1    
   228  115  117 1    
   229  115  236 1    
   230  116  237 1    
   231  116  238 1    
   232  116  239 1    
   233  117  118 2    
   234  117  119 am   BACKBONE|DICT|INTERRES
   235  119  120 1    
   236  119  240 1    
   237  120  121 1    
   238  120  124 1    
   239  120  241 1    
   240  121  122 am   BACKBONE|DICT|INTERRES
   241  121  123 2    
   242  122  242 1    
   243  122  243 1    
   244  124  125 1    
   245  124  244 1    
   246  124  245 1    
   247  125  126 1    
   248  126  246 1    
   249  126  247 1    
@<TRIPOS>SUBSTRUCTURE
     1 UNK         1 GROUP             0       ****    0 ROOT    
