@<TRIPOS>MOLECULE
3R540
247   249    1
SMALL
USER_CHARGES


@<TRIPOS>ATOM
      1 CA         -0.4227  -10.9611  -51.9725 C.3       0 UNK        -0.1800 
      2 C           0.4937  -10.7720  -50.7716 C.2       0 UNK         0.5000 
      3 O           0.8911   -9.6448  -50.4741 O.2       0 UNK        -0.5000 
      4 N           0.8353  -11.8702  -50.0887 N.am      1 UNK        -0.5000 
      5 CA          1.6328  -11.8822  -48.8593 C.3       1 UNK         0.1400 
      6 C6          2.3367  -13.2488  -48.6509 C.3       23 UNK        -0.0398 
      7 S7          1.2062  -14.6731  -48.4678 S.3       23 UNK        -0.2404 
      8 C8          1.4027  -15.5065  -50.0719 C.3       23 UNK        -0.0205 
      9 C9          0.6350  -16.8170  -50.0853 C.ar      23 UNK        -0.0193 
     10 C10        -0.6704  -16.8755  -50.5834 C.ar      23 UNK        -0.1150 
     11 C11        -1.3908  -18.0751  -50.5648 C.ar      23 UNK        -0.0193 
     12 C12        -0.7849  -19.2193  -50.0293 C.ar      23 UNK        -0.1150 
     13 C13         0.5214  -19.1749  -49.5361 C.ar      23 UNK        -0.0193 
     14 C14         1.2287  -17.9723  -49.5738 C.ar      23 UNK        -0.1150 
     15 C15         1.1706  -20.4182  -48.9492 C.3       23 UNK        -0.0205 
     16 S16         1.2755  -20.3205  -47.1360 S.3       23 UNK        -0.2404 
     17 C17        -0.4659  -20.5375  -46.6405 C.3       23 UNK        -0.0398 
     18 CA         -0.6812  -21.8649  -45.8830 C.3       11 UNK         0.1400 
     19 N           0.0864  -21.9255  -44.6330 N.am      11 UNK        -0.5000 
     20 C           0.2215  -23.0057  -43.8515 C.2       10 UNK         0.5000 
     21 O          -0.3660  -24.0683  -44.0675 O.2       10 UNK        -0.5000 
     22 CA          1.1206  -22.8577  -42.6075 C.3       10 UNK         0.1400 
     23 CB          1.6494  -24.2103  -42.0878 C.3       10 UNK        -0.1800 
     24 N           2.2122  -21.8946  -42.7881 N.am      10 UNK        -0.5000 
     25 C           3.2459  -21.9680  -43.6416 C.2       9 UNK         0.5000 
     26 O           3.4349  -22.9150  -44.4059 O.2       9 UNK        -0.5000 
     27 CA          4.2461  -20.7900  -43.6511 C.3       9 UNK         0.1400 
     28 CB          4.2163  -20.0524  -44.9979 C.3       9 UNK        -0.1800 
     29 N           4.0161  -19.8127  -42.5860 N.am      9 UNK        -0.5000 
     30 C           4.3560  -19.9756  -41.3013 C.2       8 UNK         0.5000 
     31 O           4.9711  -20.9531  -40.8742 O.2       8 UNK        -0.5000 
     32 CA          3.8916  -18.8792  -40.3234 C.3       8 UNK         0.1400 
     33 CB          4.9101  -17.7306  -40.2744 C.3       8 UNK        -0.1800 
     34 N           2.5632  -18.3462  -40.6441 N.am      8 UNK        -0.5000 
     35 C           1.4289  -19.0620  -40.6169 C.2       7 UNK         0.5000 
     36 O           1.3803  -20.2507  -40.3017 O.2       7 UNK        -0.5000 
     37 CA          0.1374  -18.3512  -41.0585 C.3       7 UNK         0.1400 
     38 CB         -0.4078  -17.4584  -39.9342 C.3       7 UNK        -0.1800 
     39 N           0.3157  -17.5643  -42.2785 N.am      7 UNK        -0.5000 
     40 C           0.6056  -18.0813  -43.4813 C.2       6 UNK         0.5000 
     41 O           0.7044  -19.2894  -43.6966 O.2       6 UNK        -0.5000 
     42 CA          0.8709  -17.0819  -44.6238 C.3       6 UNK         0.1400 
     43 CB         -0.4465  -16.5606  -45.2170 C.3       6 UNK        -0.1800 
     44 N           1.6942  -15.9493  -44.1986 N.am      6 UNK        -0.5000 
     45 C           2.9494  -16.0511  -43.7384 C.2       5 UNK         0.5000 
     46 O           3.5714  -17.1102  -43.6647 O.2       5 UNK        -0.5000 
     47 CA          3.5950  -14.7590  -43.2130 C.3       5 UNK         0.1400 
     48 CB          4.1213  -13.8904  -44.3667 C.3       5 UNK        -0.1800 
     49 N           2.6642  -13.9877  -42.3886 N.am      5 UNK        -0.5000 
     50 C           2.2351  -14.3711  -41.1771 C.2       4 UNK         0.5000 
     51 O           2.6058  -15.4011  -40.6151 O.2       4 UNK        -0.5000 
     52 CA          1.1870  -13.4731  -40.4951 C.3       4 UNK         0.1400 
     53 CB          1.8675  -12.3064  -39.7639 C.3       4 UNK        -0.1800 
     54 N           0.1994  -12.9451  -41.4366 N.am      4 UNK        -0.5000 
     55 C          -0.6945  -13.6939  -42.0981 C.2       3 UNK         0.5000 
     56 O          -0.8102  -14.9095  -41.9519 O.2       3 UNK        -0.5000 
     57 CA         -1.5687  -12.9680  -43.1376 C.3       3 UNK         0.1400 
     58 CB         -2.8287  -12.3907  -42.4760 C.3       3 UNK        -0.1800 
     59 N          -0.8558  -11.9004  -43.8457 N.am      3 UNK        -0.5000 
     60 C           0.2245  -12.0931  -44.6134 C.2       2 UNK         0.5000 
     61 O           0.7543  -13.1942  -44.7834 O.2       2 UNK        -0.5000 
     62 CA          0.8548  -10.8353  -45.2386 C.3       2 UNK         0.1400 
     63 CB          1.9261  -10.2604  -44.2985 C.3       2 UNK        -0.1800 
     64 N           1.4695  -11.1246  -46.5337 N.am      2 UNK        -0.5000 
     65 C           0.7865  -11.4645  -47.6345 C.2       1 UNK         0.5000 
     66 O          -0.4472  -11.4661  -47.6958 O.2       1 UNK        -0.5000 
     67 C          -2.1839  -22.1341  -45.6778 C.2       11 UNK         0.5000 
     68 O          -2.8290  -22.6425  -46.5914 O.2       11 UNK        -0.5000 
     69 N          -2.6995  -21.8613  -44.4706 N.am      12 UNK        -0.5000 
     70 CA         -4.0616  -22.1897  -44.0434 C.3       12 UNK         0.1400 
     71 CB         -4.2818  -21.6361  -42.6272 C.3       12 UNK        -0.1800 
     72 C          -4.3869  -23.6992  -44.0912 C.2       12 UNK         0.5000 
     73 O          -5.5578  -24.0537  -44.2339 O.2       12 UNK        -0.5000 
     74 N          -3.3563  -24.5496  -43.9848 N.am      13 UNK        -0.5000 
     75 CA         -3.4514  -25.9993  -44.1348 C.3       13 UNK         0.1400 
     76 CB         -2.7544  -26.6703  -42.9402 C.3       13 UNK        -0.1800 
     77 C          -2.8187  -26.4708  -45.4561 C.2       13 UNK         0.5000 
     78 O          -3.3662  -27.3676  -46.0984 O.2       13 UNK        -0.5000 
     79 N          -1.6654  -25.8934  -45.8224 N.am      14 UNK        -0.5000 
     80 CA         -0.8349  -26.3555  -46.9345 C.3       14 UNK         0.1400 
     81 CB          0.6017  -25.8474  -46.7331 C.3       14 UNK        -0.1800 
     82 C          -1.3512  -25.9674  -48.3325 C.2       14 UNK         0.5000 
     83 O          -1.1083  -26.7176  -49.2795 O.2       14 UNK        -0.5000 
     84 N          -2.0171  -24.8120  -48.4621 N.am      15 UNK        -0.5000 
     85 CA         -2.5153  -24.3070  -49.7434 C.3       15 UNK         0.1400 
     86 CB         -2.5285  -22.7728  -49.7120 C.3       15 UNK        -0.1800 
     87 C          -3.9164  -24.8575  -50.0575 C.2       15 UNK         0.5000 
     88 O          -4.6576  -25.2326  -49.1453 O.2       15 UNK        -0.5000 
     89 N          -4.2601  -24.8732  -51.3498 N.am      16 UNK        -0.5000 
     90 CA         -5.5705  -25.2870  -51.8498 C.3       16 UNK         0.1400 
     91 CB         -5.4022  -25.9060  -53.2467 C.3       16 UNK        -0.1800 
     92 C          -6.5558  -24.1077  -51.9088 C.2       16 UNK         0.5000 
     93 O          -7.7499  -24.3093  -51.6870 O.2       16 UNK        -0.5000 
     94 N          -6.0379  -22.9103  -52.2302 N.am      17 UNK        -0.5000 
     95 CA         -6.7643  -21.6478  -52.4301 C.3       17 UNK         0.1400 
     96 CB         -7.3761  -21.1534  -51.1036 C.3       17 UNK        -0.1800 
     97 C          -7.7898  -21.6995  -53.5873 C.2       17 UNK         0.5000 
     98 O          -8.7730  -20.9572  -53.5780 O.2       17 UNK        -0.5000 
     99 N          -7.5437  -22.5822  -54.5654 N.am      18 UNK        -0.5000 
    100 CA        -8.4392  -22.8681  -55.6890 C.3       18 UNK         0.1400 
    101 CB        -8.1472  -24.2939  -56.1842 C.3       18 UNK        -0.1800 
    102 C         -8.3217  -21.8622  -56.8513 C.2       18 UNK         0.5000 
    103 O         -9.1931  -21.8421  -57.7218 O.2       18 UNK        -0.5000 
    104 N         -7.2509  -21.0630  -56.8613 N.am      19 UNK        -0.5000 
    105 CA        -6.9218  -20.0718  -57.8801 C.3       19 UNK         0.1400 
    106 CB        -6.2610  -20.7715  -59.0842 C.3       19 UNK        -0.1800 
    107 C         -5.9854  -19.0247  -57.2596 C.2       19 UNK         0.5000 
    108 O         -5.5655  -19.1846  -56.1102 O.2       19 UNK        -0.5000 
    109 N         -5.6331  -17.9930  -58.0389 N.am      20 UNK        -0.5000 
    110 CA        -4.7226  -16.9072  -57.6487 C.3       20 UNK         0.1400 
    111 CB        -4.6885  -15.8570  -58.7695 C.3       20 UNK        -0.1800 
    112 C         -3.2911  -17.3707  -57.3009 C.2       20 UNK         0.5000 
    113 O         -2.6082  -16.7018  -56.5250 O.2       20 UNK        -0.5000 
    114 N         -2.8774  -18.5213  -57.8508 N.am      21 UNK        -0.5000 
    115 CA        -1.6291  -19.2161  -57.5219 C.3       21 UNK         0.1400 
    116 CB        -1.3202  -20.2188  -58.6453 C.3       21 UNK        -0.1800 
    117 C         -1.6662  -19.9330  -56.1528 C.2       21 UNK         0.5000 
    118 O         -0.6219  -20.3800  -55.6782 O.2       21 UNK        -0.5000 
    119 N         -2.8585  -20.0401  -55.5514 N.am      22 UNK        -0.5000 
    120 CA        -3.1584  -20.6786  -54.2619 C.3       22 UNK         0.1400 
    121 C         -3.1440  -22.2370  -54.2688 C.2       22 UNK         0.5000 
    122 N         -3.0072  -22.8967  -55.4112 N.am      22 UNK        -0.7600 
    123 O         -3.3183  -22.8658  -53.2286 O.2       22 UNK        -0.5000 
    124 C124       -2.3742  -20.0561  -53.0699 C.3       23 UNK        -0.0398 
    125 S125       -3.4541  -19.7098  -51.6390 S.3       23 UNK        -0.2404 
    126 C126       -2.8285  -18.0825  -51.0901 C.3       23 UNK        -0.0205 
    127 H127       -1.3468  -10.4008  -51.8306 H         1 UNK         0.0600 
    128 H128       -0.6808  -12.0095  -52.1247 H         1 UNK         0.0600 
    129 H129        0.0635  -10.5961  -52.8772 H         1 UNK         0.0600 
    130 H130        0.4319  -12.7589  -50.3453 H         1 UNK         0.3000 
    131 H131        2.4195  -11.1320  -48.9675 H         1 UNK         0.0600 
    132 H132        3.0181  -13.4342  -49.4822 H         1 UNK         0.0800 
    133 H133        2.9731  -13.2156  -47.7652 H         1 UNK         0.0800 
    134 H134        2.4605  -15.6979  -50.2593 H         1 UNK         0.0800 
    135 H135        1.0568  -14.8542  -50.8747 H         1 UNK         0.0800 
    136 H136       -1.1324  -15.9790  -50.9728 H         1 UNK         0.1150 
    137 H137       -1.3299  -20.1491  -49.9848 H         1 UNK         0.1150 
    138 H138        2.2343  -17.9306  -49.1789 H         1 UNK         0.1150 
    139 H139        0.6316  -21.3210  -49.2395 H         1 UNK         0.0800 
    140 H140        2.1782  -20.5212  -49.3542 H         1 UNK         0.0800 
    141 H141       -1.1016  -20.4940  -47.5255 H         1 UNK         0.0800 
    142 H142       -0.7567  -19.6909  -46.0187 H         1 UNK         0.0800 
    143 H143       -0.3140  -22.6694  -46.5219 H         1 UNK         0.0600 
    144 H144        0.5524  -21.0637  -44.3574 H         1 UNK         0.3000 
    145 H145        0.4809  -22.4389  -41.8299 H         1 UNK         0.0600 
    146 H146        2.2780  -24.0756  -41.2075 H         1 UNK         0.0600 
    147 H147        0.8272  -24.8670  -41.8008 H         1 UNK         0.0600 
    148 H148        2.2350  -24.7350  -42.8431 H         1 UNK         0.0600 
    149 H149        2.1463  -21.0670  -42.2088 H         1 UNK         0.3000 
    150 H150        5.2427  -21.2172  -43.5234 H         1 UNK         0.0600 
    151 H151        4.3471  -20.7402  -45.8341 H         1 UNK         0.0600 
    152 H152        5.0135  -19.3114  -45.0576 H         1 UNK         0.0600 
    153 H153        3.2698  -19.5314  -45.1417 H         1 UNK         0.0600 
    154 H154        3.5702  -18.9433  -42.8639 H         1 UNK         0.3000 
    155 H155        3.8379  -19.3268  -39.3289 H         1 UNK         0.0600 
    156 H156        5.9062  -18.1005  -40.0284 H         1 UNK         0.0600 
    157 H157        4.6397  -16.9967  -39.5151 H         1 UNK         0.0600 
    158 H158        4.9782  -17.2125  -41.2314 H         1 UNK         0.0600 
    159 H159        2.5169  -17.3580  -40.8748 H         1 UNK         0.3000 
    160 H160       -0.6084  -19.1212  -41.2671 H         1 UNK         0.0600 
    161 H161        0.2716  -16.6372  -39.7054 H         1 UNK         0.0600 
    162 H162       -0.5541  -18.0300  -39.0168 H         1 UNK         0.0600 
    163 H163       -1.3719  -17.0287  -40.2061 H         1 UNK         0.0600 
    164 H164        0.1837  -16.5606  -42.1939 H         1 UNK         0.3000 
    165 H165        1.4132  -17.6108  -45.4103 H         1 UNK         0.0600 
    166 H166       -0.2619  -15.8924  -46.0580 H         1 UNK         0.0600 
    167 H167       -1.0652  -17.3794  -45.5836 H         1 UNK         0.0600 
    168 H168       -1.0319  -16.0124  -44.4790 H         1 UNK         0.0600 
    169 H169        1.2745  -15.0264  -44.2631 H         1 UNK         0.3000 
    170 H170        4.4463  -15.0405  -42.5894 H         1 UNK         0.0600 
    171 H171        4.8590  -14.4367  -44.9558 H         1 UNK         0.0600 
    172 H172        3.3259  -13.5853  -45.0462 H         1 UNK         0.0600 
    173 H173        4.6076  -12.9895  -43.9924 H         1 UNK         0.0600 
    174 H174        2.2595  -13.1653  -42.8097 H         1 UNK         0.3000 
    175 H175        0.6598  -14.0791  -39.7553 H         1 UNK         0.0600 
    176 H176        2.5992  -12.6725  -39.0424 H         1 UNK         0.0600 
    177 H177        2.3909  -11.6455  -40.4560 H         1 UNK         0.0600 
    178 H178        1.1409  -11.7089  -39.2131 H         1 UNK         0.0600 
    179 H179        0.2229  -11.9526  -41.6168 H         1 UNK         0.3000 
    180 H180       -1.8806  -13.7070  -43.8784 H         1 UNK         0.0600 
    181 H181       -2.5836  -11.6198  -41.7443 H         1 UNK         0.0600 
    182 H182       -3.3884  -13.1700  -41.9570 H         1 UNK         0.0600 
    183 H183       -3.4972  -11.9514  -43.2166 H         1 UNK         0.0600 
    184 H184       -1.2271  -10.9667  -43.7438 H         1 UNK         0.3000 
    185 H185        0.0759  -10.0843  -45.3867 H         1 UNK         0.0600 
    186 H186        1.5014  -10.0079  -43.3261 H         1 UNK         0.0600 
    187 H187        2.7372  -10.9698  -44.1282 H         1 UNK         0.0600 
    188 H188        2.3601   -9.3476  -44.7071 H         1 UNK         0.0600 
    189 H189        2.4777  -11.1610  -46.5483 H         1 UNK         0.3000 
    190 H190       -2.0930  -21.4504  -43.7762 H         1 UNK         0.3000 
    191 H191       -4.7522  -21.6855  -44.7224 H         1 UNK         0.0600 
    192 H192       -3.5973  -22.0881  -41.9082 H         1 UNK         0.0600 
    193 H193       -5.2977  -21.8354  -42.2834 H         1 UNK         0.0600 
    194 H194       -4.1366  -20.5561  -42.5977 H         1 UNK         0.0600 
    195 H195       -2.4216  -24.1713  -43.8871 H         1 UNK         0.3000 
    196 H196       -4.4954  -26.3193  -44.1365 H         1 UNK         0.0600 
    197 H197       -2.8006  -27.7571  -43.0205 H         1 UNK         0.0600 
    198 H198       -3.2328  -26.3930  -42.0008 H         1 UNK         0.0600 
    199 H199       -1.7023  -26.3891  -42.8749 H         1 UNK         0.0600 
    200 H200       -1.2481  -25.1937  -45.2141 H         1 UNK         0.3000 
    201 H201       -0.8023  -27.4467  -46.8964 H         1 UNK         0.0600 
    202 H202        1.0063  -26.1756  -45.7753 H         1 UNK         0.0600 
    203 H203        0.6553  -24.7596  -46.7613 H         1 UNK         0.0600 
    204 H204        1.2636  -26.2273  -47.5124 H         1 UNK         0.0600 
    205 H205       -2.2624  -24.2691  -47.6411 H         1 UNK         0.3000 
    206 H206       -1.8327  -24.6153  -50.5386 H         1 UNK         0.0600 
    207 H207       -1.5973  -22.3782  -49.3080 H         1 UNK         0.0600 
    208 H208       -2.6420  -22.3718  -50.7175 H         1 UNK         0.0600 
    209 H209       -3.3515  -22.3814  -49.1134 H         1 UNK         0.0600 
    210 H210       -3.6301  -24.4626  -52.0318 H         1 UNK         0.3000 
    211 H211       -5.9936  -26.0490  -51.1916 H         1 UNK         0.0600 
    212 H212       -6.3627  -26.2318  -53.6484 H         1 UNK         0.0600 
    213 H213       -4.7514  -26.7799  -53.2130 H         1 UNK         0.0600 
    214 H214       -4.9731  -25.1967  -53.9554 H         1 UNK         0.0600 
    215 H215       -5.0384  -22.8700  -52.4113 H         1 UNK         0.3000 
    216 H216       -6.0192  -20.9131  -52.7318 H         1 UNK         0.0600 
    217 H217       -7.7850  -20.1481  -51.2113 H         1 UNK         0.0600 
    218 H218       -6.6232  -21.1119  -50.3164 H         1 UNK         0.0600 
    219 H219       -8.1846  -21.8005  -50.7628 H         1 UNK         0.0600 
    220 H220       -6.7125  -23.1500  -54.4965 H         1 UNK         0.3000 
    221 H221       -9.4714  -22.8372  -55.3335 H         1 UNK         0.0600 
    222 H222       -7.1248  -24.3908  -56.5518 H         1 UNK         0.0600 
    223 H223       -8.2885  -25.0246  -55.3875 H         1 UNK         0.0600 
    224 H224       -8.8170  -24.5710  -56.9994 H         1 UNK         0.0600 
    225 H225       -6.6163  -21.0762  -56.0739 H         1 UNK         0.3000 
    226 H226       -7.8329  -19.5621  -58.2000 H         1 UNK         0.0600 
    227 H227       -6.9214  -21.5236  -59.5162 H         1 UNK         0.0600 
    228 H228       -6.0249  -20.0630  -59.8786 H         1 UNK         0.0600 
    229 H229       -5.3334  -21.2694  -58.7986 H         1 UNK         0.0600 
    230 H230       -6.0169  -17.9355  -58.9714 H         1 UNK         0.3000 
    231 H231       -5.1350  -16.4376  -56.7533 H         1 UNK         0.0600 
    232 H232       -5.6817  -15.4500  -58.9602 H         1 UNK         0.0600 
    233 H233       -4.3114  -16.2771  -59.7028 H         1 UNK         0.0600 
    234 H234       -4.0425  -15.0196  -58.5018 H         1 UNK         0.0600 
    235 H235       -3.4992  -18.9908  -58.4922 H         1 UNK         0.3000 
    236 H236       -0.8210  -18.4827  -57.4845 H         1 UNK         0.0600 
    237 H237       -0.3790  -20.7383  -58.4600 H         1 UNK         0.0600 
    238 H238       -2.1006  -20.9753  -58.7364 H         1 UNK         0.0600 
    239 H239       -1.2261  -19.7156  -59.6078 H         1 UNK         0.0600 
    240 H240       -3.6685  -19.6320  -56.0060 H         1 UNK         0.3000 
    241 H241       -4.2113  -20.4368  -54.1257 H         1 UNK         0.0600 
    242 H242       -3.0047  -23.9038  -55.4040 H         1 UNK         0.3800 
    243 H243       -2.8688  -22.4017  -56.2763 H         1 UNK         0.3800 
    244 H244       -1.5475  -20.6944  -52.7531 H         1 UNK         0.0800 
    245 H245       -1.9124  -19.1150  -53.3708 H         1 UNK         0.0800 
    246 H246       -2.9262  -17.3785  -51.9181 H         1 UNK         0.0800 
    247 H247       -3.4811  -17.7163  -50.2969 H         1 UNK         0.0800 
@<TRIPOS>BOND
     1    1    2 1    
     2    1  127 1    
     3    1  128 1    
     4    1  129 1    
     5    2    3 2    
     6    2    4 am   BACKBONE|DICT|INTERRES
     7    4    5 1    
     8    4  130 1    
     9    5    6 1    
    10    5   65 1    
    11    5  131 1    
    12    6    7 1    
    13    6  132 1    
    14    6  133 1    
    15    7    8 1    
    16    8    9 1    
    17    8  134 1    
    18    8  135 1    
    19    9   10 ar   
    20    9   14 ar   
    21   10   11 ar   
    22   10  136 1    
    23   11   12 ar   
    24   11  126 1    
    25   12   13 ar   
    26   12  137 1    
    27   13   14 ar   
    28   13   15 1    
    29   14  138 1    
    30   15   16 1    
    31   15  139 1    
    32   15  140 1    
    33   16   17 1    
    34   17   18 1    
    35   17  141 1    
    36   17  142 1    
    37   18   19 1    
    38   18   67 1    
    39   18  143 1    
    40   19   20 am   BACKBONE|DICT|INTERRES
    41   19  144 1    
    42   20   21 2    
    43   20   22 1    
    44   22   23 1    
    45   22   24 1    
    46   22  145 1    
    47   23  146 1    
    48   23  147 1    
    49   23  148 1    
    50   24   25 am   BACKBONE|DICT|INTERRES
    51   24  149 1    
    52   25   26 2    
    53   25   27 1    
    54   27   28 1    
    55   27   29 1    
    56   27  150 1    
    57   28  151 1    
    58   28  152 1    
    59   28  153 1    
    60   29   30 am   BACKBONE|DICT|INTERRES
    61   29  154 1    
    62   30   31 2    
    63   30   32 1    
    64   32   33 1    
    65   32   34 1    
    66   32  155 1    
    67   33  156 1    
    68   33  157 1    
    69   33  158 1    
    70   34   35 am   BACKBONE|DICT|INTERRES
    71   34  159 1    
    72   35   36 2    
    73   35   37 1    
    74   37   38 1    
    75   37   39 1    
    76   37  160 1    
    77   38  161 1    
    78   38  162 1    
    79   38  163 1    
    80   39   40 am   BACKBONE|DICT|INTERRES
    81   39  164 1    
    82   40   41 2    
    83   40   42 1    
    84   42   43 1    
    85   42   44 1    
    86   42  165 1    
    87   43  166 1    
    88   43  167 1    
    89   43  168 1    
    90   44   45 am   BACKBONE|DICT|INTERRES
    91   44  169 1    
    92   45   46 2    
    93   45   47 1    
    94   47   48 1    
    95   47   49 1    
    96   47  170 1    
    97   48  171 1    
    98   48  172 1    
    99   48  173 1    
   100   49   50 am   BACKBONE|DICT|INTERRES
   101   49  174 1    
   102   50   51 2    
   103   50   52 1    
   104   52   53 1    
   105   52   54 1    
   106   52  175 1    
   107   53  176 1    
   108   53  177 1    
   109   53  178 1    
   110   54   55 am   BACKBONE|DICT|INTERRES
   111   54  179 1    
   112   55   56 2    
   113   55   57 1    
   114   57   58 1    
   115   57   59 1    
   116   57  180 1    
   117   58  181 1    
   118   58  182 1    
   119   58  183 1    
   120   59   60 am   BACKBONE|DICT|INTERRES
   121   59  184 1    
   122   60   61 2    
   123   60   62 1    
   124   62   63 1    
   125   62   64 1    
   126   62  185 1    
   127   63  186 1    
   128   63  187 1    
   129   63  188 1    
   130   64   65 am   BACKBONE|DICT|INTERRES
   131   64  189 1    
   132   65   66 2    
   133   67   68 2    
   134   67   69 am   BACKBONE|DICT|INTERRES
   135   69   70 1    
   136   69  190 1    
   137   70   71 1    
   138   70   72 1    
   139   70  191 1    
   140   71  192 1    
   141   71  193 1    
   142   71  194 1    
   143   72   73 2    
   144   72   74 am   BACKBONE|DICT|INTERRES
   145   74   75 1    
   146   74  195 1    
   147   75   76 1    
   148   75   77 1    
   149   75  196 1    
   150   76  197 1    
   151   76  198 1    
   152   76  199 1    
   153   77   78 2    
   154   77   79 am   BACKBONE|DICT|INTERRES
   155   79   80 1    
   156   79  200 1    
   157   80   81 1    
   158   80   82 1    
   159   80  201 1    
   160   81  202 1    
   161   81  203 1    
   162   81  204 1    
   163   82   83 2    
   164   82   84 am   BACKBONE|DICT|INTERRES
   165   84   85 1    
   166   84  205 1    
   167   85   86 1    
   168   85   87 1    
   169   85  206 1    
   170   86  207 1    
   171   86  208 1    
   172   86  209 1    
   173   87   88 2    
   174   87   89 am   BACKBONE|DICT|INTERRES
   175   89   90 1    
   176   89  210 1    
   177   90   91 1    
   178   90   92 1    
   179   90  211 1    
   180   91  212 1    
   181   91  213 1    
   182   91  214 1    
   183   92   93 2    
   184   92   94 am   BACKBONE|DICT|INTERRES
   185   94   95 1    
   186   94  215 1    
   187   95   96 1    
   188   95   97 1    
   189   95  216 1    
   190   96  217 1    
   191   96  218 1    
   192   96  219 1    
   193   97   98 2    
   194   97   99 am   BACKBONE|DICT|INTERRES
   195   99  100 1    
   196   99  220 1    
   197  100  101 1    
   198  100  102 1    
   199  100  221 1    
   200  101  222 1    
   201  101  223 1    
   202  101  224 1    
   203  102  103 2    
   204  102  104 am   BACKBONE|DICT|INTERRES
   205  104  105 1    
   206  104  225 1    
   207  105  106 1    
   208  105  107 1    
   209  105  226 1    
   210  106  227 1    
   211  106  228 1    
   212  106  229 1    
   213  107  108 2    
   214  107  109 am   BACKBONE|DICT|INTERRES
   215  109  110 1    
   216  109  230 1    
   217  110  111 1    
   218  110  112 1    
   219  110  231 1    
   220  111  232 1    
   221  111  233 1    
   222  111  234 1    
   223  112  113 2    
   224  112  114 am   BACKBONE|DICT|INTERRES
   225  114  115 1    
   226  114  235 1    
   227  115  116 1    
   228  115  117 1    
   229  115  236 1    
   230  116  237 1    
   231  116  238 1    
   232  116  239 1    
   233  117  118 2    
   234  117  119 am   BACKBONE|DICT|INTERRES
   235  119  120 1    
   236  119  240 1    
   237  120  121 1    
   238  120  124 1    
   239  120  241 1    
   240  121  122 am   BACKBONE|DICT|INTERRES
   241  121  123 2    
   242  122  242 1    
   243  122  243 1    
   244  124  125 1    
   245  124  244 1    
   246  124  245 1    
   247  125  126 1    
   248  126  246 1    
   249  126  247 1    
@<TRIPOS>SUBSTRUCTURE
     1 UNK         1 GROUP             0       ****    0 ROOT    
