@<TRIPOS>MOLECULE
3R540
247   249    1
SMALL
USER_CHARGES


@<TRIPOS>ATOM
      1 CA         -4.8078  -15.8030  -46.7016 C.3       0 UNK        -0.1800 
      2 C          -3.8932  -14.5995  -46.5481 C.2       0 UNK         0.5000 
      3 O          -4.3175  -13.5781  -46.0078 O.2       0 UNK        -0.5000 
      4 N          -2.6455  -14.7227  -47.0092 N.am      1 UNK        -0.5000 
      5 CA         -1.6076  -13.6976  -46.9043 C.3       1 UNK         0.1400 
      6 C6         -0.9689  -13.3501  -48.2721 C.3       23 UNK        -0.0398 
      7 S7         -2.2079  -12.8469  -49.5175 S.3       23 UNK        -0.2404 
      8 C8         -1.9547  -14.0778  -50.8384 C.3       23 UNK        -0.0205 
      9 C9         -2.2068  -15.5100  -50.3839 C.ar      23 UNK        -0.0193 
     10 C10        -3.5121  -15.9855  -50.2244 C.ar      23 UNK        -0.1150 
     11 C11        -3.7498  -17.3181  -49.8641 C.ar      23 UNK        -0.0193 
     12 C12        -2.6589  -18.1644  -49.6375 C.ar      23 UNK        -0.1150 
     13 C13        -1.3484  -17.6987  -49.7807 C.ar      23 UNK        -0.0193 
     14 C14        -1.1307  -16.3733  -50.1608 C.ar      23 UNK        -0.1150 
     15 C15        -0.1669  -18.6410  -49.5961 C.3       23 UNK        -0.0205 
     16 S16         0.8259  -18.2905  -48.1057 S.3       23 UNK        -0.2404 
     17 C17        -0.3130  -18.6344  -46.7213 C.3       23 UNK        -0.0398 
     18 CA         -0.3894  -20.1392  -46.3476 C.3       11 UNK         0.1400 
     19 N          -0.5609  -20.3567  -44.9079 N.am      11 UNK        -0.5000 
     20 C          -0.5772  -21.5561  -44.3057 C.2       10 UNK         0.5000 
     21 O          -0.3824  -22.6212  -44.8875 O.2       10 UNK        -0.5000 
     22 CA         -0.9340  -21.5814  -42.8112 C.3       10 UNK         0.1400 
     23 CB          0.2942  -21.2678  -41.9446 C.3       10 UNK        -0.1800 
     24 N          -2.0266  -20.6618  -42.4943 N.am      10 UNK        -0.5000 
     25 C          -3.2884  -20.8149  -42.9227 C.2       9 UNK         0.5000 
     26 O          -3.6686  -21.7648  -43.6067 O.2       9 UNK        -0.5000 
     27 CA         -4.2861  -19.7038  -42.5517 C.3       9 UNK         0.1400 
     28 CB         -4.9172  -19.9812  -41.1794 C.3       9 UNK        -0.1800 
     29 N          -3.6741  -18.3748  -42.5435 N.am      9 UNK        -0.5000 
     30 C          -3.2380  -17.7388  -43.6392 C.2       8 UNK         0.5000 
     31 O          -3.3075  -18.2030  -44.7792 O.2       8 UNK        -0.5000 
     32 CA         -2.5584  -16.3768  -43.3990 C.3       8 UNK         0.1400 
     33 CB         -3.5914  -15.3020  -43.0262 C.3       8 UNK        -0.1800 
     34 N          -1.5222  -16.4087  -42.3620 N.am      8 UNK        -0.5000 
     35 C          -0.4631  -17.2264  -42.3558 C.2       7 UNK         0.5000 
     36 O          -0.2517  -18.0738  -43.2256 O.2       7 UNK        -0.5000 
     37 CA          0.4842  -17.1148  -41.1463 C.3       7 UNK         0.1400 
     38 CB         -0.1533  -17.7608  -39.9055 C.3       7 UNK        -0.1800 
     39 N           1.7489  -17.7921  -41.4245 N.am      7 UNK        -0.5000 
     40 C           2.7316  -17.2784  -42.1704 C.2       6 UNK         0.5000 
     41 O           2.7739  -16.1036  -42.5403 O.2       6 UNK        -0.5000 
     42 CA          3.8178  -18.2664  -42.6226 C.3       6 UNK         0.1400 
     43 CB          3.5286  -18.7521  -44.0514 C.3       6 UNK        -0.1800 
     44 N           5.1402  -17.6482  -42.5729 N.am      6 UNK        -0.5000 
     45 C           5.8546  -17.5135  -41.4465 C.2       5 UNK         0.5000 
     46 O           5.4870  -17.9487  -40.3540 O.2       5 UNK        -0.5000 
     47 CA          7.2113  -16.7885  -41.5411 C.3       5 UNK         0.1400 
     48 CB          8.3574  -17.8060  -41.6522 C.3       5 UNK        -0.1800 
     49 N           7.2962  -15.8577  -42.6648 N.am      5 UNK        -0.5000 
     50 C           6.6649  -14.6790  -42.7315 C.2       4 UNK         0.5000 
     51 O           5.9624  -14.2261  -41.8268 O.2       4 UNK        -0.5000 
     52 CA          6.8464  -13.8616  -44.0252 C.3       4 UNK         0.1400 
     53 CB          8.1365  -14.1994  -44.8066 C.3       4 UNK        -0.1800 
     54 N           5.6745  -13.9613  -44.8966 N.am      4 UNK        -0.5000 
     55 C           5.1452  -15.0659  -45.4396 C.2       3 UNK         0.5000 
     56 O           5.5779  -16.2053  -45.2502 O.2       3 UNK        -0.5000 
     57 CA          3.9137  -14.8396  -46.3394 C.3       3 UNK         0.1400 
     58 CB          3.7049  -15.9767  -47.3542 C.3       3 UNK        -0.1800 
     59 N           2.6917  -14.6773  -45.5568 N.am      3 UNK        -0.5000 
     60 C           2.3771  -13.6230  -44.7958 C.2       2 UNK         0.5000 
     61 O           3.0779  -12.6124  -44.7024 O.2       2 UNK        -0.5000 
     62 CA          1.0110  -13.6893  -44.0858 C.3       2 UNK         0.1400 
     63 CB          0.9211  -12.7381  -42.8805 C.3       2 UNK        -0.1800 
     64 N          -0.0625  -13.3722  -45.0264 N.am      2 UNK        -0.5000 
     65 C          -0.5386  -14.2269  -45.9386 C.2       1 UNK         0.5000 
     66 O          -0.1547  -15.3938  -46.0415 O.2       1 UNK        -0.5000 
     67 C          -1.4956  -20.8505  -47.1475 C.2       11 UNK         0.5000 
     68 O          -1.1896  -21.6326  -48.0478 O.2       11 UNK        -0.5000 
     69 N          -2.7583  -20.5973  -46.7698 N.am      12 UNK        -0.5000 
     70 CA         -3.9429  -21.2041  -47.3767 C.3       12 UNK         0.1400 
     71 CB         -5.2076  -20.6034  -46.7469 C.3       12 UNK        -0.1800 
     72 C          -3.9464  -22.7404  -47.2891 C.2       12 UNK         0.5000 
     73 O          -4.2315  -23.3965  -48.2911 O.2       12 UNK        -0.5000 
     74 N          -3.5847  -23.2797  -46.1168 N.am      13 UNK        -0.5000 
     75 CA         -3.4475  -24.7139  -45.8702 C.3       13 UNK         0.1400 
     76 CB         -3.2533  -24.9629  -44.3668 C.3       13 UNK        -0.1800 
     77 C          -2.3096  -25.3581  -46.6828 C.2       13 UNK         0.5000 
     78 O          -2.5309  -26.3965  -47.3060 O.2       13 UNK        -0.5000 
     79 N          -1.1244  -24.7307  -46.6789 N.am      14 UNK        -0.5000 
     80 CA          0.0723  -25.2073  -47.3774 C.3       14 UNK         0.1400 
     81 CB          1.2897  -24.3734  -46.9502 C.3       14 UNK        -0.1800 
     82 C          -0.0759  -25.1947  -48.9078 C.2       14 UNK         0.5000 
     83 O           0.3522  -26.1423  -49.5678 O.2       14 UNK        -0.5000 
     84 N          -0.6962  -24.1348  -49.4414 N.am      15 UNK        -0.5000 
     85 CA         -0.9855  -23.9832  -50.8671 C.3       15 UNK         0.1400 
     86 CB         -1.2218  -22.4939  -51.1640 C.3       15 UNK        -0.1800 
     87 C          -2.2004  -24.8062  -51.3361 C.2       15 UNK         0.5000 
     88 O          -2.4088  -24.9286  -52.5449 O.2       15 UNK        -0.5000 
     89 N          -3.0158  -25.2846  -50.3812 N.am      16 UNK        -0.5000 
     90 CA         -4.3433  -25.8873  -50.5626 C.3       16 UNK         0.1400 
     91 CB         -4.2204  -27.2814  -51.2099 C.3       16 UNK        -0.1800 
     92 C          -5.2964  -24.9463  -51.3329 C.2       16 UNK         0.5000 
     93 O          -6.0850  -25.3995  -52.1648 O.2       16 UNK        -0.5000 
     94 N          -5.1291  -23.6367  -51.0913 N.am      17 UNK        -0.5000 
     95 CA         -5.6237  -22.4690  -51.8288 C.3       17 UNK         0.1400 
     96 CB         -7.1576  -22.3683  -51.7498 C.3       17 UNK        -0.1800 
     97 C          -5.1340  -22.3749  -53.2918 C.2       17 UNK         0.5000 
     98 O          -4.6929  -21.3056  -53.7174 O.2       17 UNK        -0.5000 
     99 N          -5.2290  -23.4843  -54.0322 N.am      18 UNK        -0.5000 
    100 CA        -4.9945  -23.6146  -55.4679 C.3       18 UNK         0.1400 
    101 CB        -5.2591  -25.0685  -55.8865 C.3       18 UNK        -0.1800 
    102 C         -3.6044  -23.1630  -55.9434 C.2       18 UNK         0.5000 
    103 O         -3.5215  -22.4532  -56.9463 O.2       18 UNK        -0.5000 
    104 N         -2.5407  -23.5455  -55.2205 N.am      19 UNK        -0.5000 
    105 CA        -1.1559  -23.2346  -55.6014 C.3       19 UNK         0.1400 
    106 CB        -0.1854  -24.1062  -54.7922 C.3       19 UNK        -0.1800 
    107 C         -0.7958  -21.7424  -55.4568 C.2       19 UNK         0.5000 
    108 O          0.1453  -21.2814  -56.1032 O.2       19 UNK        -0.5000 
    109 N         -1.5596  -21.0164  -54.6315 N.am      20 UNK        -0.5000 
    110 CA        -1.4489  -19.5721  -54.4337 C.3       20 UNK         0.1400 
    111 CB        -1.7099  -19.2704  -52.9488 C.3       20 UNK        -0.1800 
    112 C         -2.4244  -18.7835  -55.3307 C.2       20 UNK         0.5000 
    113 O         -2.4059  -17.5530  -55.2910 O.2       20 UNK        -0.5000 
    114 N         -3.2752  -19.4932  -56.0926 N.am      21 UNK        -0.5000 
    115 CA        -4.4101  -18.9824  -56.8724 C.3       21 UNK         0.1400 
    116 CB        -3.9282  -18.1095  -58.0496 C.3       21 UNK        -0.1800 
    117 C         -5.4653  -18.2829  -55.9855 C.2       21 UNK         0.5000 
    118 O         -6.1019  -17.3181  -56.4127 O.2       21 UNK        -0.5000 
    119 N         -5.6137  -18.7841  -54.7536 N.am      22 UNK        -0.5000 
    120 CA        -6.4847  -18.2438  -53.7024 C.3       22 UNK         0.1400 
    121 C         -7.9621  -18.7329  -53.7947 C.2       22 UNK         0.5000 
    122 N         -8.2890  -19.7045  -54.6391 N.am      22 UNK        -0.7600 
    123 O         -8.8343  -18.2131  -53.1051 O.2       22 UNK        -0.5000 
    124 C124       -5.8538  -18.5294  -52.3146 C.3       23 UNK        -0.0398 
    125 S125       -6.3176  -17.3415  -51.0187 S.3       23 UNK        -0.2404 
    126 C126       -5.1730  -17.8498  -49.6927 C.3       23 UNK        -0.0205 
    127 H127       -4.2479  -16.6951  -46.9823 H         1 UNK         0.0600 
    128 H128       -5.3268  -16.0152  -45.7678 H         1 UNK         0.0600 
    129 H129       -5.5563  -15.5978  -47.4659 H         1 UNK         0.0600 
    130 H130       -2.3391  -15.5946  -47.4180 H         1 UNK         0.3000 
    131 H131       -2.0222  -12.7776  -46.4873 H         1 UNK         0.0600 
    132 H132       -0.3818  -14.1868  -48.6515 H         1 UNK         0.0800 
    133 H133       -0.2642  -12.5252  -48.1554 H         1 UNK         0.0800 
    134 H134       -2.6252  -13.8441  -51.6666 H         1 UNK         0.0800 
    135 H135       -0.9427  -13.9731  -51.2325 H         1 UNK         0.0800 
    136 H136       -4.3439  -15.3165  -50.3936 H         1 UNK         0.1150 
    137 H137       -2.8261  -19.1949  -49.3656 H         1 UNK         0.1150 
    138 H138       -0.1178  -16.0198  -50.2938 H         1 UNK         0.1150 
    139 H139       -0.4942  -19.6793  -49.5922 H         1 UNK         0.0800 
    140 H140        0.4863  -18.5482  -50.4648 H         1 UNK         0.0800 
    141 H141        0.0852  -18.0717  -45.8764 H         1 UNK         0.0800 
    142 H142       -1.2923  -18.1926  -46.9150 H         1 UNK         0.0800 
    143 H143        0.5597  -20.6119  -46.6093 H         1 UNK         0.0600 
    144 H144       -0.6780  -19.5250  -44.3339 H         1 UNK         0.3000 
    145 H145       -1.2679  -22.5917  -42.5653 H         1 UNK         0.0600 
    146 H146        0.0468  -21.2865  -40.8832 H         1 UNK         0.0600 
    147 H147        1.0798  -22.0065  -42.1083 H         1 UNK         0.0600 
    148 H148        0.7152  -20.2920  -42.1791 H         1 UNK         0.0600 
    149 H149       -1.7889  -19.8271  -41.9817 H         1 UNK         0.3000 
    150 H150       -5.0809  -19.7081  -43.3008 H         1 UNK         0.0600 
    151 H151       -5.3986  -20.9600  -41.1627 H         1 UNK         0.0600 
    152 H152       -5.6807  -19.2410  -40.9397 H         1 UNK         0.0600 
    153 H153       -4.1731  -19.9676  -40.3821 H         1 UNK         0.0600 
    154 H154       -3.5703  -17.9243  -41.6463 H         1 UNK         0.3000 
    155 H155       -2.0847  -16.0906  -44.3374 H         1 UNK         0.0600 
    156 H156       -3.1528  -14.3050  -43.0744 H         1 UNK         0.0600 
    157 H157       -3.9825  -15.4482  -42.0187 H         1 UNK         0.0600 
    158 H158       -4.4439  -15.3124  -43.7039 H         1 UNK         0.0600 
    159 H159       -1.6344  -15.7532  -41.6022 H         1 UNK         0.3000 
    160 H160        0.6735  -16.0586  -40.9427 H         1 UNK         0.0600 
    161 H161        0.5119  -17.6963  -39.0442 H         1 UNK         0.0600 
    162 H162       -0.3851  -18.8138  -40.0697 H         1 UNK         0.0600 
    163 H163       -1.0822  -17.2594  -39.6314 H         1 UNK         0.0600 
    164 H164        1.7881  -18.7700  -41.1811 H         1 UNK         0.3000 
    165 H165        3.8092  -19.1373  -41.9633 H         1 UNK         0.0600 
    166 H166        4.2906  -19.4512  -44.3958 H         1 UNK         0.0600 
    167 H167        2.5661  -19.2637  -44.1030 H         1 UNK         0.0600 
    168 H168        3.4912  -17.9211  -44.7549 H         1 UNK         0.0600 
    169 H169        5.4657  -17.2039  -43.4252 H         1 UNK         0.3000 
    170 H170        7.3469  -16.2234  -40.6165 H         1 UNK         0.0600 
    171 H171        8.3450  -18.5020  -40.8124 H         1 UNK         0.0600 
    172 H172        8.2853  -18.3947  -42.5676 H         1 UNK         0.0600 
    173 H173        9.3281  -17.3097  -41.6467 H         1 UNK         0.0600 
    174 H174        7.8239  -16.1638  -43.4695 H         1 UNK         0.3000 
    175 H175        6.9156  -12.8168  -43.7188 H         1 UNK         0.0600 
    176 H176        8.1240  -15.2079  -45.2207 H         1 UNK         0.0600 
    177 H177        8.2770  -13.5077  -45.6373 H         1 UNK         0.0600 
    178 H178        9.0157  -14.1136  -44.1668 H         1 UNK         0.0600 
    179 H179        5.1511  -13.1017  -45.0177 H         1 UNK         0.3000 
    180 H180        4.0814  -13.9227  -46.9083 H         1 UNK         0.0600 
    181 H181        3.4721  -16.9225  -46.8655 H         1 UNK         0.0600 
    182 H182        4.5998  -16.1308  -47.9580 H         1 UNK         0.0600 
    183 H183        2.8869  -15.7477  -48.0378 H         1 UNK         0.0600 
    184 H184        2.0168  -15.4302  -45.6144 H         1 UNK         0.3000 
    185 H185        0.8687  -14.7058  -43.7140 H         1 UNK         0.0600 
    186 H186        1.7139  -12.9502  -42.1618 H         1 UNK         0.0600 
    187 H187        1.0162  -11.6932  -43.1781 H         1 UNK         0.0600 
    188 H188       -0.0291  -12.8538  -42.3589 H         1 UNK         0.0600 
    189 H189       -0.4007  -12.4207  -45.0124 H         1 UNK         0.3000 
    190 H190       -2.9195  -19.9428  -46.0119 H         1 UNK         0.3000 
    191 H191       -3.9410  -20.9464  -48.4366 H         1 UNK         0.0600 
    192 H192       -6.1063  -21.0072  -47.2148 H         1 UNK         0.0600 
    193 H193       -5.2332  -19.5204  -46.8708 H         1 UNK         0.0600 
    194 H194       -5.2671  -20.8176  -45.6796 H         1 UNK         0.0600 
    195 H195       -3.4054  -22.6649  -45.3282 H         1 UNK         0.3000 
    196 H196       -4.3814  -25.1928  -46.1721 H         1 UNK         0.0600 
    197 H197       -3.1590  -26.0287  -44.1552 H         1 UNK         0.0600 
    198 H198       -4.1030  -24.5914  -43.7937 H         1 UNK         0.0600 
    199 H199       -2.3563  -24.4713  -43.9892 H         1 UNK         0.0600 
    200 H200       -1.0113  -23.8863  -46.1221 H         1 UNK         0.3000 
    201 H201        0.2468  -26.2408  -47.0710 H         1 UNK         0.0600 
    202 H202        1.4676  -24.4575  -45.8781 H         1 UNK         0.0600 
    203 H203        1.1548  -23.3167  -47.1855 H         1 UNK         0.0600 
    204 H204        2.1945  -24.7113  -47.4569 H         1 UNK         0.0600 
    205 H205       -0.9754  -23.3661  -48.8354 H         1 UNK         0.3000 
    206 H206       -0.1173  -24.3171  -51.4379 H         1 UNK         0.0600 
    207 H207       -0.3479  -21.8966  -50.9041 H         1 UNK         0.0600 
    208 H208       -1.4228  -22.3326  -52.2218 H         1 UNK         0.0600 
    209 H209       -2.0743  -22.1016  -50.6081 H         1 UNK         0.0600 
    210 H210       -2.7554  -25.1083  -49.4198 H         1 UNK         0.3000 
    211 H211       -4.7675  -26.0132  -49.5655 H         1 UNK         0.0600 
    212 H212       -3.8520  -27.2214  -52.2345 H         1 UNK         0.0600 
    213 H213       -5.1869  -27.7857  -51.2384 H         1 UNK         0.0600 
    214 H214       -3.5391  -27.9176  -50.6450 H         1 UNK         0.0600 
    215 H215       -4.5048  -23.4190  -50.3215 H         1 UNK         0.3000 
    216 H216       -5.2073  -21.6061  -51.3078 H         1 UNK         0.0600 
    217 H217       -7.6479  -23.2188  -52.2238 H         1 UNK         0.0600 
    218 H218       -7.5200  -21.4697  -52.2493 H         1 UNK         0.0600 
    219 H219       -7.4945  -22.3227  -50.7142 H         1 UNK         0.0600 
    220 H220       -5.5823  -24.3120  -53.5581 H         1 UNK         0.3000 
    221 H221       -5.7288  -22.9805  -55.9684 H         1 UNK         0.0600 
    222 H222       -4.5934  -25.7616  -55.3700 H         1 UNK         0.0600 
    223 H223       -6.2849  -25.3622  -55.6632 H         1 UNK         0.0600 
    224 H224       -5.1088  -25.2029  -56.9586 H         1 UNK         0.0600 
    225 H225       -2.6742  -24.1030  -54.3811 H         1 UNK         0.3000 
    226 H226       -1.0349  -23.4957  -56.6549 H         1 UNK         0.0600 
    227 H227       -0.4412  -25.1633  -54.8675 H         1 UNK         0.0600 
    228 H228        0.8361  -23.9909  -55.1566 H         1 UNK         0.0600 
    229 H229       -0.1854  -23.8329  -53.7389 H         1 UNK         0.0600 
    230 H230       -2.3369  -21.4716  -54.1718 H         1 UNK         0.3000 
    231 H231       -0.4396  -19.2338  -54.6762 H         1 UNK         0.0600 
    232 H232       -2.6832  -19.6394  -52.6253 H         1 UNK         0.0600 
    233 H233       -1.6815  -18.1983  -52.7497 H         1 UNK         0.0600 
    234 H234       -0.9522  -19.7342  -52.3185 H         1 UNK         0.0600 
    235 H235       -3.1886  -20.5021  -56.0819 H         1 UNK         0.3000 
    236 H236       -4.9043  -19.8584  -57.2947 H         1 UNK         0.0600 
    237 H237       -3.1846  -18.6341  -58.6496 H         1 UNK         0.0600 
    238 H238       -4.7570  -17.8553  -58.7113 H         1 UNK         0.0600 
    239 H239       -3.4854  -17.1736  -57.7083 H         1 UNK         0.0600 
    240 H240       -5.0870  -19.6149  -54.4978 H         1 UNK         0.3000 
    241 H241       -6.5156  -17.1607  -53.8355 H         1 UNK         0.0600 
    242 H242       -7.5902  -20.1275  -55.2275 H         1 UNK         0.3800 
    243 H243       -9.2489  -20.0052  -54.7016 H         1 UNK         0.3800 
    244 H244       -6.0956  -19.5350  -51.9751 H         1 UNK         0.0800 
    245 H245       -4.7662  -18.4908  -52.3899 H         1 UNK         0.0800 
    246 H246       -5.1718  -18.9389  -49.6296 H         1 UNK         0.0800 
    247 H247       -5.5765  -17.5008  -48.7454 H         1 UNK         0.0800 
@<TRIPOS>BOND
     1    1    2 1    
     2    1  127 1    
     3    1  128 1    
     4    1  129 1    
     5    2    3 2    
     6    2    4 am   BACKBONE|DICT|INTERRES
     7    4    5 1    
     8    4  130 1    
     9    5    6 1    
    10    5   65 1    
    11    5  131 1    
    12    6    7 1    
    13    6  132 1    
    14    6  133 1    
    15    7    8 1    
    16    8    9 1    
    17    8  134 1    
    18    8  135 1    
    19    9   10 ar   
    20    9   14 ar   
    21   10   11 ar   
    22   10  136 1    
    23   11   12 ar   
    24   11  126 1    
    25   12   13 ar   
    26   12  137 1    
    27   13   14 ar   
    28   13   15 1    
    29   14  138 1    
    30   15   16 1    
    31   15  139 1    
    32   15  140 1    
    33   16   17 1    
    34   17   18 1    
    35   17  141 1    
    36   17  142 1    
    37   18   19 1    
    38   18   67 1    
    39   18  143 1    
    40   19   20 am   BACKBONE|DICT|INTERRES
    41   19  144 1    
    42   20   21 2    
    43   20   22 1    
    44   22   23 1    
    45   22   24 1    
    46   22  145 1    
    47   23  146 1    
    48   23  147 1    
    49   23  148 1    
    50   24   25 am   BACKBONE|DICT|INTERRES
    51   24  149 1    
    52   25   26 2    
    53   25   27 1    
    54   27   28 1    
    55   27   29 1    
    56   27  150 1    
    57   28  151 1    
    58   28  152 1    
    59   28  153 1    
    60   29   30 am   BACKBONE|DICT|INTERRES
    61   29  154 1    
    62   30   31 2    
    63   30   32 1    
    64   32   33 1    
    65   32   34 1    
    66   32  155 1    
    67   33  156 1    
    68   33  157 1    
    69   33  158 1    
    70   34   35 am   BACKBONE|DICT|INTERRES
    71   34  159 1    
    72   35   36 2    
    73   35   37 1    
    74   37   38 1    
    75   37   39 1    
    76   37  160 1    
    77   38  161 1    
    78   38  162 1    
    79   38  163 1    
    80   39   40 am   BACKBONE|DICT|INTERRES
    81   39  164 1    
    82   40   41 2    
    83   40   42 1    
    84   42   43 1    
    85   42   44 1    
    86   42  165 1    
    87   43  166 1    
    88   43  167 1    
    89   43  168 1    
    90   44   45 am   BACKBONE|DICT|INTERRES
    91   44  169 1    
    92   45   46 2    
    93   45   47 1    
    94   47   48 1    
    95   47   49 1    
    96   47  170 1    
    97   48  171 1    
    98   48  172 1    
    99   48  173 1    
   100   49   50 am   BACKBONE|DICT|INTERRES
   101   49  174 1    
   102   50   51 2    
   103   50   52 1    
   104   52   53 1    
   105   52   54 1    
   106   52  175 1    
   107   53  176 1    
   108   53  177 1    
   109   53  178 1    
   110   54   55 am   BACKBONE|DICT|INTERRES
   111   54  179 1    
   112   55   56 2    
   113   55   57 1    
   114   57   58 1    
   115   57   59 1    
   116   57  180 1    
   117   58  181 1    
   118   58  182 1    
   119   58  183 1    
   120   59   60 am   BACKBONE|DICT|INTERRES
   121   59  184 1    
   122   60   61 2    
   123   60   62 1    
   124   62   63 1    
   125   62   64 1    
   126   62  185 1    
   127   63  186 1    
   128   63  187 1    
   129   63  188 1    
   130   64   65 am   BACKBONE|DICT|INTERRES
   131   64  189 1    
   132   65   66 2    
   133   67   68 2    
   134   67   69 am   BACKBONE|DICT|INTERRES
   135   69   70 1    
   136   69  190 1    
   137   70   71 1    
   138   70   72 1    
   139   70  191 1    
   140   71  192 1    
   141   71  193 1    
   142   71  194 1    
   143   72   73 2    
   144   72   74 am   BACKBONE|DICT|INTERRES
   145   74   75 1    
   146   74  195 1    
   147   75   76 1    
   148   75   77 1    
   149   75  196 1    
   150   76  197 1    
   151   76  198 1    
   152   76  199 1    
   153   77   78 2    
   154   77   79 am   BACKBONE|DICT|INTERRES
   155   79   80 1    
   156   79  200 1    
   157   80   81 1    
   158   80   82 1    
   159   80  201 1    
   160   81  202 1    
   161   81  203 1    
   162   81  204 1    
   163   82   83 2    
   164   82   84 am   BACKBONE|DICT|INTERRES
   165   84   85 1    
   166   84  205 1    
   167   85   86 1    
   168   85   87 1    
   169   85  206 1    
   170   86  207 1    
   171   86  208 1    
   172   86  209 1    
   173   87   88 2    
   174   87   89 am   BACKBONE|DICT|INTERRES
   175   89   90 1    
   176   89  210 1    
   177   90   91 1    
   178   90   92 1    
   179   90  211 1    
   180   91  212 1    
   181   91  213 1    
   182   91  214 1    
   183   92   93 2    
   184   92   94 am   BACKBONE|DICT|INTERRES
   185   94   95 1    
   186   94  215 1    
   187   95   96 1    
   188   95   97 1    
   189   95  216 1    
   190   96  217 1    
   191   96  218 1    
   192   96  219 1    
   193   97   98 2    
   194   97   99 am   BACKBONE|DICT|INTERRES
   195   99  100 1    
   196   99  220 1    
   197  100  101 1    
   198  100  102 1    
   199  100  221 1    
   200  101  222 1    
   201  101  223 1    
   202  101  224 1    
   203  102  103 2    
   204  102  104 am   BACKBONE|DICT|INTERRES
   205  104  105 1    
   206  104  225 1    
   207  105  106 1    
   208  105  107 1    
   209  105  226 1    
   210  106  227 1    
   211  106  228 1    
   212  106  229 1    
   213  107  108 2    
   214  107  109 am   BACKBONE|DICT|INTERRES
   215  109  110 1    
   216  109  230 1    
   217  110  111 1    
   218  110  112 1    
   219  110  231 1    
   220  111  232 1    
   221  111  233 1    
   222  111  234 1    
   223  112  113 2    
   224  112  114 am   BACKBONE|DICT|INTERRES
   225  114  115 1    
   226  114  235 1    
   227  115  116 1    
   228  115  117 1    
   229  115  236 1    
   230  116  237 1    
   231  116  238 1    
   232  116  239 1    
   233  117  118 2    
   234  117  119 am   BACKBONE|DICT|INTERRES
   235  119  120 1    
   236  119  240 1    
   237  120  121 1    
   238  120  124 1    
   239  120  241 1    
   240  121  122 am   BACKBONE|DICT|INTERRES
   241  121  123 2    
   242  122  242 1    
   243  122  243 1    
   244  124  125 1    
   245  124  244 1    
   246  124  245 1    
   247  125  126 1    
   248  126  246 1    
   249  126  247 1    
@<TRIPOS>SUBSTRUCTURE
     1 UNK         1 GROUP             0       ****    0 ROOT    
