@<TRIPOS>MOLECULE
3R540
247   249    1
SMALL
USER_CHARGES


@<TRIPOS>ATOM
      1 CA         -0.4535  -12.1541  -47.3191 C.3       0 UNK        -0.1800 
      2 C           1.0434  -12.3389  -47.5266 C.2       0 UNK         0.5000 
      3 O           1.7285  -12.8059  -46.6190 O.2       0 UNK        -0.5000 
      4 N           1.5448  -11.9672  -48.7130 N.am      1 UNK        -0.5000 
      5 CA          2.9556  -11.9845  -49.1290 C.3       1 UNK         0.1400 
      6 C6          3.4402  -13.3856  -49.6276 C.3       23 UNK        -0.0398 
      7 S7          3.9051  -14.6203  -48.3590 S.3       23 UNK        -0.2404 
      8 C8          2.3941  -15.6171  -48.2002 C.3       23 UNK        -0.0205 
      9 C9          2.4847  -16.9261  -48.9652 C.ar      23 UNK        -0.0193 
     10 C10         1.8035  -17.0964  -50.1742 C.ar      23 UNK        -0.1150 
     11 C11         1.8815  -18.3103  -50.8649 C.ar      23 UNK        -0.0193 
     12 C12         2.6525  -19.3518  -50.3413 C.ar      23 UNK        -0.1150 
     13 C13         3.3236  -19.1983  -49.1247 C.ar      23 UNK        -0.0193 
     14 C14         3.2343  -17.9828  -48.4414 C.ar      23 UNK        -0.1150 
     15 C15         4.1458  -20.3419  -48.5463 C.3       23 UNK        -0.0205 
     16 S16         3.1493  -21.8337  -48.2306 S.3       23 UNK        -0.2404 
     17 C17         1.8917  -21.1913  -47.0748 C.3       23 UNK        -0.0398 
     18 CA          0.8745  -22.2721  -46.6415 C.3       11 UNK         0.1400 
     19 N           0.1290  -21.8659  -45.4494 N.am      11 UNK        -0.5000 
     20 C          -0.6717  -22.6683  -44.7353 C.2       10 UNK         0.5000 
     21 O          -0.8438  -23.8613  -44.9855 O.2       10 UNK        -0.5000 
     22 CA         -1.4440  -22.0173  -43.5729 C.3       10 UNK         0.1400 
     23 CB         -0.5384  -21.8283  -42.3470 C.3       10 UNK        -0.1800 
     24 N          -2.0447  -20.7354  -43.9454 N.am      10 UNK        -0.5000 
     25 C          -2.9988  -20.5937  -44.8772 C.2       9 UNK         0.5000 
     26 O          -3.4975  -21.5331  -45.4954 O.2       9 UNK        -0.5000 
     27 CA         -3.4412  -19.1590  -45.2091 C.3       9 UNK         0.1400 
     28 CB         -4.4286  -18.6357  -44.1557 C.3       9 UNK        -0.1800 
     29 N          -2.3151  -18.2347  -45.3312 N.am      9 UNK        -0.5000 
     30 C          -1.3356  -18.3395  -46.2410 C.2       8 UNK         0.5000 
     31 O          -1.2838  -19.2191  -47.0979 O.2       8 UNK        -0.5000 
     32 CA         -0.1897  -17.3213  -46.1399 C.3       8 UNK         0.1400 
     33 CB         -0.6412  -15.9509  -46.6666 C.3       8 UNK        -0.1800 
     34 N           0.3116  -17.1892  -44.7720 N.am      8 UNK        -0.5000 
     35 C           0.8361  -18.1905  -44.0501 C.2       7 UNK         0.5000 
     36 O           1.0104  -19.3290  -44.4821 O.2       7 UNK        -0.5000 
     37 CA          1.1766  -17.8858  -42.5833 C.3       7 UNK         0.1400 
     38 CB          2.5738  -17.2683  -42.4622 C.3       7 UNK        -0.1800 
     39 N           0.1937  -16.9930  -41.9750 N.am      7 UNK        -0.5000 
     40 C          -1.0469  -17.3632  -41.6320 C.2       6 UNK         0.5000 
     41 O          -1.4798  -18.5098  -41.7568 O.2       6 UNK        -0.5000 
     42 CA         -1.9665  -16.2484  -41.1002 C.3       6 UNK         0.1400 
     43 CB         -1.6671  -15.9513  -39.6232 C.3       6 UNK        -0.1800 
     44 N          -1.8568  -15.0120  -41.8785 N.am      6 UNK        -0.5000 
     45 C          -2.2420  -14.8979  -43.1565 C.2       5 UNK         0.5000 
     46 O          -2.7441  -15.8183  -43.8004 O.2       5 UNK        -0.5000 
     47 CA         -2.0097  -13.5418  -43.8469 C.3       5 UNK         0.1400 
     48 CB         -3.2131  -12.6145  -43.6227 C.3       5 UNK        -0.1800 
     49 N          -0.7823  -12.8367  -43.4647 N.am      5 UNK        -0.5000 
     50 C           0.4645  -13.3225  -43.5431 C.2       4 UNK         0.5000 
     51 O           0.7267  -14.5058  -43.7715 O.2       4 UNK        -0.5000 
     52 CA          1.5865  -12.2845  -43.3579 C.3       4 UNK         0.1400 
     53 CB          1.7164  -11.8196  -41.8928 C.3       4 UNK        -0.1800 
     54 N           2.8545  -12.7366  -43.9412 N.am      4 UNK        -0.5000 
     55 C           3.7942  -13.5386  -43.4210 C.2       3 UNK         0.5000 
     56 O           3.8057  -13.9388  -42.2565 O.2       3 UNK        -0.5000 
     57 CA          4.9331  -13.9772  -44.3631 C.3       3 UNK         0.1400 
     58 CB          4.7033  -15.4155  -44.8529 C.3       3 UNK        -0.1800 
     59 N           5.1091  -13.1071  -45.5290 N.am      3 UNK        -0.5000 
     60 C           5.7820  -11.9466  -45.5189 C.2       2 UNK         0.5000 
     61 O           6.2464  -11.4420  -44.4959 O.2       2 UNK        -0.5000 
     62 CA          6.0135  -11.2433  -46.8739 C.3       2 UNK         0.1400 
     63 CB          7.4587  -11.4649  -47.3477 C.3       2 UNK        -0.1800 
     64 N           5.1038  -11.7207  -47.9166 N.am      2 UNK        -0.5000 
     65 C           3.8763  -11.2325  -48.1286 C.2       1 UNK         0.5000 
     66 O           3.4572  -10.2133  -47.5728 O.2       1 UNK        -0.5000 
     67 C          -0.0693  -22.6790  -47.7929 C.2       11 UNK         0.5000 
     68 O           0.1331  -23.7330  -48.3954 O.2       11 UNK        -0.5000 
     69 N          -1.1124  -21.8747  -48.0434 N.am      12 UNK        -0.5000 
     70 CA         -2.1464  -22.1513  -49.0392 C.3       12 UNK         0.1400 
     71 CB         -3.0793  -20.9397  -49.1737 C.3       12 UNK        -0.1800 
     72 C          -2.9381  -23.4331  -48.7255 C.2       12 UNK         0.5000 
     73 O          -3.1819  -24.2235  -49.6352 O.2       12 UNK        -0.5000 
     74 N          -3.2818  -23.6505  -47.4481 N.am      13 UNK        -0.5000 
     75 CA         -3.9236  -24.8737  -46.9639 C.3       13 UNK         0.1400 
     76 CB         -4.3571  -24.6958  -45.5018 C.3       13 UNK        -0.1800 
     77 C          -3.0363  -26.1197  -47.1321 C.2       13 UNK         0.5000 
     78 O          -3.5297  -27.1482  -47.5950 O.2       13 UNK        -0.5000 
     79 N          -1.7405  -25.9973  -46.8093 N.am      14 UNK        -0.5000 
     80 CA         -0.7341  -27.0457  -47.0040 C.3       14 UNK         0.1400 
     81 CB          0.5813  -26.6288  -46.3287 C.3       14 UNK        -0.1800 
     82 C          -0.5041  -27.3919  -48.4890 C.2       14 UNK         0.5000 
     83 O          -0.3187  -28.5635  -48.8198 O.2       14 UNK        -0.5000 
     84 N          -0.5606  -26.3741  -49.3578 N.am      15 UNK        -0.5000 
     85 CA         -0.4913  -26.4979  -50.8153 C.3       15 UNK         0.1400 
     86 CB         -0.1199  -25.1278  -51.4069 C.3       15 UNK        -0.1800 
     87 C          -1.7934  -27.0228  -51.4585 C.2       15 UNK         0.5000 
     88 O          -1.7835  -27.3294  -52.6514 O.2       15 UNK        -0.5000 
     89 N          -2.8823  -27.0991  -50.6769 N.am      16 UNK        -0.5000 
     90 CA         -4.2508  -27.4459  -51.0759 C.3       16 UNK         0.1400 
     91 CB         -4.3378  -28.9116  -51.5501 C.3       16 UNK        -0.1800 
     92 C          -4.8430  -26.4370  -52.0843 C.2       16 UNK         0.5000 
     93 O          -5.5253  -26.8277  -53.0334 O.2       16 UNK        -0.5000 
     94 N          -4.5615  -25.1505  -51.8515 N.am      17 UNK        -0.5000 
     95 CA         -4.9518  -24.0143  -52.6817 C.3       17 UNK         0.1400 
     96 CB         -3.7696  -23.6252  -53.5841 C.3       17 UNK        -0.1800 
     97 C          -5.4508  -22.8474  -51.8081 C.2       17 UNK         0.5000 
     98 O          -5.2622  -21.6801  -52.1620 O.2       17 UNK        -0.5000 
     99 N          -6.0853  -23.1829  -50.6750 N.am      18 UNK        -0.5000 
    100 CA        -6.8128  -22.2520  -49.8116 C.3       18 UNK         0.1400 
    101 CB        -7.1590  -22.9502  -48.4889 C.3       18 UNK        -0.1800 
    102 C         -8.0829  -21.7341  -50.5106 C.2       18 UNK         0.5000 
    103 O         -8.6255  -22.4202  -51.3802 O.2       18 UNK        -0.5000 
    104 N         -8.5020  -20.5106  -50.1584 N.am      19 UNK        -0.5000 
    105 CA        -9.5716  -19.6990  -50.7692 C.3       19 UNK         0.1400 
    106 CB       -10.9356  -20.4152  -50.7385 C.3       19 UNK        -0.1800 
    107 C         -9.2293  -19.1901  -52.1867 C.2       19 UNK         0.5000 
    108 O         -9.5428  -18.0448  -52.5114 O.2       19 UNK        -0.5000 
    109 N         -8.5343  -20.0176  -52.9776 N.am      20 UNK        -0.5000 
    110 CA        -7.8873  -19.6628  -54.2411 C.3       20 UNK         0.1400 
    111 CB        -7.5393  -20.9557  -54.9961 C.3       20 UNK        -0.1800 
    112 C         -6.6237  -18.7972  -54.0475 C.2       20 UNK         0.5000 
    113 O         -6.1396  -18.2228  -55.0230 O.2       20 UNK        -0.5000 
    114 N         -6.1077  -18.7334  -52.8087 N.am      21 UNK        -0.5000 
    115 CA        -4.9575  -17.9464  -52.3509 C.3       21 UNK         0.1400 
    116 CB        -5.3052  -16.4436  -52.3505 C.3       21 UNK        -0.1800 
    117 C         -3.6745  -18.2728  -53.1394 C.2       21 UNK         0.5000 
    118 O         -3.0368  -17.3745  -53.6915 O.2       21 UNK        -0.5000 
    119 N         -3.3622  -19.5727  -53.2063 N.am      22 UNK        -0.5000 
    120 CA        -2.2747  -20.1773  -53.9976 C.3       22 UNK         0.1400 
    121 C         -2.5801  -20.3018  -55.5219 C.2       22 UNK         0.5000 
    122 N         -3.7233  -19.8522  -56.0270 N.am      22 UNK        -0.7600 
    123 O         -1.7721  -20.8514  -56.2652 O.2       22 UNK        -0.5000 
    124 C124       -0.8642  -19.5649  -53.7538 C.3       23 UNK        -0.0398 
    125 S125       -0.3550  -19.4987  -52.0026 S.3       23 UNK        -0.2404 
    126 C126        1.1544  -18.4967  -52.1869 C.3       23 UNK        -0.0205 
    127 H127       -0.9002  -11.5535  -48.1116 H         1 UNK         0.0600 
    128 H128       -0.6415  -11.6539  -46.3691 H         1 UNK         0.0600 
    129 H129       -0.9549  -13.1207  -47.3010 H         1 UNK         0.0600 
    130 H130        0.9132  -11.5676  -49.3924 H         1 UNK         0.3000 
    131 H131        2.9678  -11.3450  -50.0129 H         1 UNK         0.0600 
    132 H132        4.3137  -13.2494  -50.2669 H         1 UNK         0.0800 
    133 H133        2.6864  -13.8222  -50.2840 H         1 UNK         0.0800 
    134 H134        2.2441  -15.8314  -47.1424 H         1 UNK         0.0800 
    135 H135        1.5255  -15.0427  -48.5214 H         1 UNK         0.0800 
    136 H136        1.2134  -16.2854  -50.5771 H         1 UNK         0.1150 
    137 H137        2.7167  -20.2906  -50.8736 H         1 UNK         0.1150 
    138 H138        3.7511  -17.8524  -47.5007 H         1 UNK         0.1150 
    139 H139        4.9447  -20.5920  -49.2455 H         1 UNK         0.0800 
    140 H140        4.6330  -20.0407  -47.6176 H         1 UNK         0.0800 
    141 H141        1.3795  -20.3339  -47.5153 H         1 UNK         0.0800 
    142 H142        2.4242  -20.8117  -46.2019 H         1 UNK         0.0800 
    143 H143        1.4392  -23.1633  -46.3586 H         1 UNK         0.0600 
    144 H144        0.2463  -20.8999  -45.1525 H         1 UNK         0.3000 
    145 H145       -2.2537  -22.6946  -43.2934 H         1 UNK         0.0600 
    146 H146       -1.0980  -21.4262  -41.5022 H         1 UNK         0.0600 
    147 H147       -0.1081  -22.7791  -42.0302 H         1 UNK         0.0600 
    148 H148        0.2870  -21.1475  -42.5546 H         1 UNK         0.0600 
    149 H149       -1.7034  -19.9119  -43.4642 H         1 UNK         0.3000 
    150 H150       -3.9541  -19.1851  -46.1726 H         1 UNK         0.0600 
    151 H151       -5.2785  -19.3105  -44.0458 H         1 UNK         0.0600 
    152 H152       -4.8229  -17.6593  -44.4376 H         1 UNK         0.0600 
    153 H153       -3.9578  -18.5350  -43.1770 H         1 UNK         0.0600 
    154 H154       -2.3019  -17.4511  -44.6833 H         1 UNK         0.3000 
    155 H155        0.6362  -17.6789  -46.7571 H         1 UNK         0.0600 
    156 H156       -0.7760  -15.9799  -47.7483 H         1 UNK         0.0600 
    157 H157        0.0908  -15.1757  -46.4438 H         1 UNK         0.0600 
    158 H158       -1.5903  -15.6401  -46.2324 H         1 UNK         0.0600 
    159 H159        0.2653  -16.2645  -44.3519 H         1 UNK         0.3000 
    160 H160        1.1754  -18.8300  -42.0346 H         1 UNK         0.0600 
    161 H161        2.6230  -16.3073  -42.9719 H         1 UNK         0.0600 
    162 H162        3.3294  -17.9186  -42.9047 H         1 UNK         0.0600 
    163 H163        2.8484  -17.1084  -41.4196 H         1 UNK         0.0600 
    164 H164        0.4449  -16.0158  -41.9186 H         1 UNK         0.3000 
    165 H165       -2.9962  -16.6054  -41.1736 H         1 UNK         0.0600 
    166 H166       -2.3691  -15.2224  -39.2179 H         1 UNK         0.0600 
    167 H167       -1.7536  -16.8552  -39.0187 H         1 UNK         0.0600 
    168 H168       -0.6587  -15.5592  -39.4855 H         1 UNK         0.0600 
    169 H169       -1.4444  -14.2113  -41.4231 H         1 UNK         0.3000 
    170 H170       -1.9381  -13.7364  -44.9177 H         1 UNK         0.0600 
    171 H171       -4.1433  -13.1011  -43.9198 H         1 UNK         0.0600 
    172 H172       -3.3117  -12.3298  -42.5744 H         1 UNK         0.0600 
    173 H173       -3.1244  -11.7021  -44.2127 H         1 UNK         0.0600 
    174 H174       -0.8969  -11.8587  -43.2422 H         1 UNK         0.3000 
    175 H175        1.3078  -11.4136  -43.9532 H         1 UNK         0.0600 
    176 H176        1.8360  -12.6581  -41.2063 H         1 UNK         0.0600 
    177 H177        2.5673  -11.1508  -41.7627 H         1 UNK         0.0600 
    178 H178        0.8262  -11.2747  -41.5776 H         1 UNK         0.0600 
    179 H179        2.9075  -12.5787  -44.9422 H         1 UNK         0.3000 
    180 H180        5.8598  -13.9672  -43.7853 H         1 UNK         0.0600 
    181 H181        3.7182  -15.5330  -45.3051 H         1 UNK         0.0600 
    182 H182        4.7727  -16.1200  -44.0245 H         1 UNK         0.0600 
    183 H183        5.4508  -15.7126  -45.5887 H         1 UNK         0.0600 
    184 H184        4.7230  -13.4412  -46.4018 H         1 UNK         0.3000 
    185 H185        5.8700  -10.1717  -46.7197 H         1 UNK         0.0600 
    186 H186        8.1733  -11.0973  -46.6101 H         1 UNK         0.0600 
    187 H187        7.6713  -12.5220  -47.5124 H         1 UNK         0.0600 
    188 H188        7.6537  -10.9337  -48.2795 H         1 UNK         0.0600 
    189 H189        5.3806  -12.5618  -48.4038 H         1 UNK         0.3000 
    190 H190       -1.1984  -20.9962  -47.5358 H         1 UNK         0.3000 
    191 H191       -1.6471  -22.2961  -49.9993 H         1 UNK         0.0600 
    192 H192       -2.5210  -20.0423  -49.4412 H         1 UNK         0.0600 
    193 H193       -3.8156  -21.1016  -49.9589 H         1 UNK         0.0600 
    194 H194       -3.6175  -20.7383  -48.2472 H         1 UNK         0.0600 
    195 H195       -3.0967  -22.9292  -46.7561 H         1 UNK         0.3000 
    196 H196       -4.8216  -25.0370  -47.5624 H         1 UNK         0.0600 
    197 H197       -4.8436  -25.5964  -45.1253 H         1 UNK         0.0600 
    198 H198       -5.0683  -23.8758  -45.4005 H         1 UNK         0.0600 
    199 H199       -3.5082  -24.4836  -44.8517 H         1 UNK         0.0600 
    200 H200       -1.4181  -25.1276  -46.3943 H         1 UNK         0.3000 
    201 H201       -1.0964  -27.9485  -46.5081 H         1 UNK         0.0600 
    202 H202        0.4380  -26.4526  -45.2625 H         1 UNK         0.0600 
    203 H203        0.9883  -25.7169  -46.7656 H         1 UNK         0.0600 
    204 H204        1.3372  -27.4081  -46.4316 H         1 UNK         0.0600 
    205 H205       -0.6339  -25.4294  -48.9898 H         1 UNK         0.3000 
    206 H206        0.3035  -27.2037  -51.0646 H         1 UNK         0.0600 
    207 H207        0.8221  -24.7625  -50.9974 H         1 UNK         0.0600 
    208 H208       -0.0027  -25.1850  -52.4897 H         1 UNK         0.0600 
    209 H209       -0.8865  -24.3808  -51.1998 H         1 UNK         0.0600 
    210 H210       -2.7791  -26.8106  -49.7124 H         1 UNK         0.3000 
    211 H211       -4.8569  -27.3593  -50.1732 H         1 UNK         0.0600 
    212 H212       -3.8078  -29.0686  -52.4898 H         1 UNK         0.0600 
    213 H213       -5.3751  -29.2089  -51.7078 H         1 UNK         0.0600 
    214 H214       -3.9157  -29.5901  -50.8088 H         1 UNK         0.0600 
    215 H215       -4.0024  -24.9117  -51.0308 H         1 UNK         0.3000 
    216 H216       -5.7932  -24.2911  -53.3197 H         1 UNK         0.0600 
    217 H217       -4.0312  -22.7956  -54.2416 H         1 UNK         0.0600 
    218 H218       -3.4708  -24.4587  -54.2200 H         1 UNK         0.0600 
    219 H219       -2.9022  -23.3326  -52.9917 H         1 UNK         0.0600 
    220 H220       -6.2082  -24.1649  -50.4803 H         1 UNK         0.3000 
    221 H221       -6.1649  -21.4004  -49.5964 H         1 UNK         0.0600 
    222 H222       -7.7415  -23.8580  -48.6508 H         1 UNK         0.0600 
    223 H223       -6.2565  -23.2184  -47.9419 H         1 UNK         0.0600 
    224 H224       -7.7428  -22.2965  -47.8396 H         1 UNK         0.0600 
    225 H225       -7.9868  -20.0338  -49.4310 H         1 UNK         0.3000 
    226 H226       -9.6596  -18.8135  -50.1376 H         1 UNK         0.0600 
    227 H227      -11.1788  -20.7581  -49.7329 H         1 UNK         0.0600 
    228 H228      -11.7321  -19.7399  -51.0534 H         1 UNK         0.0600 
    229 H229      -10.9643  -21.2775  -51.4047 H         1 UNK         0.0600 
    230 H230       -8.3771  -20.9598  -52.6333 H         1 UNK         0.3000 
    231 H231       -8.5932  -19.0880  -54.8437 H         1 UNK         0.0600 
    232 H232       -6.8307  -21.5694  -54.4390 H         1 UNK         0.0600 
    233 H233       -7.0894  -20.7348  -55.9649 H         1 UNK         0.0600 
    234 H234       -8.4299  -21.5563  -55.1816 H         1 UNK         0.0600 
    235 H235       -6.5422  -19.3151  -52.1081 H         1 UNK         0.3000 
    236 H236       -4.7672  -18.2423  -51.3181 H         1 UNK         0.0600 
    237 H237       -5.4893  -16.0698  -53.3582 H         1 UNK         0.0600 
    238 H238       -6.1953  -16.2460  -51.7530 H         1 UNK         0.0600 
    239 H239       -4.4914  -15.8546  -51.9257 H         1 UNK         0.0600 
    240 H240       -3.9913  -20.2366  -52.7639 H         1 UNK         0.3000 
    241 H241       -2.2223  -21.2052  -53.6439 H         1 UNK         0.0600 
    242 H242       -3.8955  -19.9576  -57.0141 H         1 UNK         0.3800 
    243 H243       -4.3910  -19.3486  -55.4576 H         1 UNK         0.3800 
    244 H244       -0.1095  -20.1498  -54.2824 H         1 UNK         0.0800 
    245 H245       -0.8069  -18.5607  -54.1754 H         1 UNK         0.0800 
    246 H246        1.8241  -18.9784  -52.9011 H         1 UNK         0.0800 
    247 H247        0.8924  -17.5278  -52.6151 H         1 UNK         0.0800 
@<TRIPOS>BOND
     1    1    2 1    
     2    1  127 1    
     3    1  128 1    
     4    1  129 1    
     5    2    3 2    
     6    2    4 am   BACKBONE|DICT|INTERRES
     7    4    5 1    
     8    4  130 1    
     9    5    6 1    
    10    5   65 1    
    11    5  131 1    
    12    6    7 1    
    13    6  132 1    
    14    6  133 1    
    15    7    8 1    
    16    8    9 1    
    17    8  134 1    
    18    8  135 1    
    19    9   10 ar   
    20    9   14 ar   
    21   10   11 ar   
    22   10  136 1    
    23   11   12 ar   
    24   11  126 1    
    25   12   13 ar   
    26   12  137 1    
    27   13   14 ar   
    28   13   15 1    
    29   14  138 1    
    30   15   16 1    
    31   15  139 1    
    32   15  140 1    
    33   16   17 1    
    34   17   18 1    
    35   17  141 1    
    36   17  142 1    
    37   18   19 1    
    38   18   67 1    
    39   18  143 1    
    40   19   20 am   BACKBONE|DICT|INTERRES
    41   19  144 1    
    42   20   21 2    
    43   20   22 1    
    44   22   23 1    
    45   22   24 1    
    46   22  145 1    
    47   23  146 1    
    48   23  147 1    
    49   23  148 1    
    50   24   25 am   BACKBONE|DICT|INTERRES
    51   24  149 1    
    52   25   26 2    
    53   25   27 1    
    54   27   28 1    
    55   27   29 1    
    56   27  150 1    
    57   28  151 1    
    58   28  152 1    
    59   28  153 1    
    60   29   30 am   BACKBONE|DICT|INTERRES
    61   29  154 1    
    62   30   31 2    
    63   30   32 1    
    64   32   33 1    
    65   32   34 1    
    66   32  155 1    
    67   33  156 1    
    68   33  157 1    
    69   33  158 1    
    70   34   35 am   BACKBONE|DICT|INTERRES
    71   34  159 1    
    72   35   36 2    
    73   35   37 1    
    74   37   38 1    
    75   37   39 1    
    76   37  160 1    
    77   38  161 1    
    78   38  162 1    
    79   38  163 1    
    80   39   40 am   BACKBONE|DICT|INTERRES
    81   39  164 1    
    82   40   41 2    
    83   40   42 1    
    84   42   43 1    
    85   42   44 1    
    86   42  165 1    
    87   43  166 1    
    88   43  167 1    
    89   43  168 1    
    90   44   45 am   BACKBONE|DICT|INTERRES
    91   44  169 1    
    92   45   46 2    
    93   45   47 1    
    94   47   48 1    
    95   47   49 1    
    96   47  170 1    
    97   48  171 1    
    98   48  172 1    
    99   48  173 1    
   100   49   50 am   BACKBONE|DICT|INTERRES
   101   49  174 1    
   102   50   51 2    
   103   50   52 1    
   104   52   53 1    
   105   52   54 1    
   106   52  175 1    
   107   53  176 1    
   108   53  177 1    
   109   53  178 1    
   110   54   55 am   BACKBONE|DICT|INTERRES
   111   54  179 1    
   112   55   56 2    
   113   55   57 1    
   114   57   58 1    
   115   57   59 1    
   116   57  180 1    
   117   58  181 1    
   118   58  182 1    
   119   58  183 1    
   120   59   60 am   BACKBONE|DICT|INTERRES
   121   59  184 1    
   122   60   61 2    
   123   60   62 1    
   124   62   63 1    
   125   62   64 1    
   126   62  185 1    
   127   63  186 1    
   128   63  187 1    
   129   63  188 1    
   130   64   65 am   BACKBONE|DICT|INTERRES
   131   64  189 1    
   132   65   66 2    
   133   67   68 2    
   134   67   69 am   BACKBONE|DICT|INTERRES
   135   69   70 1    
   136   69  190 1    
   137   70   71 1    
   138   70   72 1    
   139   70  191 1    
   140   71  192 1    
   141   71  193 1    
   142   71  194 1    
   143   72   73 2    
   144   72   74 am   BACKBONE|DICT|INTERRES
   145   74   75 1    
   146   74  195 1    
   147   75   76 1    
   148   75   77 1    
   149   75  196 1    
   150   76  197 1    
   151   76  198 1    
   152   76  199 1    
   153   77   78 2    
   154   77   79 am   BACKBONE|DICT|INTERRES
   155   79   80 1    
   156   79  200 1    
   157   80   81 1    
   158   80   82 1    
   159   80  201 1    
   160   81  202 1    
   161   81  203 1    
   162   81  204 1    
   163   82   83 2    
   164   82   84 am   BACKBONE|DICT|INTERRES
   165   84   85 1    
   166   84  205 1    
   167   85   86 1    
   168   85   87 1    
   169   85  206 1    
   170   86  207 1    
   171   86  208 1    
   172   86  209 1    
   173   87   88 2    
   174   87   89 am   BACKBONE|DICT|INTERRES
   175   89   90 1    
   176   89  210 1    
   177   90   91 1    
   178   90   92 1    
   179   90  211 1    
   180   91  212 1    
   181   91  213 1    
   182   91  214 1    
   183   92   93 2    
   184   92   94 am   BACKBONE|DICT|INTERRES
   185   94   95 1    
   186   94  215 1    
   187   95   96 1    
   188   95   97 1    
   189   95  216 1    
   190   96  217 1    
   191   96  218 1    
   192   96  219 1    
   193   97   98 2    
   194   97   99 am   BACKBONE|DICT|INTERRES
   195   99  100 1    
   196   99  220 1    
   197  100  101 1    
   198  100  102 1    
   199  100  221 1    
   200  101  222 1    
   201  101  223 1    
   202  101  224 1    
   203  102  103 2    
   204  102  104 am   BACKBONE|DICT|INTERRES
   205  104  105 1    
   206  104  225 1    
   207  105  106 1    
   208  105  107 1    
   209  105  226 1    
   210  106  227 1    
   211  106  228 1    
   212  106  229 1    
   213  107  108 2    
   214  107  109 am   BACKBONE|DICT|INTERRES
   215  109  110 1    
   216  109  230 1    
   217  110  111 1    
   218  110  112 1    
   219  110  231 1    
   220  111  232 1    
   221  111  233 1    
   222  111  234 1    
   223  112  113 2    
   224  112  114 am   BACKBONE|DICT|INTERRES
   225  114  115 1    
   226  114  235 1    
   227  115  116 1    
   228  115  117 1    
   229  115  236 1    
   230  116  237 1    
   231  116  238 1    
   232  116  239 1    
   233  117  118 2    
   234  117  119 am   BACKBONE|DICT|INTERRES
   235  119  120 1    
   236  119  240 1    
   237  120  121 1    
   238  120  124 1    
   239  120  241 1    
   240  121  122 am   BACKBONE|DICT|INTERRES
   241  121  123 2    
   242  122  242 1    
   243  122  243 1    
   244  124  125 1    
   245  124  244 1    
   246  124  245 1    
   247  125  126 1    
   248  126  246 1    
   249  126  247 1    
@<TRIPOS>SUBSTRUCTURE
     1 UNK         1 GROUP             0       ****    0 ROOT    
