@<TRIPOS>MOLECULE
3R540
247   249    1
SMALL
USER_CHARGES


@<TRIPOS>ATOM
      1 CA          5.3514  -17.7837  -47.8061 C.3       0 UNK        -0.1800 
      2 C           4.5224  -16.5085  -47.8273 C.2       0 UNK         0.5000 
      3 O           3.7818  -16.2474  -46.8796 O.2       0 UNK        -0.5000 
      4 N           4.6552  -15.7062  -48.8940 N.am      1 UNK        -0.5000 
      5 CA          3.8504  -14.5048  -49.1651 C.3       1 UNK         0.1400 
      6 C6          4.1599  -13.8599  -50.5423 C.3       23 UNK        -0.0398 
      7 S7          4.2488  -15.0280  -51.9442 S.3       23 UNK        -0.2404 
      8 C8          2.5123  -15.1246  -52.4873 C.3       23 UNK        -0.0205 
      9 C9          1.7058  -16.0423  -51.5839 C.ar      23 UNK        -0.0193 
     10 C10         0.7708  -15.5180  -50.6870 C.ar      23 UNK        -0.1150 
     11 C11         0.0779  -16.3621  -49.8151 C.ar      23 UNK        -0.0193 
     12 C12         0.3100  -17.7399  -49.8631 C.ar      23 UNK        -0.1150 
     13 C13         1.2303  -18.2770  -50.7665 C.ar      23 UNK        -0.0193 
     14 C14         1.9212  -17.4226  -51.6278 C.ar      23 UNK        -0.1150 
     15 C15         1.4984  -19.7727  -50.7982 C.3       23 UNK        -0.0205 
     16 S16         2.7650  -20.2279  -49.5730 S.3       23 UNK        -0.2404 
     17 C17         2.9749  -22.0180  -49.8970 C.3       23 UNK        -0.0398 
     18 CA          2.2342  -22.9431  -48.8961 C.3       11 UNK         0.1400 
     19 N           2.5255  -22.5831  -47.5048 N.am      11 UNK        -0.5000 
     20 C           2.1409  -23.2583  -46.4139 C.2       10 UNK         0.5000 
     21 O           1.5054  -24.3122  -46.4404 O.2       10 UNK        -0.5000 
     22 CA          2.4787  -22.6070  -45.0596 C.3       10 UNK         0.1400 
     23 CB          3.8791  -23.0327  -44.5951 C.3       10 UNK        -0.1800 
     24 N           2.3922  -21.1411  -45.0521 N.am      10 UNK        -0.5000 
     25 C           1.3137  -20.4245  -45.3978 C.2       9 UNK         0.5000 
     26 O           0.2831  -20.9165  -45.8581 O.2       9 UNK        -0.5000 
     27 CA          1.3919  -18.9043  -45.1931 C.3       9 UNK         0.1400 
     28 CB          1.0019  -18.1594  -46.4775 C.3       9 UNK        -0.1800 
     29 N           0.4979  -18.4878  -44.1163 N.am      9 UNK        -0.5000 
     30 C           0.6791  -18.7615  -42.8172 C.2       8 UNK         0.5000 
     31 O           1.6633  -19.3543  -42.3739 O.2       8 UNK        -0.5000 
     32 CA         -0.4205  -18.2986  -41.8488 C.3       8 UNK         0.1400 
     33 CB         -0.2677  -16.8056  -41.5198 C.3       8 UNK        -0.1800 
     34 N          -1.7535  -18.5330  -42.4019 N.am      8 UNK        -0.5000 
     35 C          -2.5276  -19.5843  -42.0973 C.2       7 UNK         0.5000 
     36 O          -2.1876  -20.4796  -41.3232 O.2       7 UNK        -0.5000 
     37 CA         -3.9301  -19.6443  -42.7351 C.3       7 UNK         0.1400 
     38 CB         -4.9982  -19.2195  -41.7152 C.3       7 UNK        -0.1800 
     39 N          -4.0520  -18.7950  -43.9191 N.am      7 UNK        -0.5000 
     40 C          -3.6451  -19.1456  -45.1456 C.2       6 UNK         0.5000 
     41 O          -3.2095  -20.2589  -45.4254 O.2       6 UNK        -0.5000 
     42 CA         -3.7332  -18.0706  -46.2447 C.3       6 UNK         0.1400 
     43 CB         -4.9969  -18.2816  -47.0940 C.3       6 UNK        -0.1800 
     44 N          -3.7187  -16.6950  -45.7335 N.am      6 UNK        -0.5000 
     45 C          -2.6800  -16.1239  -45.1103 C.2       5 UNK         0.5000 
     46 O          -1.6317  -16.7165  -44.8443 O.2       5 UNK        -0.5000 
     47 CA         -2.8790  -14.6793  -44.6318 C.3       5 UNK         0.1400 
     48 CB         -3.2774  -14.6606  -43.1481 C.3       5 UNK        -0.1800 
     49 N          -1.6522  -13.9071  -44.8033 N.am      5 UNK        -0.5000 
     50 C          -1.3210  -13.2395  -45.9117 C.2       4 UNK         0.5000 
     51 O          -2.0425  -13.1839  -46.9078 O.2       4 UNK        -0.5000 
     52 CA          0.0221  -12.4822  -45.9232 C.3       4 UNK         0.1400 
     53 CB         -0.1220  -11.1017  -45.2561 C.3       4 UNK        -0.1800 
     54 N           1.1828  -13.2040  -45.3852 N.am      4 UNK        -0.5000 
     55 C           1.4322  -13.6191  -44.1329 C.2       3 UNK         0.5000 
     56 O           0.6229  -13.5394  -43.2082 O.2       3 UNK        -0.5000 
     57 CA          2.8304  -14.2110  -43.8532 C.3       3 UNK         0.1400 
     58 CB          2.7601  -15.7345  -43.7026 C.3       3 UNK        -0.1800 
     59 N           3.8096  -13.8846  -44.8916 N.am      3 UNK        -0.5000 
     60 C           4.4101  -12.6909  -45.0124 C.2       2 UNK         0.5000 
     61 O           4.2472  -11.7659  -44.2157 O.2       2 UNK        -0.5000 
     62 CA          5.3356  -12.4772  -46.2282 C.3       2 UNK         0.1400 
     63 CB          6.8078  -12.6239  -45.8138 C.3       2 UNK        -0.1800 
     64 N           5.0705  -13.3788  -47.3513 N.am      2 UNK        -0.5000 
     65 C           3.9338  -13.4305  -48.0603 C.2       1 UNK         0.5000 
     66 O           2.9657  -12.6984  -47.8524 O.2       1 UNK        -0.5000 
     67 C           0.7246  -23.0060  -49.2133 C.2       11 UNK         0.5000 
     68 O           0.3204  -23.8008  -50.0620 O.2       11 UNK        -0.5000 
     69 N          -0.0709  -22.1736  -48.5315 N.am      12 UNK        -0.5000 
     70 CA         -1.5218  -22.1344  -48.6470 C.3       12 UNK         0.1400 
     71 CB         -1.9876  -20.6716  -48.5892 C.3       12 UNK        -0.1800 
     72 C          -2.1714  -22.9888  -47.5494 C.2       12 UNK         0.5000 
     73 O          -3.0704  -23.7735  -47.8494 O.2       12 UNK        -0.5000 
     74 N          -1.6948  -22.8534  -46.3054 N.am      13 UNK        -0.5000 
     75 CA         -2.2600  -23.4870  -45.1125 C.3       13 UNK         0.1400 
     76 CB         -1.5154  -22.9829  -43.8680 C.3       13 UNK        -0.1800 
     77 C          -2.2521  -25.0249  -45.1612 C.2       13 UNK         0.5000 
     78 O          -3.2211  -25.6501  -44.7293 O.2       13 UNK        -0.5000 
     79 N          -1.1834  -25.6070  -45.7220 N.am      14 UNK        -0.5000 
     80 CA         -1.0353  -27.0521  -45.9108 C.3       14 UNK         0.1400 
     81 CB          0.4594  -27.3782  -46.0590 C.3       14 UNK        -0.1800 
     82 C          -1.8276  -27.6033  -47.1156 C.2       14 UNK         0.5000 
     83 O          -1.8811  -28.8221  -47.2861 O.2       14 UNK        -0.5000 
     84 N          -2.4036  -26.7174  -47.9384 N.am      15 UNK        -0.5000 
     85 CA         -3.0505  -27.0360  -49.2105 C.3       15 UNK         0.1400 
     86 CB         -2.1568  -26.5093  -50.3457 C.3       15 UNK        -0.1800 
     87 C          -4.4844  -26.4776  -49.2854 C.2       15 UNK         0.5000 
     88 O          -4.9838  -26.2369  -50.3855 O.2       15 UNK        -0.5000 
     89 N          -5.1247  -26.2718  -48.1232 N.am      16 UNK        -0.5000 
     90 CA         -6.5055  -25.7959  -47.9500 C.3       16 UNK         0.1400 
     91 CB         -7.5065  -26.8862  -48.3855 C.3       16 UNK        -0.1800 
     92 C          -6.7646  -24.4336  -48.6315 C.2       16 UNK         0.5000 
     93 O          -7.7381  -24.2757  -49.3694 O.2       16 UNK        -0.5000 
     94 N          -5.8415  -23.4937  -48.3917 N.am      17 UNK        -0.5000 
     95 CA         -5.7268  -22.1417  -48.9496 C.3       17 UNK         0.1400 
     96 CB         -7.0370  -21.3350  -48.8400 C.3       17 UNK        -0.1800 
     97 C          -5.1369  -22.0991  -50.3737 C.2       17 UNK         0.5000 
     98 O          -4.9409  -21.0018  -50.8997 O.2       17 UNK        -0.5000 
     99 N          -4.8581  -23.2680  -50.9747 N.am      18 UNK        -0.5000 
    100 CA        -4.2863  -23.4655  -52.3132 C.3       18 UNK         0.1400 
    101 CB        -2.7924  -23.0833  -52.3178 C.3       18 UNK        -0.1800 
    102 C         -5.1008  -22.7731  -53.4282 C.2       18 UNK         0.5000 
    103 O         -4.5265  -22.1744  -54.3385 O.2       18 UNK        -0.5000 
    104 N         -6.4359  -22.8467  -53.3044 N.am      19 UNK        -0.5000 
    105 CA        -7.4394  -22.1782  -54.1429 C.3       19 UNK         0.1400 
    106 CB        -7.4199  -22.7355  -55.5822 C.3       19 UNK        -0.1800 
    107 C         -7.3373  -20.6368  -54.0829 C.2       19 UNK         0.5000 
    108 O         -7.5345  -19.9640  -55.0961 O.2       19 UNK        -0.5000 
    109 N         -7.0331  -20.1199  -52.8820 N.am      20 UNK        -0.5000 
    110 CA        -6.7972  -18.7148  -52.5397 C.3       20 UNK         0.1400 
    111 CB        -8.0632  -17.8599  -52.7583 C.3       20 UNK        -0.1800 
    112 C         -5.5478  -18.1592  -53.2497 C.2       20 UNK         0.5000 
    113 O         -5.6222  -17.1449  -53.9481 O.2       20 UNK        -0.5000 
    114 N         -4.4100  -18.8401  -53.0424 N.am      21 UNK        -0.5000 
    115 CA        -3.1055  -18.5230  -53.6419 C.3       21 UNK         0.1400 
    116 CB        -2.0766  -19.5806  -53.2182 C.3       21 UNK        -0.1800 
    117 C         -2.5726  -17.1116  -53.3261 C.2       21 UNK         0.5000 
    118 O         -1.7752  -16.5793  -54.0996 O.2       21 UNK        -0.5000 
    119 N         -3.0389  -16.5285  -52.2164 N.am      22 UNK        -0.5000 
    120 CA        -2.7494  -15.1501  -51.7994 C.3       22 UNK         0.1400 
    121 C         -3.3913  -14.0537  -52.7020 C.2       22 UNK         0.5000 
    122 N         -4.3492  -14.3729  -53.5666 N.am      22 UNK        -0.7600 
    123 O         -3.0116  -12.8894  -52.6148 O.2       22 UNK        -0.5000 
    124 C124       -3.1138  -14.8980  -50.3124 C.3       23 UNK        -0.0398 
    125 S125       -2.6115  -16.2282  -49.1677 S.3       23 UNK        -0.2404 
    126 C126       -0.8897  -15.7885  -48.7919 C.3       23 UNK        -0.0205 
    127 H127        4.7066  -18.6436  -47.6252 H         1 UNK         0.0600 
    128 H128        6.0916  -17.7370  -47.0076 H         1 UNK         0.0600 
    129 H129        5.8723  -17.9437  -48.7502 H         1 UNK         0.0600 
    130 H130        5.2757  -15.9804  -49.6426 H         1 UNK         0.3000 
    131 H131        2.8143  -14.8386  -49.1712 H         1 UNK         0.0600 
    132 H132        3.4215  -13.0900  -50.7737 H         1 UNK         0.0800 
    133 H133        5.1223  -13.3460  -50.5054 H         1 UNK         0.0800 
    134 H134        2.4828  -15.5146  -53.5057 H         1 UNK         0.0800 
    135 H135        2.0754  -14.1259  -52.5304 H         1 UNK         0.0800 
    136 H136        0.6058  -14.4506  -50.6461 H         1 UNK         0.1150 
    137 H137       -0.2159  -18.3916  -49.1823 H         1 UNK         0.1150 
    138 H138        2.6496  -17.8280  -52.3160 H         1 UNK         0.1150 
    139 H139        0.5751  -20.3179  -50.6017 H         1 UNK         0.0800 
    140 H140        1.8287  -20.0721  -51.7940 H         1 UNK         0.0800 
    141 H141        2.6949  -22.2473  -50.9270 H         1 UNK         0.0800 
    142 H142        4.0440  -22.2266  -49.8406 H         1 UNK         0.0800 
    143 H143        2.6165  -23.9556  -49.0418 H         1 UNK         0.0600 
    144 H144        3.0157  -21.7100  -47.3755 H         1 UNK         0.3000 
    145 H145        1.7568  -22.9775  -44.3310 H         1 UNK         0.0600 
    146 H146        4.0891  -22.6684  -43.5893 H         1 UNK         0.0600 
    147 H147        4.6566  -22.6536  -45.2596 H         1 UNK         0.0600 
    148 H148        3.9691  -24.1197  -44.5703 H         1 UNK         0.0600 
    149 H149        3.1851  -20.6541  -44.6601 H         1 UNK         0.3000 
    150 H150        2.4149  -18.6262  -44.9320 H         1 UNK         0.0600 
    151 H151        1.6551  -18.4390  -47.3044 H         1 UNK         0.0600 
    152 H152        1.0855  -17.0804  -46.3524 H         1 UNK         0.0600 
    153 H153       -0.0247  -18.3791  -46.7724 H         1 UNK         0.0600 
    154 H154       -0.3280  -17.9675  -44.3999 H         1 UNK         0.3000 
    155 H155       -0.2995  -18.8541  -40.9163 H         1 UNK         0.0600 
    156 H156        0.6895  -16.6106  -41.0354 H         1 UNK         0.0600 
    157 H157       -1.0481  -16.4707  -40.8365 H         1 UNK         0.0600 
    158 H158       -0.3172  -16.1851  -42.4153 H         1 UNK         0.0600 
    159 H159       -2.0701  -17.8778  -43.1042 H         1 UNK         0.3000 
    160 H160       -4.1210  -20.6824  -43.0163 H         1 UNK         0.0600 
    161 H161       -4.8591  -18.1870  -41.3921 H         1 UNK         0.0600 
    162 H162       -4.9618  -19.8496  -40.8255 H         1 UNK         0.0600 
    163 H163       -6.0008  -19.3090  -42.1338 H         1 UNK         0.0600 
    164 H164       -4.4262  -17.8682  -43.7820 H         1 UNK         0.3000 
    165 H165       -2.8601  -18.1965  -46.8876 H         1 UNK         0.0600 
    166 H166       -5.0422  -17.5757  -47.9230 H         1 UNK         0.0600 
    167 H167       -5.0139  -19.2832  -47.5239 H         1 UNK         0.0600 
    168 H168       -5.9049  -18.1633  -46.5017 H         1 UNK         0.0600 
    169 H169       -4.5492  -16.1471  -45.9056 H         1 UNK         0.3000 
    170 H170       -3.6843  -14.2189  -45.2082 H         1 UNK         0.0600 
    171 H171       -2.5053  -15.0983  -42.5154 H         1 UNK         0.0600 
    172 H172       -3.4516  -13.6416  -42.8021 H         1 UNK         0.0600 
    173 H173       -4.1976  -15.2216  -42.9804 H         1 UNK         0.0600 
    174 H174       -0.9770  -13.9245  -44.0432 H         1 UNK         0.3000 
    175 H175        0.2617  -12.3069  -46.9733 H         1 UNK         0.0600 
    176 H176       -0.3593  -11.1847  -44.1951 H         1 UNK         0.0600 
    177 H177        0.7963  -10.5219  -45.3502 H         1 UNK         0.0600 
    178 H178       -0.9204  -10.5244  -45.7240 H         1 UNK         0.0600 
    179 H179        1.9293  -13.3270  -46.0590 H         1 UNK         0.3000 
    180 H180        3.1782  -13.7966  -42.9046 H         1 UNK         0.0600 
    181 H181        2.1334  -16.0123  -42.8573 H         1 UNK         0.0600 
    182 H182        3.7461  -16.1660  -43.5305 H         1 UNK         0.0600 
    183 H183        2.3402  -16.1992  -44.5925 H         1 UNK         0.0600 
    184 H184        3.9776  -14.5991  -45.5928 H         1 UNK         0.3000 
    185 H185        5.1781  -11.4553  -46.5792 H         1 UNK         0.0600 
    186 H186        7.0308  -13.6368  -45.4762 H         1 UNK         0.0600 
    187 H187        7.4769  -12.3897  -46.6420 H         1 UNK         0.0600 
    188 H188        7.0544  -11.9438  -44.9973 H         1 UNK         0.0600 
    189 H189        5.7995  -14.0387  -47.5810 H         1 UNK         0.3000 
    190 H190        0.3344  -21.5985  -47.8020 H         1 UNK         0.3000 
    191 H191       -1.8375  -22.5431  -49.6076 H         1 UNK         0.0600 
    192 H192       -1.6820  -20.1334  -49.4854 H         1 UNK         0.0600 
    193 H193       -1.5776  -20.1504  -47.7242 H         1 UNK         0.0600 
    194 H194       -3.0704  -20.5929  -48.5307 H         1 UNK         0.0600 
    195 H195       -0.9750  -22.1525  -46.1380 H         1 UNK         0.3000 
    196 H196       -3.2999  -23.1620  -45.0393 H         1 UNK         0.0600 
    197 H197       -1.5143  -21.8938  -43.8233 H         1 UNK         0.0600 
    198 H198       -0.4790  -23.3177  -43.8579 H         1 UNK         0.0600 
    199 H199       -1.9882  -23.3462  -42.9549 H         1 UNK         0.0600 
    200 H200       -0.4182  -25.0267  -46.0517 H         1 UNK         0.3000 
    201 H201       -1.4042  -27.5612  -45.0180 H         1 UNK         0.0600 
    202 H202        1.0314  -27.0097  -45.2072 H         1 UNK         0.0600 
    203 H203        0.8786  -26.9328  -46.9622 H         1 UNK         0.0600 
    204 H204        0.6231  -28.4549  -46.1182 H         1 UNK         0.0600 
    205 H205       -2.3587  -25.7307  -47.7083 H         1 UNK         0.3000 
    206 H206       -3.1479  -28.1162  -49.3327 H         1 UNK         0.0600 
    207 H207       -1.1812  -26.9953  -50.3334 H         1 UNK         0.0600 
    208 H208       -1.9913  -25.4379  -50.2426 H         1 UNK         0.0600 
    209 H209       -2.5955  -26.6906  -51.3275 H         1 UNK         0.0600 
    210 H210       -4.6167  -26.4687  -47.2718 H         1 UNK         0.3000 
    211 H211       -6.6437  -25.6316  -46.8803 H         1 UNK         0.0600 
    212 H212       -7.4481  -27.0865  -49.4558 H         1 UNK         0.0600 
    213 H213       -8.5317  -26.5868  -48.1641 H         1 UNK         0.0600 
    214 H214       -7.3224  -27.8227  -47.8591 H         1 UNK         0.0600 
    215 H215       -5.0215  -23.7794  -47.8631 H         1 UNK         0.3000 
    216 H216       -5.0026  -21.6443  -48.3074 H         1 UNK         0.0600 
    217 H217       -6.8651  -20.2834  -49.0729 H         1 UNK         0.0600 
    218 H218       -7.4458  -21.3792  -47.8306 H         1 UNK         0.0600 
    219 H219       -7.7998  -21.6938  -49.5310 H         1 UNK         0.0600 
    220 H220       -5.0689  -24.1241  -50.4746 H         1 UNK         0.3000 
    221 H221       -4.3489  -24.5338  -52.5244 H         1 UNK         0.0600 
    222 H222       -2.6367  -22.0646  -51.9685 H         1 UNK         0.0600 
    223 H223       -2.2174  -23.7388  -51.6684 H         1 UNK         0.0600 
    224 H224       -2.3563  -23.1681  -53.3137 H         1 UNK         0.0600 
    225 H225       -6.8011  -23.3638  -52.5162 H         1 UNK         0.3000 
    226 H226       -8.4095  -22.4294  -53.7116 H         1 UNK         0.0600 
    227 H227       -7.4991  -23.8226  -55.5854 H         1 UNK         0.0600 
    228 H228       -8.2590  -22.3487  -56.1616 H         1 UNK         0.0600 
    229 H229       -6.5065  -22.4638  -56.1120 H         1 UNK         0.0600 
    230 H230       -6.8106  -20.7727  -52.1431 H         1 UNK         0.3000 
    231 H231       -6.5754  -18.6947  -51.4715 H         1 UNK         0.0600 
    232 H232       -7.9125  -16.8445  -52.3902 H         1 UNK         0.0600 
    233 H233       -8.9166  -18.2758  -52.2228 H         1 UNK         0.0600 
    234 H234       -8.3320  -17.7854  -53.8122 H         1 UNK         0.0600 
    235 H235       -4.4468  -19.6575  -52.4420 H         1 UNK         0.3000 
    236 H236       -3.2240  -18.5806  -54.7256 H         1 UNK         0.0600 
    237 H237       -2.0281  -19.6847  -52.1335 H         1 UNK         0.0600 
    238 H238       -2.3237  -20.5489  -53.6504 H         1 UNK         0.0600 
    239 H239       -1.0753  -19.3239  -53.5675 H         1 UNK         0.0600 
    240 H240       -3.6680  -17.0497  -51.6253 H         1 UNK         0.3000 
    241 H241       -1.6719  -15.0163  -51.8974 H         1 UNK         0.0600 
    242 H242       -4.7527  -13.6533  -54.1450 H         1 UNK         0.3800 
    243 H243       -4.6782  -15.3283  -53.6558 H         1 UNK         0.3800 
    244 H244       -4.1949  -14.7904  -50.2076 H         1 UNK         0.0800 
    245 H245       -2.6876  -13.9538  -49.9688 H         1 UNK         0.0800 
    246 H246       -0.6422  -16.1783  -47.8047 H         1 UNK         0.0800 
    247 H247       -0.7861  -14.7055  -48.7216 H         1 UNK         0.0800 
@<TRIPOS>BOND
     1    1    2 1    
     2    1  127 1    
     3    1  128 1    
     4    1  129 1    
     5    2    3 2    
     6    2    4 am   BACKBONE|DICT|INTERRES
     7    4    5 1    
     8    4  130 1    
     9    5    6 1    
    10    5   65 1    
    11    5  131 1    
    12    6    7 1    
    13    6  132 1    
    14    6  133 1    
    15    7    8 1    
    16    8    9 1    
    17    8  134 1    
    18    8  135 1    
    19    9   10 ar   
    20    9   14 ar   
    21   10   11 ar   
    22   10  136 1    
    23   11   12 ar   
    24   11  126 1    
    25   12   13 ar   
    26   12  137 1    
    27   13   14 ar   
    28   13   15 1    
    29   14  138 1    
    30   15   16 1    
    31   15  139 1    
    32   15  140 1    
    33   16   17 1    
    34   17   18 1    
    35   17  141 1    
    36   17  142 1    
    37   18   19 1    
    38   18   67 1    
    39   18  143 1    
    40   19   20 am   BACKBONE|DICT|INTERRES
    41   19  144 1    
    42   20   21 2    
    43   20   22 1    
    44   22   23 1    
    45   22   24 1    
    46   22  145 1    
    47   23  146 1    
    48   23  147 1    
    49   23  148 1    
    50   24   25 am   BACKBONE|DICT|INTERRES
    51   24  149 1    
    52   25   26 2    
    53   25   27 1    
    54   27   28 1    
    55   27   29 1    
    56   27  150 1    
    57   28  151 1    
    58   28  152 1    
    59   28  153 1    
    60   29   30 am   BACKBONE|DICT|INTERRES
    61   29  154 1    
    62   30   31 2    
    63   30   32 1    
    64   32   33 1    
    65   32   34 1    
    66   32  155 1    
    67   33  156 1    
    68   33  157 1    
    69   33  158 1    
    70   34   35 am   BACKBONE|DICT|INTERRES
    71   34  159 1    
    72   35   36 2    
    73   35   37 1    
    74   37   38 1    
    75   37   39 1    
    76   37  160 1    
    77   38  161 1    
    78   38  162 1    
    79   38  163 1    
    80   39   40 am   BACKBONE|DICT|INTERRES
    81   39  164 1    
    82   40   41 2    
    83   40   42 1    
    84   42   43 1    
    85   42   44 1    
    86   42  165 1    
    87   43  166 1    
    88   43  167 1    
    89   43  168 1    
    90   44   45 am   BACKBONE|DICT|INTERRES
    91   44  169 1    
    92   45   46 2    
    93   45   47 1    
    94   47   48 1    
    95   47   49 1    
    96   47  170 1    
    97   48  171 1    
    98   48  172 1    
    99   48  173 1    
   100   49   50 am   BACKBONE|DICT|INTERRES
   101   49  174 1    
   102   50   51 2    
   103   50   52 1    
   104   52   53 1    
   105   52   54 1    
   106   52  175 1    
   107   53  176 1    
   108   53  177 1    
   109   53  178 1    
   110   54   55 am   BACKBONE|DICT|INTERRES
   111   54  179 1    
   112   55   56 2    
   113   55   57 1    
   114   57   58 1    
   115   57   59 1    
   116   57  180 1    
   117   58  181 1    
   118   58  182 1    
   119   58  183 1    
   120   59   60 am   BACKBONE|DICT|INTERRES
   121   59  184 1    
   122   60   61 2    
   123   60   62 1    
   124   62   63 1    
   125   62   64 1    
   126   62  185 1    
   127   63  186 1    
   128   63  187 1    
   129   63  188 1    
   130   64   65 am   BACKBONE|DICT|INTERRES
   131   64  189 1    
   132   65   66 2    
   133   67   68 2    
   134   67   69 am   BACKBONE|DICT|INTERRES
   135   69   70 1    
   136   69  190 1    
   137   70   71 1    
   138   70   72 1    
   139   70  191 1    
   140   71  192 1    
   141   71  193 1    
   142   71  194 1    
   143   72   73 2    
   144   72   74 am   BACKBONE|DICT|INTERRES
   145   74   75 1    
   146   74  195 1    
   147   75   76 1    
   148   75   77 1    
   149   75  196 1    
   150   76  197 1    
   151   76  198 1    
   152   76  199 1    
   153   77   78 2    
   154   77   79 am   BACKBONE|DICT|INTERRES
   155   79   80 1    
   156   79  200 1    
   157   80   81 1    
   158   80   82 1    
   159   80  201 1    
   160   81  202 1    
   161   81  203 1    
   162   81  204 1    
   163   82   83 2    
   164   82   84 am   BACKBONE|DICT|INTERRES
   165   84   85 1    
   166   84  205 1    
   167   85   86 1    
   168   85   87 1    
   169   85  206 1    
   170   86  207 1    
   171   86  208 1    
   172   86  209 1    
   173   87   88 2    
   174   87   89 am   BACKBONE|DICT|INTERRES
   175   89   90 1    
   176   89  210 1    
   177   90   91 1    
   178   90   92 1    
   179   90  211 1    
   180   91  212 1    
   181   91  213 1    
   182   91  214 1    
   183   92   93 2    
   184   92   94 am   BACKBONE|DICT|INTERRES
   185   94   95 1    
   186   94  215 1    
   187   95   96 1    
   188   95   97 1    
   189   95  216 1    
   190   96  217 1    
   191   96  218 1    
   192   96  219 1    
   193   97   98 2    
   194   97   99 am   BACKBONE|DICT|INTERRES
   195   99  100 1    
   196   99  220 1    
   197  100  101 1    
   198  100  102 1    
   199  100  221 1    
   200  101  222 1    
   201  101  223 1    
   202  101  224 1    
   203  102  103 2    
   204  102  104 am   BACKBONE|DICT|INTERRES
   205  104  105 1    
   206  104  225 1    
   207  105  106 1    
   208  105  107 1    
   209  105  226 1    
   210  106  227 1    
   211  106  228 1    
   212  106  229 1    
   213  107  108 2    
   214  107  109 am   BACKBONE|DICT|INTERRES
   215  109  110 1    
   216  109  230 1    
   217  110  111 1    
   218  110  112 1    
   219  110  231 1    
   220  111  232 1    
   221  111  233 1    
   222  111  234 1    
   223  112  113 2    
   224  112  114 am   BACKBONE|DICT|INTERRES
   225  114  115 1    
   226  114  235 1    
   227  115  116 1    
   228  115  117 1    
   229  115  236 1    
   230  116  237 1    
   231  116  238 1    
   232  116  239 1    
   233  117  118 2    
   234  117  119 am   BACKBONE|DICT|INTERRES
   235  119  120 1    
   236  119  240 1    
   237  120  121 1    
   238  120  124 1    
   239  120  241 1    
   240  121  122 am   BACKBONE|DICT|INTERRES
   241  121  123 2    
   242  122  242 1    
   243  122  243 1    
   244  124  125 1    
   245  124  244 1    
   246  124  245 1    
   247  125  126 1    
   248  126  246 1    
   249  126  247 1    
@<TRIPOS>SUBSTRUCTURE
     1 UNK         1 GROUP             0       ****    0 ROOT    
