@<TRIPOS>MOLECULE
3R540
247   249    1
SMALL
USER_CHARGES


@<TRIPOS>ATOM
      1 CA          0.3779   -9.5835  -43.6634 C.3       0 UNK        -0.1800 
      2 C           1.0576  -10.3198  -44.8094 C.2       0 UNK         0.5000 
      3 O           1.9943   -9.7906  -45.4086 O.2       0 UNK        -0.5000 
      4 N           0.5816  -11.5316  -45.1198 N.am      1 UNK        -0.5000 
      5 CA          1.1262  -12.4201  -46.1535 C.3       1 UNK         0.1400 
      6 C6          0.1896  -13.6226  -46.4289 C.3       23 UNK        -0.0398 
      7 S7         -1.4839  -13.0852  -46.9153 S.3       23 UNK        -0.2404 
      8 C8         -1.5128  -13.4984  -48.6877 C.3       23 UNK        -0.0205 
      9 C9         -1.8672  -14.9578  -48.9343 C.ar      23 UNK        -0.0193 
     10 C10        -0.9700  -15.8130  -49.5815 C.ar      23 UNK        -0.1150 
     11 C11        -1.3351  -17.1324  -49.8788 C.ar      23 UNK        -0.0193 
     12 C12        -2.5892  -17.6012  -49.4740 C.ar      23 UNK        -0.1150 
     13 C13        -3.4827  -16.7671  -48.7983 C.ar      23 UNK        -0.0193 
     14 C14        -3.1205  -15.4418  -48.5493 C.ar      23 UNK        -0.1150 
     15 C15        -4.8451  -17.2763  -48.3478 C.3       23 UNK        -0.0205 
     16 S16        -4.9048  -17.5022  -46.5393 S.3       23 UNK        -0.2404 
     17 C17        -4.8367  -19.3174  -46.3498 C.3       23 UNK        -0.0398 
     18 CA         -3.5076  -19.9603  -46.8122 C.3       11 UNK         0.1400 
     19 N          -2.3360  -19.3363  -46.1984 N.am      11 UNK        -0.5000 
     20 C          -1.0770  -19.5023  -46.6248 C.2       10 UNK         0.5000 
     21 O          -0.7645  -20.2200  -47.5735 O.2       10 UNK        -0.5000 
     22 CA          0.0184  -18.7913  -45.8107 C.3       10 UNK         0.1400 
     23 CB          0.1460  -17.3312  -46.2662 C.3       10 UNK        -0.1800 
     24 N          -0.2331  -18.8350  -44.3666 N.am      10 UNK        -0.5000 
     25 C          -0.3880  -19.9606  -43.6500 C.2       9 UNK         0.5000 
     26 O          -0.2527  -21.0871  -44.1239 O.2       9 UNK        -0.5000 
     27 CA         -0.8154  -19.8298  -42.1770 C.3       9 UNK         0.1400 
     28 CB          0.3562  -20.1391  -41.2330 C.3       9 UNK        -0.1800 
     29 N          -1.3882  -18.5228  -41.8532 N.am      9 UNK        -0.5000 
     30 C          -2.5868  -18.0954  -42.2792 C.2       8 UNK         0.5000 
     31 O          -3.3376  -18.7738  -42.9820 O.2       8 UNK        -0.5000 
     32 CA         -3.0064  -16.6659  -41.8795 C.3       8 UNK         0.1400 
     33 CB         -3.9120  -16.6998  -40.6393 C.3       8 UNK        -0.1800 
     34 N          -1.8730  -15.7722  -41.6201 N.am      8 UNK        -0.5000 
     35 C          -0.9976  -15.3712  -42.5517 C.2       7 UNK         0.5000 
     36 O          -1.0838  -15.7008  -43.7342 O.2       7 UNK        -0.5000 
     37 CA          0.1789  -14.4748  -42.1019 C.3       7 UNK         0.1400 
     38 CB          0.3656  -14.4058  -40.5700 C.3       7 UNK        -0.1800 
     39 N           1.4423  -14.8538  -42.7445 N.am      7 UNK        -0.5000 
     40 C           2.0203  -16.0617  -42.7324 C.2       6 UNK         0.5000 
     41 O           1.5593  -17.0498  -42.1559 O.2       6 UNK        -0.5000 
     42 CA          3.3497  -16.1769  -43.4858 C.3       6 UNK         0.1400 
     43 CB          4.5169  -15.6251  -42.6476 C.3       6 UNK        -0.1800 
     44 N           3.5879  -17.5714  -43.8345 N.am      6 UNK        -0.5000 
     45 C           4.3659  -17.9783  -44.8413 C.2       5 UNK         0.5000 
     46 O           5.0306  -17.2065  -45.5357 O.2       5 UNK        -0.5000 
     47 CA          4.3917  -19.4787  -45.1726 C.3       5 UNK         0.1400 
     48 CB          3.5571  -20.3722  -44.2343 C.3       5 UNK        -0.1800 
     49 N           3.9240  -19.5953  -46.5457 N.am      5 UNK        -0.5000 
     50 C           4.3525  -20.4539  -47.4718 C.2       4 UNK         0.5000 
     51 O           5.0833  -21.4153  -47.2321 O.2       4 UNK        -0.5000 
     52 CA          3.9418  -20.1470  -48.9291 C.3       4 UNK         0.1400 
     53 CB          2.4667  -20.5074  -49.1934 C.3       4 UNK        -0.1800 
     54 N           4.2573  -18.7670  -49.3416 N.am      4 UNK        -0.5000 
     55 C           3.7216  -17.6222  -48.8940 C.2       3 UNK         0.5000 
     56 O           2.7722  -17.5666  -48.1086 O.2       3 UNK        -0.5000 
     57 CA          4.3886  -16.3182  -49.3508 C.3       3 UNK         0.1400 
     58 CB          3.7465  -15.7719  -50.6342 C.3       3 UNK        -0.1800 
     59 N           4.2232  -15.3471  -48.2764 N.am      3 UNK        -0.5000 
     60 C           5.1460  -14.4819  -47.8463 C.2       2 UNK         0.5000 
     61 O           6.2404  -14.3230  -48.3902 O.2       2 UNK        -0.5000 
     62 CA          4.7530  -13.6405  -46.6187 C.3       2 UNK         0.1400 
     63 CB          5.7056  -12.4584  -46.3532 C.3       2 UNK        -0.1800 
     64 N           3.3816  -13.1531  -46.7705 N.am      2 UNK        -0.5000 
     65 C           2.5324  -12.9201  -45.7650 C.2       1 UNK         0.5000 
     66 O           2.8029  -13.1137  -44.5766 O.2       1 UNK        -0.5000 
     67 C          -3.5309  -21.4848  -46.5918 C.2       11 UNK         0.5000 
     68 O          -3.9330  -22.2148  -47.4941 O.2       11 UNK        -0.5000 
     69 N          -3.0800  -21.9418  -45.4156 N.am      12 UNK        -0.5000 
     70 CA         -2.9634  -23.3622  -45.0829 C.3       12 UNK         0.1400 
     71 CB         -2.8477  -23.5190  -43.5587 C.3       12 UNK        -0.1800 
     72 C          -1.7715  -24.0279  -45.7942 C.2       12 UNK         0.5000 
     73 O          -1.8838  -25.1718  -46.2353 O.2       12 UNK        -0.5000 
     74 N          -0.6531  -23.2975  -45.8935 N.am      13 UNK        -0.5000 
     75 CA          0.5790  -23.7373  -46.5443 C.3       13 UNK         0.1400 
     76 CB          1.7153  -22.7835  -46.1544 C.3       13 UNK        -0.1800 
     77 C           0.4614  -23.8409  -48.0749 C.2       13 UNK         0.5000 
     78 O           1.1515  -24.6691  -48.6703 O.2       13 UNK        -0.5000 
     79 N          -0.3945  -23.0047  -48.6809 N.am      14 UNK        -0.5000 
     80 CA         -0.6556  -22.9662  -50.1202 C.3       14 UNK         0.1400 
     81 CB         -1.5994  -21.7965  -50.4361 C.3       14 UNK        -0.1800 
     82 C          -1.2174  -24.2911  -50.6675 C.2       14 UNK         0.5000 
     83 O          -0.6783  -24.8178  -51.6415 O.2       14 UNK        -0.5000 
     84 N          -2.2591  -24.8101  -50.0070 N.am      15 UNK        -0.5000 
     85 CA         -2.9545  -26.0647  -50.2890 C.3       15 UNK         0.1400 
     86 CB         -3.5286  -26.0831  -51.7231 C.3       15 UNK        -0.1800 
     87 C          -4.1005  -26.2148  -49.2779 C.2       15 UNK         0.5000 
     88 O          -4.4216  -25.2617  -48.5621 O.2       15 UNK        -0.5000 
     89 N          -4.7468  -27.3879  -49.2769 N.am      16 UNK        -0.5000 
     90 CA         -6.0203  -27.6207  -48.5947 C.3       16 UNK         0.1400 
     91 CB         -6.3940  -29.1073  -48.7027 C.3       16 UNK        -0.1800 
     92 C          -7.1144  -26.7220  -49.2038 C.2       16 UNK         0.5000 
     93 O          -7.3828  -26.8249  -50.4027 O.2       16 UNK        -0.5000 
     94 N          -7.6653  -25.8211  -48.3787 N.am      17 UNK        -0.5000 
     95 CA         -8.5802  -24.7323  -48.7478 C.3       17 UNK         0.1400 
     96 CB         -9.9178  -25.2822  -49.2879 C.3       17 UNK        -0.1800 
     97 C          -7.9378  -23.6797  -49.6827 C.2       17 UNK         0.5000 
     98 O          -8.6450  -23.0361  -50.4592 O.2       17 UNK        -0.5000 
     99 N          -6.6082  -23.5229  -49.5925 N.am      18 UNK        -0.5000 
    100 CA        -5.7286  -22.5599  -50.2695 C.3       18 UNK         0.1400 
    101 CB        -6.1055  -21.1142  -49.9005 C.3       18 UNK        -0.1800 
    102 C         -5.5786  -22.7224  -51.7942 C.2       18 UNK         0.5000 
    103 O         -4.5194  -22.3754  -52.3195 O.2       18 UNK        -0.5000 
    104 N         -6.6054  -23.2517  -52.4727 N.am      19 UNK        -0.5000 
    105 CA        -6.6958  -23.5143  -53.9115 C.3       19 UNK         0.1400 
    106 CB        -5.7784  -24.6927  -54.3063 C.3       19 UNK        -0.1800 
    107 C         -6.4565  -22.2357  -54.7403 C.2       19 UNK         0.5000 
    108 O         -7.3615  -21.4063  -54.8419 O.2       19 UNK        -0.5000 
    109 N         -5.2454  -22.0887  -55.2950 N.am      20 UNK        -0.5000 
    110 CA        -4.7911  -20.9044  -56.0248 C.3       20 UNK         0.1400 
    111 CB        -3.4807  -21.2397  -56.7534 C.3       20 UNK        -0.1800 
    112 C         -4.6013  -19.6662  -55.1263 C.2       20 UNK         0.5000 
    113 O         -4.6775  -18.5465  -55.6338 O.2       20 UNK        -0.5000 
    114 N         -4.3502  -19.8855  -53.8243 N.am      21 UNK        -0.5000 
    115 CA        -4.2421  -18.8843  -52.7557 C.3       21 UNK         0.1400 
    116 CB        -5.6456  -18.3568  -52.3943 C.3       21 UNK        -0.1800 
    117 C         -3.2409  -17.7499  -53.0634 C.2       21 UNK         0.5000 
    118 O         -3.5453  -16.5789  -52.8325 O.2       21 UNK        -0.5000 
    119 N         -2.0782  -18.1273  -53.6157 N.am      22 UNK        -0.5000 
    120 CA        -1.0105  -17.2262  -54.0903 C.3       22 UNK         0.1400 
    121 C         -1.3944  -16.3569  -55.3322 C.2       22 UNK         0.5000 
    122 N         -2.5145  -16.5919  -56.0063 N.am      22 UNK        -0.7600 
    123 O         -0.6390  -15.4729  -55.7277 O.2       22 UNK        -0.5000 
    124 C124       -0.3726  -16.3838  -52.9441 C.3       23 UNK        -0.0398 
    125 S125        0.7234  -17.3464  -51.8432 S.3       23 UNK        -0.2404 
    126 C126       -0.4045  -18.0918  -50.6167 C.3       23 UNK        -0.0205 
    127 H127        1.0990   -9.3727  -42.8737 H         1 UNK         0.0600 
    128 H128       -0.4367  -10.1665  -43.2328 H         1 UNK         0.0600 
    129 H129       -0.0309   -8.6364  -44.0155 H         1 UNK         0.0600 
    130 H130       -0.2041  -11.9003  -44.6054 H         1 UNK         0.3000 
    131 H131        1.2159  -11.8375  -47.0730 H         1 UNK         0.0600 
    132 H132        0.6005  -14.2700  -47.2058 H         1 UNK         0.0800 
    133 H133        0.0967  -14.2458  -45.5392 H         1 UNK         0.0800 
    134 H134       -0.5570  -13.2383  -49.1451 H         1 UNK         0.0800 
    135 H135       -2.2622  -12.8745  -49.1765 H         1 UNK         0.0800 
    136 H136        0.0015  -15.4438  -49.8765 H         1 UNK         0.1150 
    137 H137       -2.8680  -18.6214  -49.6909 H         1 UNK         0.1150 
    138 H138       -3.8146  -14.7850  -48.0437 H         1 UNK         0.1150 
    139 H139       -5.6070  -16.5502  -48.6345 H         1 UNK         0.0800 
    140 H140       -5.1064  -18.2040  -48.8582 H         1 UNK         0.0800 
    141 H141       -5.6814  -19.7478  -46.8889 H         1 UNK         0.0800 
    142 H142       -5.0115  -19.5363  -45.2946 H         1 UNK         0.0800 
    143 H143       -3.4281  -19.8165  -47.8890 H         1 UNK         0.0600 
    144 H144       -2.5106  -18.7382  -45.4026 H         1 UNK         0.3000 
    145 H145        0.9642  -19.2985  -46.0075 H         1 UNK         0.0600 
    146 H146        0.9638  -16.8231  -45.7555 H         1 UNK         0.0600 
    147 H147        0.3416  -17.2755  -47.3367 H         1 UNK         0.0600 
    148 H148       -0.7716  -16.7702  -46.0871 H         1 UNK         0.0600 
    149 H149       -0.3710  -17.9451  -43.9043 H         1 UNK         0.3000 
    150 H150       -1.5864  -20.5832  -42.0020 H         1 UNK         0.0600 
    151 H151        0.7391  -21.1453  -41.4086 H         1 UNK         0.0600 
    152 H152        0.0470  -20.0881  -40.1890 H         1 UNK         0.0600 
    153 H153        1.1875  -19.4496  -41.3716 H         1 UNK         0.0600 
    154 H154       -0.8021  -17.8897  -41.3269 H         1 UNK         0.3000 
    155 H155       -3.5804  -16.2511  -42.7110 H         1 UNK         0.0600 
    156 H156       -3.3853  -17.0879  -39.7666 H         1 UNK         0.0600 
    157 H157       -4.7815  -17.3366  -40.8081 H         1 UNK         0.0600 
    158 H158       -4.2832  -15.7046  -40.3940 H         1 UNK         0.0600 
    159 H159       -1.7406  -15.4712  -40.6655 H         1 UNK         0.3000 
    160 H160       -0.0537  -13.4696  -42.4554 H         1 UNK         0.0600 
    161 H161        0.5457  -15.3901  -40.1359 H         1 UNK         0.0600 
    162 H162       -0.5085  -13.9758  -40.0798 H         1 UNK         0.0600 
    163 H163        1.2147  -13.7730  -40.3110 H         1 UNK         0.0600 
    164 H164        1.9023  -14.1198  -43.2790 H         1 UNK         0.3000 
    165 H165        3.2583  -15.6087  -44.4113 H         1 UNK         0.0600 
    166 H166        5.4565  -15.6650  -43.1986 H         1 UNK         0.0600 
    167 H167        4.3464  -14.5816  -42.3798 H         1 UNK         0.0600 
    168 H168        4.6454  -16.1875  -41.7222 H         1 UNK         0.0600 
    169 H169        3.0261  -18.2338  -43.3148 H         1 UNK         0.3000 
    170 H170        5.4358  -19.7930  -45.1152 H         1 UNK         0.0600 
    171 H171        3.8553  -20.2455  -43.1930 H         1 UNK         0.0600 
    172 H172        2.4916  -20.1607  -44.3096 H         1 UNK         0.0600 
    173 H173        3.7059  -21.4235  -44.4774 H         1 UNK         0.0600 
    174 H174        3.3833  -18.8021  -46.8865 H         1 UNK         0.3000 
    175 H175        4.5490  -20.7897  -49.5686 H         1 UNK         0.0600 
    176 H176        2.1831  -20.2883  -50.2227 H         1 UNK         0.0600 
    177 H177        2.2951  -21.5710  -49.0286 H         1 UNK         0.0600 
    178 H178        1.7866  -19.9660  -48.5361 H         1 UNK         0.0600 
    179 H179        5.0442  -18.6941  -49.9715 H         1 UNK         0.3000 
    180 H180        5.4487  -16.5133  -49.5255 H         1 UNK         0.0600 
    181 H181        2.6947  -15.5280  -50.4814 H         1 UNK         0.0600 
    182 H182        3.8042  -16.5004  -51.4438 H         1 UNK         0.0600 
    183 H183        4.2524  -14.8675  -50.9719 H         1 UNK         0.0600 
    184 H184        3.3833  -15.4873  -47.7299 H         1 UNK         0.3000 
    185 H185        4.8057  -14.3159  -45.7626 H         1 UNK         0.0600 
    186 H186        6.7300  -12.8039  -46.2094 H         1 UNK         0.0600 
    187 H187        5.7070  -11.7518  -47.1838 H         1 UNK         0.0600 
    188 H188        5.4196  -11.9156  -45.4521 H         1 UNK         0.0600 
    189 H189        3.0873  -12.9850  -47.7233 H         1 UNK         0.3000 
    190 H190       -2.7273  -21.2812  -44.7385 H         1 UNK         0.3000 
    191 H191       -3.8731  -23.8717  -45.4087 H         1 UNK         0.0600 
    192 H192       -1.9537  -23.0323  -43.1675 H         1 UNK         0.0600 
    193 H193       -2.7955  -24.5721  -43.2795 H         1 UNK         0.0600 
    194 H194       -3.7122  -23.0908  -43.0513 H         1 UNK         0.0600 
    195 H195       -0.6199  -22.3911  -45.4340 H         1 UNK         0.3000 
    196 H196        0.8254  -24.7312  -46.1651 H         1 UNK         0.0600 
    197 H197        2.6589  -23.0847  -46.6108 H         1 UNK         0.0600 
    198 H198        1.8613  -22.7797  -45.0746 H         1 UNK         0.0600 
    199 H199        1.5072  -21.7599  -46.4677 H         1 UNK         0.0600 
    200 H200       -0.8550  -22.2987  -48.1187 H         1 UNK         0.3000 
    201 H201        0.2960  -22.7759  -50.6207 H         1 UNK         0.0600 
    202 H202       -1.1554  -20.8536  -50.1265 H         1 UNK         0.0600 
    203 H203       -2.5542  -21.8945  -49.9207 H         1 UNK         0.0600 
    204 H204       -1.8046  -21.7304  -51.5054 H         1 UNK         0.0600 
    205 H205       -2.6295  -24.3204  -49.1995 H         1 UNK         0.3000 
    206 H206       -2.2556  -26.8917  -50.1529 H         1 UNK         0.0600 
    207 H207       -2.7487  -26.0527  -52.4824 H         1 UNK         0.0600 
    208 H208       -4.1077  -26.9872  -51.9131 H         1 UNK         0.0600 
    209 H209       -4.1902  -25.2353  -51.8890 H         1 UNK         0.0600 
    210 H210       -4.4440  -28.1127  -49.9110 H         1 UNK         0.3000 
    211 H211       -5.8935  -27.3750  -47.5381 H         1 UNK         0.0600 
    212 H212       -6.5075  -29.4217  -49.7411 H         1 UNK         0.0600 
    213 H213       -7.3376  -29.3087  -48.1940 H         1 UNK         0.0600 
    214 H214       -5.6349  -29.7395  -48.2417 H         1 UNK         0.0600 
    215 H215       -7.3552  -25.8102  -47.4166 H         1 UNK         0.3000 
    216 H216       -8.8013  -24.2027  -47.8202 H         1 UNK         0.0600 
    217 H217      -10.6528  -24.4837  -49.3955 H         1 UNK         0.0600 
    218 H218      -10.3429  -26.0222  -48.6100 H         1 UNK         0.0600 
    219 H219       -9.8018  -25.7494  -50.2660 H         1 UNK         0.0600 
    220 H220       -6.1076  -24.1465  -48.9669 H         1 UNK         0.3000 
    221 H221       -4.7387  -22.7575  -49.8614 H         1 UNK         0.0600 
    222 H222       -7.0452  -20.8084  -50.3612 H         1 UNK         0.0600 
    223 H223       -6.2083  -21.0002  -48.8225 H         1 UNK         0.0600 
    224 H224       -5.3330  -20.4186  -50.2265 H         1 UNK         0.0600 
    225 H225       -7.4554  -23.4127  -51.9413 H         1 UNK         0.3000 
    226 H226       -7.7248  -23.8206  -54.1053 H         1 UNK         0.0600 
    227 H227       -6.0489  -25.5945  -53.7565 H         1 UNK         0.0600 
    228 H228       -5.8738  -24.9233  -55.3680 H         1 UNK         0.0600 
    229 H229       -4.7265  -24.4893  -54.1054 H         1 UNK         0.0600 
    230 H230       -4.5576  -22.8092  -55.1298 H         1 UNK         0.3000 
    231 H231       -5.5461  -20.6550  -56.7733 H         1 UNK         0.0600 
    232 H232       -3.6176  -22.0657  -57.4515 H         1 UNK         0.0600 
    233 H233       -2.6908  -21.5171  -56.0542 H         1 UNK         0.0600 
    234 H234       -3.1239  -20.3848  -57.3295 H         1 UNK         0.0600 
    235 H235       -4.3083  -20.8510  -53.5080 H         1 UNK         0.3000 
    236 H236       -3.8482  -19.4098  -51.8852 H         1 UNK         0.0600 
    237 H237       -6.0700  -17.7609  -53.2032 H         1 UNK         0.0600 
    238 H238       -6.3358  -19.1748  -52.1900 H         1 UNK         0.0600 
    239 H239       -5.6109  -17.7276  -51.5041 H         1 UNK         0.0600 
    240 H240       -1.9346  -19.1091  -53.8007 H         1 UNK         0.3000 
    241 H241       -0.2323  -17.8862  -54.4746 H         1 UNK         0.0600 
    242 H242       -3.1764  -17.3036  -55.7127 H         1 UNK         0.3800 
    243 H243       -2.7275  -16.0256  -56.8117 H         1 UNK         0.3800 
    244 H244       -1.1294  -15.8572  -52.3649 H         1 UNK         0.0800 
    245 H245        0.2635  -15.5980  -53.3535 H         1 UNK         0.0800 
    246 H246        0.1927  -18.6219  -49.8742 H         1 UNK         0.0800 
    247 H247       -0.9921  -18.8455  -51.1385 H         1 UNK         0.0800 
@<TRIPOS>BOND
     1    1    2 1    
     2    1  127 1    
     3    1  128 1    
     4    1  129 1    
     5    2    3 2    
     6    2    4 am   BACKBONE|DICT|INTERRES
     7    4    5 1    
     8    4  130 1    
     9    5    6 1    
    10    5   65 1    
    11    5  131 1    
    12    6    7 1    
    13    6  132 1    
    14    6  133 1    
    15    7    8 1    
    16    8    9 1    
    17    8  134 1    
    18    8  135 1    
    19    9   10 ar   
    20    9   14 ar   
    21   10   11 ar   
    22   10  136 1    
    23   11   12 ar   
    24   11  126 1    
    25   12   13 ar   
    26   12  137 1    
    27   13   14 ar   
    28   13   15 1    
    29   14  138 1    
    30   15   16 1    
    31   15  139 1    
    32   15  140 1    
    33   16   17 1    
    34   17   18 1    
    35   17  141 1    
    36   17  142 1    
    37   18   19 1    
    38   18   67 1    
    39   18  143 1    
    40   19   20 am   BACKBONE|DICT|INTERRES
    41   19  144 1    
    42   20   21 2    
    43   20   22 1    
    44   22   23 1    
    45   22   24 1    
    46   22  145 1    
    47   23  146 1    
    48   23  147 1    
    49   23  148 1    
    50   24   25 am   BACKBONE|DICT|INTERRES
    51   24  149 1    
    52   25   26 2    
    53   25   27 1    
    54   27   28 1    
    55   27   29 1    
    56   27  150 1    
    57   28  151 1    
    58   28  152 1    
    59   28  153 1    
    60   29   30 am   BACKBONE|DICT|INTERRES
    61   29  154 1    
    62   30   31 2    
    63   30   32 1    
    64   32   33 1    
    65   32   34 1    
    66   32  155 1    
    67   33  156 1    
    68   33  157 1    
    69   33  158 1    
    70   34   35 am   BACKBONE|DICT|INTERRES
    71   34  159 1    
    72   35   36 2    
    73   35   37 1    
    74   37   38 1    
    75   37   39 1    
    76   37  160 1    
    77   38  161 1    
    78   38  162 1    
    79   38  163 1    
    80   39   40 am   BACKBONE|DICT|INTERRES
    81   39  164 1    
    82   40   41 2    
    83   40   42 1    
    84   42   43 1    
    85   42   44 1    
    86   42  165 1    
    87   43  166 1    
    88   43  167 1    
    89   43  168 1    
    90   44   45 am   BACKBONE|DICT|INTERRES
    91   44  169 1    
    92   45   46 2    
    93   45   47 1    
    94   47   48 1    
    95   47   49 1    
    96   47  170 1    
    97   48  171 1    
    98   48  172 1    
    99   48  173 1    
   100   49   50 am   BACKBONE|DICT|INTERRES
   101   49  174 1    
   102   50   51 2    
   103   50   52 1    
   104   52   53 1    
   105   52   54 1    
   106   52  175 1    
   107   53  176 1    
   108   53  177 1    
   109   53  178 1    
   110   54   55 am   BACKBONE|DICT|INTERRES
   111   54  179 1    
   112   55   56 2    
   113   55   57 1    
   114   57   58 1    
   115   57   59 1    
   116   57  180 1    
   117   58  181 1    
   118   58  182 1    
   119   58  183 1    
   120   59   60 am   BACKBONE|DICT|INTERRES
   121   59  184 1    
   122   60   61 2    
   123   60   62 1    
   124   62   63 1    
   125   62   64 1    
   126   62  185 1    
   127   63  186 1    
   128   63  187 1    
   129   63  188 1    
   130   64   65 am   BACKBONE|DICT|INTERRES
   131   64  189 1    
   132   65   66 2    
   133   67   68 2    
   134   67   69 am   BACKBONE|DICT|INTERRES
   135   69   70 1    
   136   69  190 1    
   137   70   71 1    
   138   70   72 1    
   139   70  191 1    
   140   71  192 1    
   141   71  193 1    
   142   71  194 1    
   143   72   73 2    
   144   72   74 am   BACKBONE|DICT|INTERRES
   145   74   75 1    
   146   74  195 1    
   147   75   76 1    
   148   75   77 1    
   149   75  196 1    
   150   76  197 1    
   151   76  198 1    
   152   76  199 1    
   153   77   78 2    
   154   77   79 am   BACKBONE|DICT|INTERRES
   155   79   80 1    
   156   79  200 1    
   157   80   81 1    
   158   80   82 1    
   159   80  201 1    
   160   81  202 1    
   161   81  203 1    
   162   81  204 1    
   163   82   83 2    
   164   82   84 am   BACKBONE|DICT|INTERRES
   165   84   85 1    
   166   84  205 1    
   167   85   86 1    
   168   85   87 1    
   169   85  206 1    
   170   86  207 1    
   171   86  208 1    
   172   86  209 1    
   173   87   88 2    
   174   87   89 am   BACKBONE|DICT|INTERRES
   175   89   90 1    
   176   89  210 1    
   177   90   91 1    
   178   90   92 1    
   179   90  211 1    
   180   91  212 1    
   181   91  213 1    
   182   91  214 1    
   183   92   93 2    
   184   92   94 am   BACKBONE|DICT|INTERRES
   185   94   95 1    
   186   94  215 1    
   187   95   96 1    
   188   95   97 1    
   189   95  216 1    
   190   96  217 1    
   191   96  218 1    
   192   96  219 1    
   193   97   98 2    
   194   97   99 am   BACKBONE|DICT|INTERRES
   195   99  100 1    
   196   99  220 1    
   197  100  101 1    
   198  100  102 1    
   199  100  221 1    
   200  101  222 1    
   201  101  223 1    
   202  101  224 1    
   203  102  103 2    
   204  102  104 am   BACKBONE|DICT|INTERRES
   205  104  105 1    
   206  104  225 1    
   207  105  106 1    
   208  105  107 1    
   209  105  226 1    
   210  106  227 1    
   211  106  228 1    
   212  106  229 1    
   213  107  108 2    
   214  107  109 am   BACKBONE|DICT|INTERRES
   215  109  110 1    
   216  109  230 1    
   217  110  111 1    
   218  110  112 1    
   219  110  231 1    
   220  111  232 1    
   221  111  233 1    
   222  111  234 1    
   223  112  113 2    
   224  112  114 am   BACKBONE|DICT|INTERRES
   225  114  115 1    
   226  114  235 1    
   227  115  116 1    
   228  115  117 1    
   229  115  236 1    
   230  116  237 1    
   231  116  238 1    
   232  116  239 1    
   233  117  118 2    
   234  117  119 am   BACKBONE|DICT|INTERRES
   235  119  120 1    
   236  119  240 1    
   237  120  121 1    
   238  120  124 1    
   239  120  241 1    
   240  121  122 am   BACKBONE|DICT|INTERRES
   241  121  123 2    
   242  122  242 1    
   243  122  243 1    
   244  124  125 1    
   245  124  244 1    
   246  124  245 1    
   247  125  126 1    
   248  126  246 1    
   249  126  247 1    
@<TRIPOS>SUBSTRUCTURE
     1 UNK         1 GROUP             0       ****    0 ROOT    
