@<TRIPOS>MOLECULE
3R540
247   249    1
SMALL
USER_CHARGES


@<TRIPOS>ATOM
      1 CA         -2.0319  -13.6955  -45.3086 C.3       0 UNK        -0.1800 
      2 C          -1.7599  -13.5370  -46.7984 C.2       0 UNK         0.5000 
      3 O          -2.6714  -13.7161  -47.6061 O.2       0 UNK        -0.5000 
      4 N          -0.5157  -13.1965  -47.1517 N.am      1 UNK        -0.5000 
      5 CA         -0.0848  -12.8412  -48.5077 C.3       1 UNK         0.1400 
      6 C6          1.2563  -13.5285  -48.9049 C.3       23 UNK        -0.0398 
      7 S7          1.2580  -15.3385  -48.6858 S.3       23 UNK        -0.2404 
      8 C8          0.4171  -15.9024  -50.1934 C.3       23 UNK        -0.0205 
      9 C9         -0.4573  -17.1043  -49.8845 C.ar      23 UNK        -0.0193 
     10 C10        -1.6667  -16.9147  -49.2127 C.ar      23 UNK        -0.1150 
     11 C11        -2.5023  -17.9976  -48.9349 C.ar      23 UNK        -0.0193 
     12 C12        -2.0990  -19.2843  -49.2975 C.ar      23 UNK        -0.1150 
     13 C13        -0.8906  -19.4902  -49.9692 C.ar      23 UNK        -0.0193 
     14 C14        -0.0748  -18.3937  -50.2676 C.ar      23 UNK        -0.1150 
     15 C15        -0.4850  -20.9002  -50.3778 C.3       23 UNK        -0.0205 
     16 S16         1.0593  -21.4666  -49.5929 S.3       23 UNK        -0.2404 
     17 C17         0.6926  -21.2604  -47.8203 C.3       23 UNK        -0.0398 
     18 CA          0.3172  -22.5638  -47.0745 C.3       11 UNK         0.1400 
     19 N           0.5661  -22.4203  -45.6358 N.am      11 UNK        -0.5000 
     20 C           0.4623  -23.3935  -44.7212 C.2       10 UNK         0.5000 
     21 O           0.2027  -24.5633  -44.9972 O.2       10 UNK        -0.5000 
     22 CA          0.6260  -22.9794  -43.2454 C.3       10 UNK         0.1400 
     23 CB          2.1099  -22.8987  -42.8591 C.3       10 UNK        -0.1800 
     24 N          -0.0353  -21.7083  -42.9399 N.am      10 UNK        -0.5000 
     25 C          -1.3602  -21.5093  -43.0053 C.2       9 UNK         0.5000 
     26 O          -2.1685  -22.3998  -43.2619 O.2       9 UNK        -0.5000 
     27 CA         -1.8642  -20.0652  -42.8195 C.3       9 UNK         0.1400 
     28 CB         -1.9750  -19.7001  -41.3323 C.3       9 UNK        -0.1800 
     29 N          -1.0208  -19.0909  -43.5132 N.am      9 UNK        -0.5000 
     30 C          -0.8571  -19.0506  -44.8438 C.2       8 UNK         0.5000 
     31 O          -1.4634  -19.7810  -45.6259 O.2       8 UNK        -0.5000 
     32 CA          0.2015  -18.0744  -45.3830 C.3       8 UNK         0.1400 
     33 CB         -0.3998  -16.6767  -45.5632 C.3       8 UNK        -0.1800 
     34 N           1.3721  -18.0114  -44.5037 N.am      8 UNK        -0.5000 
     35 C           2.2714  -19.0006  -44.3909 C.2       7 UNK         0.5000 
     36 O           2.2350  -20.0268  -45.0676 O.2       7 UNK        -0.5000 
     37 CA          3.3543  -18.8593  -43.3043 C.3       7 UNK         0.1400 
     38 CB          4.6145  -18.1721  -43.8483 C.3       7 UNK        -0.1800 
     39 N           2.8683  -18.1505  -42.1202 N.am      7 UNK        -0.5000 
     40 C           1.9986  -18.6829  -41.2493 C.2       6 UNK         0.5000 
     41 O           1.5707  -19.8333  -41.3412 O.2       6 UNK        -0.5000 
     42 CA          1.4814  -17.7757  -40.1156 C.3       6 UNK         0.1400 
     43 CB          2.3637  -17.9204  -38.8674 C.3       6 UNK        -0.1800 
     44 N           1.3983  -16.3613  -40.4844 N.am      6 UNK        -0.5000 
     45 C           0.6505  -15.8625  -41.4781 C.2       5 UNK         0.5000 
     46 O          -0.0817  -16.5547  -42.1857 O.2       5 UNK        -0.5000 
     47 CA          0.7718  -14.3501  -41.7622 C.3       5 UNK         0.1400 
     48 CB          1.2370  -13.5301  -40.5395 C.3       5 UNK        -0.1800 
     49 N           1.6321  -14.0564  -42.9143 N.am      5 UNK        -0.5000 
     50 C           2.8854  -14.4758  -43.1381 C.2       4 UNK         0.5000 
     51 O           3.4943  -15.2484  -42.3970 O.2       4 UNK        -0.5000 
     52 CA          3.5989  -13.9355  -44.3928 C.3       4 UNK         0.1400 
     53 CB          3.1810  -14.7134  -45.6554 C.3       4 UNK        -0.1800 
     54 N           3.4841  -12.4830  -44.5976 N.am      4 UNK        -0.5000 
     55 C           2.4059  -11.7675  -44.9455 C.2       3 UNK         0.5000 
     56 O           1.2829  -12.2552  -45.0919 O.2       3 UNK        -0.5000 
     57 CA          2.6116  -10.2747  -45.2531 C.3       3 UNK         0.1400 
     58 CB          4.0089   -9.7219  -44.9038 C.3       3 UNK        -0.1800 
     59 N           2.3596  -10.1330  -46.6787 N.am      3 UNK        -0.5000 
     60 C           1.8238   -9.0808  -47.3073 C.2       2 UNK         0.5000 
     61 O           1.6010   -7.9945  -46.7720 O.2       2 UNK        -0.5000 
     62 CA          1.4377   -9.3121  -48.7862 C.3       2 UNK         0.1400 
     63 CB          2.5897   -8.9048  -49.7173 C.3       2 UNK        -0.1800 
     64 N           1.0854  -10.7168  -49.0366 N.am      2 UNK        -0.5000 
     65 C          -0.0296  -11.2951  -48.5616 C.2       1 UNK         0.5000 
     66 O          -0.9752  -10.6392  -48.1166 O.2       1 UNK        -0.5000 
     67 C          -1.1379  -23.0032  -47.3631 C.2       11 UNK         0.5000 
     68 O          -1.3622  -23.9098  -48.1680 O.2       11 UNK        -0.5000 
     69 N          -2.1010  -22.3887  -46.6621 N.am      12 UNK        -0.5000 
     70 CA         -3.5158  -22.7516  -46.7059 C.3       12 UNK         0.1400 
     71 CB         -4.3545  -21.6642  -46.0208 C.3       12 UNK        -0.1800 
     72 C          -3.7992  -24.1403  -46.1071 C.2       12 UNK         0.5000 
     73 O          -4.5522  -24.9066  -46.7071 O.2       12 UNK        -0.5000 
     74 N          -3.1623  -24.4673  -44.9733 N.am      13 UNK        -0.5000 
     75 CA         -3.2441  -25.7776  -44.3172 C.3       13 UNK         0.1400 
     76 CB         -2.5449  -25.7170  -42.9513 C.3       13 UNK        -0.1800 
     77 C          -2.6688  -26.9234  -45.1740 C.2       13 UNK         0.5000 
     78 O          -3.1887  -28.0384  -45.1277 O.2       13 UNK        -0.5000 
     79 N          -1.6425  -26.6147  -45.9780 N.am      14 UNK        -0.5000 
     80 CA         -1.0567  -27.4958  -46.9910 C.3       14 UNK         0.1400 
     81 CB          0.3453  -26.9734  -47.3466 C.3       14 UNK        -0.1800 
     82 C          -1.9246  -27.6459  -48.2614 C.2       14 UNK         0.5000 
     83 O          -1.5510  -28.4118  -49.1503 O.2       14 UNK        -0.5000 
     84 N          -3.0492  -26.9162  -48.3338 N.am      15 UNK        -0.5000 
     85 CA         -4.0423  -26.8770  -49.4128 C.3       15 UNK         0.1400 
     86 CB         -4.6572  -28.2686  -49.6691 C.3       15 UNK        -0.1800 
     87 C          -3.5437  -26.2013  -50.7054 C.2       15 UNK         0.5000 
     88 O          -4.2112  -26.3003  -51.7361 O.2       15 UNK        -0.5000 
     89 N          -2.4172  -25.4769  -50.6352 N.am      16 UNK        -0.5000 
     90 CA         -1.8477  -24.7340  -51.7619 C.3       16 UNK         0.1400 
     91 CB         -0.3748  -24.4171  -51.4744 C.3       16 UNK        -0.1800 
     92 C          -2.6455  -23.4617  -52.1056 C.2       16 UNK         0.5000 
     93 O          -2.5241  -22.9569  -53.2222 O.2       16 UNK        -0.5000 
     94 N          -3.4937  -22.9969  -51.1737 N.am      17 UNK        -0.5000 
     95 CA         -4.4502  -21.9011  -51.3617 C.3       17 UNK         0.1400 
     96 CB         -5.2304  -21.6642  -50.0599 C.3       17 UNK        -0.1800 
     97 C          -5.4384  -22.1343  -52.5199 C.2       17 UNK         0.5000 
     98 O          -5.8661  -21.1664  -53.1447 O.2       17 UNK        -0.5000 
     99 N          -5.7546  -23.4040  -52.8132 N.am      18 UNK        -0.5000 
    100 CA        -6.6046  -23.8061  -53.9350 C.3       18 UNK         0.1400 
    101 CB        -6.9498  -25.2960  -53.7920 C.3       18 UNK        -0.1800 
    102 C         -5.9674  -23.5290  -55.3118 C.2       18 UNK         0.5000 
    103 O         -6.6971  -23.2997  -56.2770 O.2       18 UNK        -0.5000 
    104 N         -4.6291  -23.5483  -55.3768 N.am      19 UNK        -0.5000 
    105 CA        -3.8533  -23.2428  -56.5765 C.3       19 UNK         0.1400 
    106 CB        -2.6111  -24.1474  -56.6187 C.3       19 UNK        -0.1800 
    107 C         -3.4460  -21.7609  -56.6111 C.2       19 UNK         0.5000 
    108 O         -3.5539  -21.1249  -57.6601 O.2       19 UNK        -0.5000 
    109 N         -2.9784  -21.2404  -55.4681 N.am      20 UNK        -0.5000 
    110 CA        -2.4567  -19.8806  -55.3283 C.3       20 UNK         0.1400 
    111 CB        -1.6191  -19.8052  -54.0404 C.3       20 UNK        -0.1800 
    112 C         -3.5422  -18.7891  -55.3105 C.2       20 UNK         0.5000 
    113 O         -3.2296  -17.6317  -55.5950 O.2       20 UNK        -0.5000 
    114 N         -4.7702  -19.1491  -54.9014 N.am      21 UNK        -0.5000 
    115 CA        -5.9186  -18.2650  -54.6371 C.3       21 UNK         0.1400 
    116 CB        -6.4226  -17.6228  -55.9457 C.3       21 UNK        -0.1800 
    117 C         -5.6424  -17.2183  -53.5309 C.2       21 UNK         0.5000 
    118 O         -6.3245  -16.1945  -53.4623 O.2       21 UNK        -0.5000 
    119 N         -4.6170  -17.4882  -52.7125 N.am      22 UNK        -0.5000 
    120 CA        -3.9656  -16.5713  -51.7668 C.3       22 UNK         0.1400 
    121 C         -3.3382  -15.2985  -52.4187 C.2       22 UNK         0.5000 
    122 N         -3.0189  -15.3058  -53.7089 N.am      22 UNK        -0.7600 
    123 O         -3.1013  -14.2982  -51.7475 O.2       22 UNK        -0.5000 
    124 C124       -4.8204  -16.2721  -50.5020 C.3       23 UNK        -0.0398 
    125 S125       -5.1963  -17.7776  -49.5325 S.3       23 UNK        -0.2404 
    126 C126       -3.8594  -17.7699  -48.2892 C.3       23 UNK        -0.0205 
    127 H127       -1.1080  -13.7332  -44.7308 H         1 UNK         0.0600 
    128 H128       -2.6266  -12.8571  -44.9467 H         1 UNK         0.0600 
    129 H129       -2.5883  -14.6138  -45.1212 H         1 UNK         0.0600 
    130 H130        0.1574  -12.9938  -46.4172 H         1 UNK         0.3000 
    131 H131       -0.8405  -13.1492  -49.2328 H         1 UNK         0.0600 
    132 H132        2.0769  -13.1487  -48.2942 H         1 UNK         0.0800 
    133 H133        1.5116  -13.3106  -49.9433 H         1 UNK         0.0800 
    134 H134        1.1598  -16.1419  -50.9557 H         1 UNK         0.0800 
    135 H135       -0.2066  -15.1072  -50.6046 H         1 UNK         0.0800 
    136 H136       -1.9677  -15.9155  -48.9312 H         1 UNK         0.1150 
    137 H137       -2.7355  -20.1240  -49.0671 H         1 UNK         0.1150 
    138 H138        0.8600  -18.5481  -50.7879 H         1 UNK         0.1150 
    139 H139       -1.2749  -21.6091  -50.1309 H         1 UNK         0.0800 
    140 H140       -0.3659  -20.9387  -51.4611 H         1 UNK         0.0800 
    141 H141        1.6102  -20.8537  -47.3967 H         1 UNK         0.0800 
    142 H142       -0.0577  -20.4870  -47.6669 H         1 UNK         0.0800 
    143 H143        0.9742  -23.3620  -47.4263 H         1 UNK         0.0600 
    144 H144        0.8468  -21.4978  -45.3213 H         1 UNK         0.3000 
    145 H145        0.1607  -23.7512  -42.6295 H         1 UNK         0.0600 
    146 H146        2.6392  -22.1436  -43.4395 H         1 UNK         0.0600 
    147 H147        2.2298  -22.6538  -41.8035 H         1 UNK         0.0600 
    148 H148        2.6089  -23.8532  -43.0309 H         1 UNK         0.0600 
    149 H149        0.5600  -20.9402  -42.6466 H         1 UNK         0.3000 
    150 H150       -2.8635  -20.0039  -43.2556 H         1 UNK         0.0600 
    151 H151       -2.3271  -18.6766  -41.2010 H         1 UNK         0.0600 
    152 H152       -1.0197  -19.7951  -40.8181 H         1 UNK         0.0600 
    153 H153       -2.6830  -20.3566  -40.8254 H         1 UNK         0.0600 
    154 H154       -0.5295  -18.4109  -42.9436 H         1 UNK         0.3000 
    155 H155        0.5237  -18.4281  -46.3648 H         1 UNK         0.0600 
    156 H156       -0.7956  -16.2802  -44.6298 H         1 UNK         0.0600 
    157 H157       -1.2197  -16.6996  -46.2817 H         1 UNK         0.0600 
    158 H158        0.3392  -15.9732  -45.9394 H         1 UNK         0.0600 
    159 H159        1.4131  -17.2355  -43.8585 H         1 UNK         0.3000 
    160 H160        3.6404  -19.8689  -43.0018 H         1 UNK         0.0600 
    161 H161        4.4332  -17.1306  -44.1043 H         1 UNK         0.0600 
    162 H162        4.9779  -18.6743  -44.7458 H         1 UNK         0.0600 
    163 H163        5.4198  -18.1962  -43.1141 H         1 UNK         0.0600 
    164 H164        3.1570  -17.1830  -42.0076 H         1 UNK         0.3000 
    165 H165        0.4736  -18.1090  -39.8616 H         1 UNK         0.0600 
    166 H166        3.3806  -17.5710  -39.0512 H         1 UNK         0.0600 
    167 H167        1.9589  -17.3526  -38.0294 H         1 UNK         0.0600 
    168 H168        2.4262  -18.9629  -38.5521 H         1 UNK         0.0600 
    169 H169        2.0058  -15.7288  -39.9842 H         1 UNK         0.3000 
    170 H170       -0.2302  -14.0092  -42.0269 H         1 UNK         0.0600 
    171 H171        0.6116  -13.7308  -39.6685 H         1 UNK         0.0600 
    172 H172        2.2708  -13.7437  -40.2659 H         1 UNK         0.0600 
    173 H173        1.1683  -12.4614  -40.7432 H         1 UNK         0.0600 
    174 H174        1.2387  -13.4330  -43.6139 H         1 UNK         0.3000 
    175 H175        4.6630  -14.1238  -44.2406 H         1 UNK         0.0600 
    176 H176        2.1356  -14.5475  -45.9073 H         1 UNK         0.0600 
    177 H177        3.7802  -14.4171  -46.5162 H         1 UNK         0.0600 
    178 H178        3.3083  -15.7874  -45.5286 H         1 UNK         0.0600 
    179 H179        4.3510  -11.9754  -44.4874 H         1 UNK         0.3000 
    180 H180        1.8573   -9.7223  -44.6890 H         1 UNK         0.0600 
    181 H181        4.2320   -9.8527  -43.8441 H         1 UNK         0.0600 
    182 H182        4.7980  -10.2063  -45.4803 H         1 UNK         0.0600 
    183 H183        4.0639   -8.6529  -45.1109 H         1 UNK         0.0600 
    184 H184        2.4775  -10.9828  -47.2089 H         1 UNK         0.3000 
    185 H185        0.5738   -8.6835  -49.0128 H         1 UNK         0.0600 
    186 H186        2.3102   -9.0214  -50.7645 H         1 UNK         0.0600 
    187 H187        2.8587   -7.8582  -49.5682 H         1 UNK         0.0600 
    188 H188        3.4849   -9.5019  -49.5391 H         1 UNK         0.0600 
    189 H189        1.8054  -11.2879  -49.4536 H         1 UNK         0.3000 
    190 H190       -1.8481  -21.6067  -46.0636 H         1 UNK         0.3000 
    191 H191       -3.8091  -22.7954  -47.7545 H         1 UNK         0.0600 
    192 H192       -5.4188  -21.8942  -46.0835 H         1 UNK         0.0600 
    193 H193       -4.2020  -20.6952  -46.4949 H         1 UNK         0.0600 
    194 H194       -4.1009  -21.5621  -44.9658 H         1 UNK         0.0600 
    195 H195       -2.6086  -23.7565  -44.5016 H         1 UNK         0.3000 
    196 H196       -4.3006  -25.9945  -44.1465 H         1 UNK         0.0600 
    197 H197       -2.6390  -26.6663  -42.4226 H         1 UNK         0.0600 
    198 H198       -2.9828  -24.9464  -42.3168 H         1 UNK         0.0600 
    199 H199       -1.4813  -25.5036  -43.0535 H         1 UNK         0.0600 
    200 H200       -1.2237  -25.6944  -45.8879 H         1 UNK         0.3000 
    201 H201       -0.9468  -28.4918  -46.5575 H         1 UNK         0.0600 
    202 H202        0.9792  -26.9129  -46.4617 H         1 UNK         0.0600 
    203 H203        0.3039  -25.9811  -47.7958 H         1 UNK         0.0600 
    204 H204        0.8440  -27.6341  -48.0566 H         1 UNK         0.0600 
    205 H205       -3.2602  -26.3031  -47.5548 H         1 UNK         0.3000 
    206 H206       -4.8460  -26.2380  -49.0458 H         1 UNK         0.0600 
    207 H207       -5.0043  -28.7234  -48.7412 H         1 UNK         0.0600 
    208 H208       -5.5177  -28.1983  -50.3355 H         1 UNK         0.0600 
    209 H209       -3.9446  -28.9506  -50.1331 H         1 UNK         0.0600 
    210 H210       -1.9494  -25.3800  -49.7415 H         1 UNK         0.3000 
    211 H211       -1.8803  -25.3731  -52.6469 H         1 UNK         0.0600 
    212 H212        0.0628  -23.8101  -52.2682 H         1 UNK         0.0600 
    213 H213        0.2143  -25.3312  -51.4007 H         1 UNK         0.0600 
    214 H214       -0.2567  -23.8738  -50.5397 H         1 UNK         0.0600 
    215 H215       -3.5188  -23.4767  -50.2865 H         1 UNK         0.3000 
    216 H216       -3.8829  -20.9972  -51.5916 H         1 UNK         0.0600 
    217 H217       -5.9978  -20.9007  -50.1972 H         1 UNK         0.0600 
    218 H218       -4.5812  -21.3104  -49.2633 H         1 UNK         0.0600 
    219 H219       -5.7287  -22.5710  -49.7151 H         1 UNK         0.0600 
    220 H220       -5.3480  -24.1496  -52.2648 H         1 UNK         0.3000 
    221 H221       -7.5324  -23.2329  -53.8790 H         1 UNK         0.0600 
    222 H222       -6.0572  -25.9214  -53.8357 H         1 UNK         0.0600 
    223 H223       -7.4534  -25.4963  -52.8461 H         1 UNK         0.0600 
    224 H224       -7.6176  -25.6208  -54.5909 H         1 UNK         0.0600 
    225 H225       -4.1028  -23.7000  -54.5264 H         1 UNK         0.3000 
    226 H226       -4.4474  -23.4508  -57.4691 H         1 UNK         0.0600 
    227 H227       -2.0136  -23.9476  -57.5091 H         1 UNK         0.0600 
    228 H228       -1.9677  -23.9972  -55.7510 H         1 UNK         0.0600 
    229 H229       -2.8933  -25.2000  -56.6465 H         1 UNK         0.0600 
    230 H230       -2.8799  -21.8471  -54.6575 H         1 UNK         0.3000 
    231 H231       -1.7985  -19.6746  -56.1750 H         1 UNK         0.0600 
    232 H232       -1.1844  -18.8132  -53.9091 H         1 UNK         0.0600 
    233 H233       -0.7953  -20.5189  -54.0647 H         1 UNK         0.0600 
    234 H234       -2.2185  -20.0200  -53.1553 H         1 UNK         0.0600 
    235 H235       -4.9207  -20.1152  -54.6315 H         1 UNK         0.3000 
    236 H236       -6.7177  -18.9018  -54.2564 H         1 UNK         0.0600 
    237 H237       -5.7078  -16.9040  -56.3471 H         1 UNK         0.0600 
    238 H238       -6.6045  -18.3782  -56.7101 H         1 UNK         0.0600 
    239 H239       -7.3621  -17.0928  -55.7851 H         1 UNK         0.0600 
    240 H240       -4.1493  -18.3708  -52.8463 H         1 UNK         0.3000 
    241 H241       -3.0905  -17.1287  -51.4433 H         1 UNK         0.0600 
    242 H242       -2.6060  -14.4819  -54.1155 H         1 UNK         0.3800 
    243 H243       -3.1799  -16.1209  -54.2919 H         1 UNK         0.3800 
    244 H244       -5.7598  -15.7967  -50.7858 H         1 UNK         0.0800 
    245 H245       -4.3147  -15.5628  -49.8447 H         1 UNK         0.0800 
    246 H246       -3.8725  -16.8272  -47.7393 H         1 UNK         0.0800 
    247 H247       -4.0485  -18.5536  -47.5553 H         1 UNK         0.0800 
@<TRIPOS>BOND
     1    1    2 1    
     2    1  127 1    
     3    1  128 1    
     4    1  129 1    
     5    2    3 2    
     6    2    4 am   BACKBONE|DICT|INTERRES
     7    4    5 1    
     8    4  130 1    
     9    5    6 1    
    10    5   65 1    
    11    5  131 1    
    12    6    7 1    
    13    6  132 1    
    14    6  133 1    
    15    7    8 1    
    16    8    9 1    
    17    8  134 1    
    18    8  135 1    
    19    9   10 ar   
    20    9   14 ar   
    21   10   11 ar   
    22   10  136 1    
    23   11   12 ar   
    24   11  126 1    
    25   12   13 ar   
    26   12  137 1    
    27   13   14 ar   
    28   13   15 1    
    29   14  138 1    
    30   15   16 1    
    31   15  139 1    
    32   15  140 1    
    33   16   17 1    
    34   17   18 1    
    35   17  141 1    
    36   17  142 1    
    37   18   19 1    
    38   18   67 1    
    39   18  143 1    
    40   19   20 am   BACKBONE|DICT|INTERRES
    41   19  144 1    
    42   20   21 2    
    43   20   22 1    
    44   22   23 1    
    45   22   24 1    
    46   22  145 1    
    47   23  146 1    
    48   23  147 1    
    49   23  148 1    
    50   24   25 am   BACKBONE|DICT|INTERRES
    51   24  149 1    
    52   25   26 2    
    53   25   27 1    
    54   27   28 1    
    55   27   29 1    
    56   27  150 1    
    57   28  151 1    
    58   28  152 1    
    59   28  153 1    
    60   29   30 am   BACKBONE|DICT|INTERRES
    61   29  154 1    
    62   30   31 2    
    63   30   32 1    
    64   32   33 1    
    65   32   34 1    
    66   32  155 1    
    67   33  156 1    
    68   33  157 1    
    69   33  158 1    
    70   34   35 am   BACKBONE|DICT|INTERRES
    71   34  159 1    
    72   35   36 2    
    73   35   37 1    
    74   37   38 1    
    75   37   39 1    
    76   37  160 1    
    77   38  161 1    
    78   38  162 1    
    79   38  163 1    
    80   39   40 am   BACKBONE|DICT|INTERRES
    81   39  164 1    
    82   40   41 2    
    83   40   42 1    
    84   42   43 1    
    85   42   44 1    
    86   42  165 1    
    87   43  166 1    
    88   43  167 1    
    89   43  168 1    
    90   44   45 am   BACKBONE|DICT|INTERRES
    91   44  169 1    
    92   45   46 2    
    93   45   47 1    
    94   47   48 1    
    95   47   49 1    
    96   47  170 1    
    97   48  171 1    
    98   48  172 1    
    99   48  173 1    
   100   49   50 am   BACKBONE|DICT|INTERRES
   101   49  174 1    
   102   50   51 2    
   103   50   52 1    
   104   52   53 1    
   105   52   54 1    
   106   52  175 1    
   107   53  176 1    
   108   53  177 1    
   109   53  178 1    
   110   54   55 am   BACKBONE|DICT|INTERRES
   111   54  179 1    
   112   55   56 2    
   113   55   57 1    
   114   57   58 1    
   115   57   59 1    
   116   57  180 1    
   117   58  181 1    
   118   58  182 1    
   119   58  183 1    
   120   59   60 am   BACKBONE|DICT|INTERRES
   121   59  184 1    
   122   60   61 2    
   123   60   62 1    
   124   62   63 1    
   125   62   64 1    
   126   62  185 1    
   127   63  186 1    
   128   63  187 1    
   129   63  188 1    
   130   64   65 am   BACKBONE|DICT|INTERRES
   131   64  189 1    
   132   65   66 2    
   133   67   68 2    
   134   67   69 am   BACKBONE|DICT|INTERRES
   135   69   70 1    
   136   69  190 1    
   137   70   71 1    
   138   70   72 1    
   139   70  191 1    
   140   71  192 1    
   141   71  193 1    
   142   71  194 1    
   143   72   73 2    
   144   72   74 am   BACKBONE|DICT|INTERRES
   145   74   75 1    
   146   74  195 1    
   147   75   76 1    
   148   75   77 1    
   149   75  196 1    
   150   76  197 1    
   151   76  198 1    
   152   76  199 1    
   153   77   78 2    
   154   77   79 am   BACKBONE|DICT|INTERRES
   155   79   80 1    
   156   79  200 1    
   157   80   81 1    
   158   80   82 1    
   159   80  201 1    
   160   81  202 1    
   161   81  203 1    
   162   81  204 1    
   163   82   83 2    
   164   82   84 am   BACKBONE|DICT|INTERRES
   165   84   85 1    
   166   84  205 1    
   167   85   86 1    
   168   85   87 1    
   169   85  206 1    
   170   86  207 1    
   171   86  208 1    
   172   86  209 1    
   173   87   88 2    
   174   87   89 am   BACKBONE|DICT|INTERRES
   175   89   90 1    
   176   89  210 1    
   177   90   91 1    
   178   90   92 1    
   179   90  211 1    
   180   91  212 1    
   181   91  213 1    
   182   91  214 1    
   183   92   93 2    
   184   92   94 am   BACKBONE|DICT|INTERRES
   185   94   95 1    
   186   94  215 1    
   187   95   96 1    
   188   95   97 1    
   189   95  216 1    
   190   96  217 1    
   191   96  218 1    
   192   96  219 1    
   193   97   98 2    
   194   97   99 am   BACKBONE|DICT|INTERRES
   195   99  100 1    
   196   99  220 1    
   197  100  101 1    
   198  100  102 1    
   199  100  221 1    
   200  101  222 1    
   201  101  223 1    
   202  101  224 1    
   203  102  103 2    
   204  102  104 am   BACKBONE|DICT|INTERRES
   205  104  105 1    
   206  104  225 1    
   207  105  106 1    
   208  105  107 1    
   209  105  226 1    
   210  106  227 1    
   211  106  228 1    
   212  106  229 1    
   213  107  108 2    
   214  107  109 am   BACKBONE|DICT|INTERRES
   215  109  110 1    
   216  109  230 1    
   217  110  111 1    
   218  110  112 1    
   219  110  231 1    
   220  111  232 1    
   221  111  233 1    
   222  111  234 1    
   223  112  113 2    
   224  112  114 am   BACKBONE|DICT|INTERRES
   225  114  115 1    
   226  114  235 1    
   227  115  116 1    
   228  115  117 1    
   229  115  236 1    
   230  116  237 1    
   231  116  238 1    
   232  116  239 1    
   233  117  118 2    
   234  117  119 am   BACKBONE|DICT|INTERRES
   235  119  120 1    
   236  119  240 1    
   237  120  121 1    
   238  120  124 1    
   239  120  241 1    
   240  121  122 am   BACKBONE|DICT|INTERRES
   241  121  123 2    
   242  122  242 1    
   243  122  243 1    
   244  124  125 1    
   245  124  244 1    
   246  124  245 1    
   247  125  126 1    
   248  126  246 1    
   249  126  247 1    
@<TRIPOS>SUBSTRUCTURE
     1 UNK         1 GROUP             0       ****    0 ROOT    
