@<TRIPOS>MOLECULE
3R540
247   249    1
SMALL
USER_CHARGES


@<TRIPOS>ATOM
      1 CA          0.9384  -10.6079  -44.5567 C.3       0 UNK        -0.1800 
      2 C           0.2814  -11.2415  -45.7739 C.2       0 UNK         0.5000 
      3 O           0.0355  -10.5568  -46.7675 O.2       0 UNK        -0.5000 
      4 N           0.0085  -12.5496  -45.7138 N.am      1 UNK        -0.5000 
      5 CA         -0.6154  -13.3583  -46.7693 C.3       1 UNK         0.1400 
      6 C6         -1.4134  -14.5535  -46.1910 C.3       23 UNK        -0.0398 
      7 S7         -0.5207  -15.5435  -44.9374 S.3       23 UNK        -0.2404 
      8 C8         -1.7257  -15.6237  -43.5664 C.3       23 UNK        -0.0205 
      9 C9         -2.7454  -16.7459  -43.7391 C.ar      23 UNK        -0.0193 
     10 C10        -3.6022  -16.7613  -44.8404 C.ar      23 UNK        -0.1150 
     11 C11        -4.5146  -17.7983  -45.0279 C.ar      23 UNK        -0.0193 
     12 C12        -4.5989  -18.8221  -44.0815 C.ar      23 UNK        -0.1150 
     13 C13        -3.7800  -18.8054  -42.9474 C.ar      23 UNK        -0.0193 
     14 C14        -2.8522  -17.7655  -42.7875 C.ar      23 UNK        -0.1150 
     15 C15        -3.9529  -19.8774  -41.8752 C.3       23 UNK        -0.0205 
     16 S16        -2.3699  -20.5167  -41.2441 S.3       23 UNK        -0.2404 
     17 C17        -2.3682  -22.2523  -41.8061 C.3       23 UNK        -0.0398 
     18 CA         -2.2419  -22.4719  -43.3390 C.3       11 UNK         0.1400 
     19 N          -1.2990  -21.5648  -43.9927 N.am      11 UNK        -0.5000 
     20 C          -1.2083  -21.3743  -45.3173 C.2       10 UNK         0.5000 
     21 O          -1.9396  -21.9206  -46.1462 O.2       10 UNK        -0.5000 
     22 CA         -0.0903  -20.4332  -45.7998 C.3       10 UNK         0.1400 
     23 CB         -0.6218  -18.9959  -45.8558 C.3       10 UNK        -0.1800 
     24 N           1.1044  -20.4763  -44.9518 N.am      10 UNK        -0.5000 
     25 C           1.8798  -21.5576  -44.7704 C.2       9 UNK         0.5000 
     26 O           1.7043  -22.6211  -45.3618 O.2       9 UNK        -0.5000 
     27 CA          2.9946  -21.4709  -43.7046 C.3       9 UNK         0.1400 
     28 CB          4.3403  -21.1057  -44.3458 C.3       9 UNK        -0.1800 
     29 N           2.7008  -20.5200  -42.6311 N.am      9 UNK        -0.5000 
     30 C           1.6360  -20.5902  -41.8223 C.2       8 UNK         0.5000 
     31 O           0.8777  -21.5605  -41.7994 O.2       8 UNK        -0.5000 
     32 CA          1.3251  -19.3652  -40.9348 C.3       8 UNK         0.1400 
     33 CB          1.6422  -19.6798  -39.4651 C.3       8 UNK        -0.1800 
     34 N           1.9766  -18.0969  -41.2978 N.am      8 UNK        -0.5000 
     35 C           1.9519  -17.4772  -42.4876 C.2       7 UNK         0.5000 
     36 O           1.4889  -17.9852  -43.5106 O.2       7 UNK        -0.5000 
     37 CA          2.5585  -16.0624  -42.5541 C.3       7 UNK         0.1400 
     38 CB          3.6715  -15.8099  -41.5163 C.3       7 UNK        -0.1800 
     39 N           3.0815  -15.8232  -43.8961 N.am      7 UNK        -0.5000 
     40 C           3.0243  -14.6613  -44.5597 C.2       6 UNK         0.5000 
     41 O           2.5386  -13.6280  -44.1002 O.2       6 UNK        -0.5000 
     42 CA          3.5895  -14.6621  -45.9881 C.3       6 UNK         0.1400 
     43 CB          5.1058  -14.3820  -45.9422 C.3       6 UNK        -0.1800 
     44 N           3.2833  -15.9403  -46.6343 N.am      6 UNK        -0.5000 
     45 C           3.6217  -16.3348  -47.8672 C.2       5 UNK         0.5000 
     46 O           4.2440  -15.6467  -48.6755 O.2       5 UNK        -0.5000 
     47 CA          3.1670  -17.7409  -48.2754 C.3       5 UNK         0.1400 
     48 CB          3.1781  -18.7452  -47.1031 C.3       5 UNK        -0.1800 
     49 N           1.8432  -17.6452  -48.8799 N.am      5 UNK        -0.5000 
     50 C           1.3024  -18.5814  -49.6711 C.2       4 UNK         0.5000 
     51 O           1.8420  -19.6569  -49.9311 O.2       4 UNK        -0.5000 
     52 CA         -0.0622  -18.2585  -50.3009 C.3       4 UNK         0.1400 
     53 CB         -1.2021  -18.5682  -49.3240 C.3       4 UNK        -0.1800 
     54 N          -0.1538  -16.8621  -50.7236 N.am      4 UNK        -0.5000 
     55 C           0.3453  -16.3935  -51.8777 C.2       3 UNK         0.5000 
     56 O           0.8727  -17.0986  -52.7373 O.2       3 UNK        -0.5000 
     57 CA          0.2674  -14.8763  -52.0851 C.3       3 UNK         0.1400 
     58 CB         -1.1776  -14.4179  -52.3499 C.3       3 UNK        -0.1800 
     59 N           0.7895  -14.2222  -50.8930 N.am      3 UNK        -0.5000 
     60 C           1.6110  -13.1739  -50.8458 C.2       2 UNK         0.5000 
     61 O           1.9590  -12.5337  -51.8396 O.2       2 UNK        -0.5000 
     62 CA          2.1277  -12.7925  -49.4393 C.3       2 UNK         0.1400 
     63 CB          2.8930  -11.4577  -49.4259 C.3       2 UNK        -0.1800 
     64 N           1.0808  -12.7365  -48.4150 N.am      2 UNK        -0.5000 
     65 C           0.3975  -13.7518  -47.8691 C.2       1 UNK         0.5000 
     66 O           0.5401  -14.9306  -48.2129 O.2       1 UNK        -0.5000 
     67 C          -1.8496  -23.9337  -43.6251 C.2       11 UNK         0.5000 
     68 O          -2.7018  -24.7348  -44.0075 O.2       11 UNK        -0.5000 
     69 N          -0.5517  -24.2356  -43.4633 N.am      12 UNK        -0.5000 
     70 CA          0.0482  -25.5488  -43.7093 C.3       12 UNK         0.1400 
     71 CB          1.4898  -25.5549  -43.1786 C.3       12 UNK        -0.1800 
     72 C           0.0097  -25.9505  -45.1948 C.2       12 UNK         0.5000 
     73 O          -0.2554  -27.1117  -45.5065 O.2       12 UNK        -0.5000 
     74 N           0.2338  -24.9721  -46.0820 N.am      13 UNK        -0.5000 
     75 CA          0.1163  -25.1082  -47.5340 C.3       13 UNK         0.1400 
     76 CB          0.8393  -23.9267  -48.2006 C.3       13 UNK        -0.1800 
     77 C          -1.3420  -25.1850  -48.0286 C.2       13 UNK         0.5000 
     78 O          -1.5534  -25.4898  -49.2023 O.2       13 UNK        -0.5000 
     79 N          -2.3117  -24.8784  -47.1529 N.am      14 UNK        -0.5000 
     80 CA         -3.7564  -24.8407  -47.3956 C.3       14 UNK         0.1400 
     81 CB         -4.3023  -26.2671  -47.6131 C.3       14 UNK        -0.1800 
     82 C          -4.1227  -23.8740  -48.5378 C.2       14 UNK         0.5000 
     83 O          -4.7855  -24.2714  -49.4975 O.2       14 UNK        -0.5000 
     84 N          -3.6238  -22.6322  -48.4374 N.am      15 UNK        -0.5000 
     85 CA         -3.7377  -21.5677  -49.4432 C.3       15 UNK         0.1400 
     86 CB         -5.2030  -21.1084  -49.5958 C.3       15 UNK        -0.1800 
     87 C          -3.0840  -21.9561  -50.7882 C.2       15 UNK         0.5000 
     88 O          -3.6329  -21.6695  -51.8537 O.2       15 UNK        -0.5000 
     89 N          -1.9341  -22.6433  -50.6994 N.am      16 UNK        -0.5000 
     90 CA         -1.1792  -23.2544  -51.7995 C.3       16 UNK         0.1400 
     91 CB         -0.5696  -22.1683  -52.7100 C.3       16 UNK        -0.1800 
     92 C          -2.0352  -24.2808  -52.5696 C.2       16 UNK         0.5000 
     93 O          -2.1817  -24.1767  -53.7867 O.2       16 UNK        -0.5000 
     94 N          -2.6402  -25.2173  -51.8242 N.am      17 UNK        -0.5000 
     95 CA         -3.6332  -26.2007  -52.2763 C.3       17 UNK         0.1400 
     96 CB         -2.9679  -27.2735  -53.1627 C.3       17 UNK        -0.1800 
     97 C          -4.8589  -25.5356  -52.9441 C.2       17 UNK         0.5000 
     98 O          -5.3326  -25.9962  -53.9844 O.2       17 UNK        -0.5000 
     99 N          -5.3172  -24.4340  -52.3336 N.am      18 UNK        -0.5000 
    100 CA        -6.3928  -23.5339  -52.7594 C.3       18 UNK         0.1400 
    101 CB        -7.7508  -24.2656  -52.7400 C.3       18 UNK        -0.1800 
    102 C         -6.1402  -22.7915  -54.0920 C.2       18 UNK         0.5000 
    103 O         -7.0862  -22.2322  -54.6504 O.2       18 UNK        -0.5000 
    104 N         -4.8944  -22.7790  -54.5884 N.am      19 UNK        -0.5000 
    105 CA        -4.5253  -22.1088  -55.8362 C.3       19 UNK         0.1400 
    106 CB        -3.2981  -22.7986  -56.4504 C.3       19 UNK        -0.1800 
    107 C         -4.2518  -20.6056  -55.6528 C.2       19 UNK         0.5000 
    108 O         -4.4189  -19.8507  -56.6125 O.2       19 UNK        -0.5000 
    109 N         -3.8212  -20.1902  -54.4536 N.am      20 UNK        -0.5000 
    110 CA        -3.5160  -18.7950  -54.1421 C.3       20 UNK         0.1400 
    111 CB        -2.4377  -18.7412  -53.0496 C.3       20 UNK        -0.1800 
    112 C         -4.7676  -18.0307  -53.6836 C.2       20 UNK         0.5000 
    113 O         -5.7223  -18.6328  -53.1866 O.2       20 UNK        -0.5000 
    114 N         -4.7072  -16.6977  -53.8070 N.am      21 UNK        -0.5000 
    115 CA        -5.7162  -15.7669  -53.2921 C.3       21 UNK         0.1400 
    116 CB        -5.4595  -14.3739  -53.8876 C.3       21 UNK        -0.1800 
    117 C         -5.7383  -15.6964  -51.7512 C.2       21 UNK         0.5000 
    118 O         -6.7776  -15.3760  -51.1744 O.2       21 UNK        -0.5000 
    119 N         -4.5961  -16.0107  -51.1220 N.am      22 UNK        -0.5000 
    120 CA        -4.4008  -16.0997  -49.6652 C.3       22 UNK         0.1400 
    121 C         -4.4286  -14.7335  -48.9106 C.2       22 UNK         0.5000 
    122 N         -4.2959  -13.6029  -49.5937 N.am      22 UNK        -0.7600 
    123 O         -4.5358  -14.6881  -47.6898 O.2       22 UNK        -0.5000 
    124 C124       -5.3019  -17.1973  -49.0237 C.3       23 UNK        -0.0398 
    125 S125       -4.4285  -18.1626  -47.7464 S.3       23 UNK        -0.2404 
    126 C126       -5.4019  -17.7822  -46.2589 C.3       23 UNK        -0.0205 
    127 H127        0.9927  -11.3041  -43.7194 H         1 UNK         0.0600 
    128 H128        0.3719   -9.7341  -44.2349 H         1 UNK         0.0600 
    129 H129        1.9518  -10.2898  -44.8013 H         1 UNK         0.0600 
    130 H130        0.3027  -13.0726  -44.8985 H         1 UNK         0.3000 
    131 H131       -1.3497  -12.7293  -47.2776 H         1 UNK         0.0600 
    132 H132       -2.3180  -14.1495  -45.7366 H         1 UNK         0.0800 
    133 H133       -1.7608  -15.2191  -46.9832 H         1 UNK         0.0800 
    134 H134       -1.1649  -15.7700  -42.6422 H         1 UNK         0.0800 
    135 H135       -2.2418  -14.6692  -43.4580 H         1 UNK         0.0800 
    136 H136       -3.5594  -15.9767  -45.5775 H         1 UNK         0.1150 
    137 H137       -5.3167  -19.6186  -44.2183 H         1 UNK         0.1150 
    138 H138       -2.2159  -17.7455  -41.9143 H         1 UNK         0.1150 
    139 H139       -4.5049  -19.4406  -41.0422 H         1 UNK         0.0800 
    140 H140       -4.5631  -20.7021  -42.2458 H         1 UNK         0.0800 
    141 H141       -3.2708  -22.7391  -41.4330 H         1 UNK         0.0800 
    142 H142       -1.5401  -22.7289  -41.2779 H         1 UNK         0.0800 
    143 H143       -3.2236  -22.2950  -43.7838 H         1 UNK         0.0600 
    144 H144       -0.6443  -21.0955  -43.3815 H         1 UNK         0.3000 
    145 H145        0.1943  -20.7381  -46.8086 H         1 UNK         0.0600 
    146 H146       -0.8114  -18.6067  -44.8555 H         1 UNK         0.0600 
    147 H147        0.0821  -18.3255  -46.3473 H         1 UNK         0.0600 
    148 H148       -1.5644  -18.9411  -46.4015 H         1 UNK         0.0600 
    149 H149        1.3005  -19.6343  -44.4150 H         1 UNK         0.3000 
    150 H150        3.0888  -22.4617  -43.2557 H         1 UNK         0.0600 
    151 H151        4.5650  -21.7584  -45.1905 H         1 UNK         0.0600 
    152 H152        5.1560  -21.2088  -43.6301 H         1 UNK         0.0600 
    153 H153        4.3447  -20.0790  -44.7095 H         1 UNK         0.0600 
    154 H154        3.2630  -19.6831  -42.5979 H         1 UNK         0.3000 
    155 H155        0.2515  -19.1915  -41.0172 H         1 UNK         0.0600 
    156 H156        1.1414  -20.5938  -39.1425 H         1 UNK         0.0600 
    157 H157        1.3037  -18.8794  -38.8070 H         1 UNK         0.0600 
    158 H158        2.7125  -19.8176  -39.3069 H         1 UNK         0.0600 
    159 H159        2.4161  -17.6075  -40.5320 H         1 UNK         0.3000 
    160 H160        1.7353  -15.3720  -42.3589 H         1 UNK         0.0600 
    161 H161        4.1016  -14.8157  -41.6397 H         1 UNK         0.0600 
    162 H162        4.4818  -16.5340  -41.6107 H         1 UNK         0.0600 
    163 H163        3.2898  -15.8616  -40.4963 H         1 UNK         0.0600 
    164 H164        3.4817  -16.6316  -44.3485 H         1 UNK         0.3000 
    165 H165        3.0969  -13.8645  -46.5459 H         1 UNK         0.0600 
    166 H166        5.6550  -15.2143  -45.5008 H         1 UNK         0.0600 
    167 H167        5.5143  -14.1982  -46.9353 H         1 UNK         0.0600 
    168 H168        5.3210  -13.4939  -45.3463 H         1 UNK         0.0600 
    169 H169        2.6799  -16.5489  -46.0983 H         1 UNK         0.3000 
    170 H170        3.8709  -18.0938  -49.0323 H         1 UNK         0.0600 
    171 H171        2.4511  -18.4882  -46.3340 H         1 UNK         0.0600 
    172 H172        2.9564  -19.7577  -47.4402 H         1 UNK         0.0600 
    173 H173        4.1624  -18.7728  -46.6356 H         1 UNK         0.0600 
    174 H174        1.3488  -16.7739  -48.7163 H         1 UNK         0.3000 
    175 H175       -0.1823  -18.9091  -51.1698 H         1 UNK         0.0600 
    176 H176       -1.2331  -17.8516  -48.5029 H         1 UNK         0.0600 
    177 H177       -2.1664  -18.5390  -49.8295 H         1 UNK         0.0600 
    178 H178       -1.0901  -19.5637  -48.8931 H         1 UNK         0.0600 
    179 H179       -0.5619  -16.2195  -50.0617 H         1 UNK         0.3000 
    180 H180        0.8838  -14.6255  -52.9511 H         1 UNK         0.0600 
    181 H181       -1.8290  -14.6125  -51.4975 H         1 UNK         0.0600 
    182 H182       -1.5988  -14.9312  -53.2150 H         1 UNK         0.0600 
    183 H183       -1.2147  -13.3483  -52.5571 H         1 UNK         0.0600 
    184 H184        0.6076  -14.6791  -50.0041 H         1 UNK         0.3000 
    185 H185        2.8311  -13.5713  -49.1484 H         1 UNK         0.0600 
    186 H186        3.3010  -11.2479  -48.4369 H         1 UNK         0.0600 
    187 H187        3.7324  -11.4774  -50.1220 H         1 UNK         0.0600 
    188 H188        2.2487  -10.6238  -49.7071 H         1 UNK         0.0600 
    189 H189        0.8530  -11.8086  -48.0710 H         1 UNK         0.3000 
    190 H190        0.0743  -23.5028  -43.1569 H         1 UNK         0.3000 
    191 H191       -0.5257  -26.2896  -43.1487 H         1 UNK         0.0600 
    192 H192        2.1150  -24.8287  -43.6990 H         1 UNK         0.0600 
    193 H193        1.5200  -25.3215  -42.1142 H         1 UNK         0.0600 
    194 H194        1.9488  -26.5356  -43.3098 H         1 UNK         0.0600 
    195 H195        0.5351  -24.0631  -45.7396 H         1 UNK         0.3000 
    196 H196        0.6147  -26.0312  -47.8367 H         1 UNK         0.0600 
    197 H197        1.8803  -23.8713  -47.8818 H         1 UNK         0.0600 
    198 H198        0.3648  -22.9755  -47.9572 H         1 UNK         0.0600 
    199 H199        0.8423  -24.0280  -49.2858 H         1 UNK         0.0600 
    200 H200       -2.0301  -24.6190  -46.2169 H         1 UNK         0.3000 
    201 H201       -4.2154  -24.4416  -46.4900 H         1 UNK         0.0600 
    202 H202       -5.3892  -26.2590  -47.7024 H         1 UNK         0.0600 
    203 H203       -4.0500  -26.9156  -46.7740 H         1 UNK         0.0600 
    204 H204       -3.9032  -26.7223  -48.5201 H         1 UNK         0.0600 
    205 H205       -3.0693  -22.4044  -47.6139 H         1 UNK         0.3000 
    206 H206       -3.1694  -20.7222  -49.0581 H         1 UNK         0.0600 
    207 H207       -5.6118  -20.7790  -48.6410 H         1 UNK         0.0600 
    208 H208       -5.8459  -21.9031  -49.9694 H         1 UNK         0.0600 
    209 H209       -5.2811  -20.2714  -50.2905 H         1 UNK         0.0600 
    210 H210       -1.6041  -22.8690  -49.7730 H         1 UNK         0.3000 
    211 H211       -0.3567  -23.8110  -51.3499 H         1 UNK         0.0600 
    212 H212        0.0073  -21.4453  -52.1332 H         1 UNK         0.0600 
    213 H213        0.1033  -22.6116  -53.4447 H         1 UNK         0.0600 
    214 H214       -1.3367  -21.6249  -53.2613 H         1 UNK         0.0600 
    215 H215       -2.4282  -25.2377  -50.8284 H         1 UNK         0.3000 
    216 H216       -4.0049  -26.6948  -51.3775 H         1 UNK         0.0600 
    217 H217       -3.6713  -28.0706  -53.4055 H         1 UNK         0.0600 
    218 H218       -2.6087  -26.8559  -54.1038 H         1 UNK         0.0600 
    219 H219       -2.1203  -27.7331  -52.6543 H         1 UNK         0.0600 
    220 H220       -4.8826  -24.1853  -51.4489 H         1 UNK         0.3000 
    221 H221       -6.4368  -22.7520  -52.0026 H         1 UNK         0.0600 
    222 H222       -7.8148  -25.0214  -53.5231 H         1 UNK         0.0600 
    223 H223       -7.9187  -24.7583  -51.7822 H         1 UNK         0.0600 
    224 H224       -8.5756  -23.5685  -52.8916 H         1 UNK         0.0600 
    225 H225       -4.1509  -23.2442  -54.0805 H         1 UNK         0.3000 
    226 H226       -5.3475  -22.2125  -56.5475 H         1 UNK         0.0600 
    227 H227       -3.4460  -23.8757  -56.5330 H         1 UNK         0.0600 
    228 H228       -3.1017  -22.4177  -57.4532 H         1 UNK         0.0600 
    229 H229       -2.3997  -22.6250  -55.8576 H         1 UNK         0.0600 
    230 H230       -3.7825  -20.8462  -53.6787 H         1 UNK         0.3000 
    231 H231       -3.1165  -18.3046  -55.0325 H         1 UNK         0.0600 
    232 H232       -2.1612  -17.7115  -52.8257 H         1 UNK         0.0600 
    233 H233       -1.5291  -19.2537  -53.3641 H         1 UNK         0.0600 
    234 H234       -2.7803  -19.1943  -52.1201 H         1 UNK         0.0600 
    235 H235       -3.9005  -16.2823  -54.2499 H         1 UNK         0.3000 
    236 H236       -6.6997  -16.1075  -53.6228 H         1 UNK         0.0600 
    237 H237       -5.5125  -14.3946  -54.9763 H         1 UNK         0.0600 
    238 H238       -6.2059  -13.6576  -53.5416 H         1 UNK         0.0600 
    239 H239       -4.4788  -13.9882  -53.6059 H         1 UNK         0.0600 
    240 H240       -3.7996  -16.2528  -51.6899 H         1 UNK         0.3000 
    241 H241       -3.3649  -16.4242  -49.5686 H         1 UNK         0.0600 
    242 H242       -4.2202  -13.6116  -50.5972 H         1 UNK         0.3800 
    243 H243       -4.3167  -12.7251  -49.0997 H         1 UNK         0.3800 
    244 H244       -6.2295  -16.7732  -48.6364 H         1 UNK         0.0800 
    245 H245       -5.6129  -17.9185  -49.7802 H         1 UNK         0.0800 
    246 H246       -5.8573  -16.7946  -46.3453 H         1 UNK         0.0800 
    247 H247       -6.2195  -18.4985  -46.1672 H         1 UNK         0.0800 
@<TRIPOS>BOND
     1    1    2 1    
     2    1  127 1    
     3    1  128 1    
     4    1  129 1    
     5    2    3 2    
     6    2    4 am   BACKBONE|DICT|INTERRES
     7    4    5 1    
     8    4  130 1    
     9    5    6 1    
    10    5   65 1    
    11    5  131 1    
    12    6    7 1    
    13    6  132 1    
    14    6  133 1    
    15    7    8 1    
    16    8    9 1    
    17    8  134 1    
    18    8  135 1    
    19    9   10 ar   
    20    9   14 ar   
    21   10   11 ar   
    22   10  136 1    
    23   11   12 ar   
    24   11  126 1    
    25   12   13 ar   
    26   12  137 1    
    27   13   14 ar   
    28   13   15 1    
    29   14  138 1    
    30   15   16 1    
    31   15  139 1    
    32   15  140 1    
    33   16   17 1    
    34   17   18 1    
    35   17  141 1    
    36   17  142 1    
    37   18   19 1    
    38   18   67 1    
    39   18  143 1    
    40   19   20 am   BACKBONE|DICT|INTERRES
    41   19  144 1    
    42   20   21 2    
    43   20   22 1    
    44   22   23 1    
    45   22   24 1    
    46   22  145 1    
    47   23  146 1    
    48   23  147 1    
    49   23  148 1    
    50   24   25 am   BACKBONE|DICT|INTERRES
    51   24  149 1    
    52   25   26 2    
    53   25   27 1    
    54   27   28 1    
    55   27   29 1    
    56   27  150 1    
    57   28  151 1    
    58   28  152 1    
    59   28  153 1    
    60   29   30 am   BACKBONE|DICT|INTERRES
    61   29  154 1    
    62   30   31 2    
    63   30   32 1    
    64   32   33 1    
    65   32   34 1    
    66   32  155 1    
    67   33  156 1    
    68   33  157 1    
    69   33  158 1    
    70   34   35 am   BACKBONE|DICT|INTERRES
    71   34  159 1    
    72   35   36 2    
    73   35   37 1    
    74   37   38 1    
    75   37   39 1    
    76   37  160 1    
    77   38  161 1    
    78   38  162 1    
    79   38  163 1    
    80   39   40 am   BACKBONE|DICT|INTERRES
    81   39  164 1    
    82   40   41 2    
    83   40   42 1    
    84   42   43 1    
    85   42   44 1    
    86   42  165 1    
    87   43  166 1    
    88   43  167 1    
    89   43  168 1    
    90   44   45 am   BACKBONE|DICT|INTERRES
    91   44  169 1    
    92   45   46 2    
    93   45   47 1    
    94   47   48 1    
    95   47   49 1    
    96   47  170 1    
    97   48  171 1    
    98   48  172 1    
    99   48  173 1    
   100   49   50 am   BACKBONE|DICT|INTERRES
   101   49  174 1    
   102   50   51 2    
   103   50   52 1    
   104   52   53 1    
   105   52   54 1    
   106   52  175 1    
   107   53  176 1    
   108   53  177 1    
   109   53  178 1    
   110   54   55 am   BACKBONE|DICT|INTERRES
   111   54  179 1    
   112   55   56 2    
   113   55   57 1    
   114   57   58 1    
   115   57   59 1    
   116   57  180 1    
   117   58  181 1    
   118   58  182 1    
   119   58  183 1    
   120   59   60 am   BACKBONE|DICT|INTERRES
   121   59  184 1    
   122   60   61 2    
   123   60   62 1    
   124   62   63 1    
   125   62   64 1    
   126   62  185 1    
   127   63  186 1    
   128   63  187 1    
   129   63  188 1    
   130   64   65 am   BACKBONE|DICT|INTERRES
   131   64  189 1    
   132   65   66 2    
   133   67   68 2    
   134   67   69 am   BACKBONE|DICT|INTERRES
   135   69   70 1    
   136   69  190 1    
   137   70   71 1    
   138   70   72 1    
   139   70  191 1    
   140   71  192 1    
   141   71  193 1    
   142   71  194 1    
   143   72   73 2    
   144   72   74 am   BACKBONE|DICT|INTERRES
   145   74   75 1    
   146   74  195 1    
   147   75   76 1    
   148   75   77 1    
   149   75  196 1    
   150   76  197 1    
   151   76  198 1    
   152   76  199 1    
   153   77   78 2    
   154   77   79 am   BACKBONE|DICT|INTERRES
   155   79   80 1    
   156   79  200 1    
   157   80   81 1    
   158   80   82 1    
   159   80  201 1    
   160   81  202 1    
   161   81  203 1    
   162   81  204 1    
   163   82   83 2    
   164   82   84 am   BACKBONE|DICT|INTERRES
   165   84   85 1    
   166   84  205 1    
   167   85   86 1    
   168   85   87 1    
   169   85  206 1    
   170   86  207 1    
   171   86  208 1    
   172   86  209 1    
   173   87   88 2    
   174   87   89 am   BACKBONE|DICT|INTERRES
   175   89   90 1    
   176   89  210 1    
   177   90   91 1    
   178   90   92 1    
   179   90  211 1    
   180   91  212 1    
   181   91  213 1    
   182   91  214 1    
   183   92   93 2    
   184   92   94 am   BACKBONE|DICT|INTERRES
   185   94   95 1    
   186   94  215 1    
   187   95   96 1    
   188   95   97 1    
   189   95  216 1    
   190   96  217 1    
   191   96  218 1    
   192   96  219 1    
   193   97   98 2    
   194   97   99 am   BACKBONE|DICT|INTERRES
   195   99  100 1    
   196   99  220 1    
   197  100  101 1    
   198  100  102 1    
   199  100  221 1    
   200  101  222 1    
   201  101  223 1    
   202  101  224 1    
   203  102  103 2    
   204  102  104 am   BACKBONE|DICT|INTERRES
   205  104  105 1    
   206  104  225 1    
   207  105  106 1    
   208  105  107 1    
   209  105  226 1    
   210  106  227 1    
   211  106  228 1    
   212  106  229 1    
   213  107  108 2    
   214  107  109 am   BACKBONE|DICT|INTERRES
   215  109  110 1    
   216  109  230 1    
   217  110  111 1    
   218  110  112 1    
   219  110  231 1    
   220  111  232 1    
   221  111  233 1    
   222  111  234 1    
   223  112  113 2    
   224  112  114 am   BACKBONE|DICT|INTERRES
   225  114  115 1    
   226  114  235 1    
   227  115  116 1    
   228  115  117 1    
   229  115  236 1    
   230  116  237 1    
   231  116  238 1    
   232  116  239 1    
   233  117  118 2    
   234  117  119 am   BACKBONE|DICT|INTERRES
   235  119  120 1    
   236  119  240 1    
   237  120  121 1    
   238  120  124 1    
   239  120  241 1    
   240  121  122 am   BACKBONE|DICT|INTERRES
   241  121  123 2    
   242  122  242 1    
   243  122  243 1    
   244  124  125 1    
   245  124  244 1    
   246  124  245 1    
   247  125  126 1    
   248  126  246 1    
   249  126  247 1    
@<TRIPOS>SUBSTRUCTURE
     1 UNK         1 GROUP             0       ****    0 ROOT    
