@<TRIPOS>MOLECULE
3R540
247   249    1
SMALL
USER_CHARGES


@<TRIPOS>ATOM
      1 CA         -0.6481  -16.4065  -48.4131 C.3       0 UNK        -0.1800 
      2 C          -0.1701  -14.9635  -48.4836 C.2       0 UNK         0.5000 
      3 O          -0.7780  -14.0825  -47.8755 O.2       0 UNK        -0.5000 
      4 N           0.9246  -14.7200  -49.2153 N.am      1 UNK        -0.5000 
      5 CA          1.4996  -13.3950  -49.4899 C.3       1 UNK         0.1400 
      6 C6          2.6319  -13.4630  -50.5448 C.3       23 UNK        -0.0398 
      7 S7          3.9752  -14.6330  -50.1219 S.3       23 UNK        -0.2404 
      8 C8          3.9534  -15.7726  -51.5412 C.3       23 UNK        -0.0205 
      9 C9          2.8084  -16.7733  -51.4715 C.ar      23 UNK        -0.0193 
     10 C10         1.6133  -16.5329  -52.1552 C.ar      23 UNK        -0.1150 
     11 C11         0.5821  -17.4769  -52.1416 C.ar      23 UNK        -0.0193 
     12 C12         0.7551  -18.6717  -51.4344 C.ar      23 UNK        -0.1150 
     13 C13         1.9444  -18.9239  -50.7431 C.ar      23 UNK        -0.0193 
     14 C14         2.9643  -17.9678  -50.7626 C.ar      23 UNK        -0.1150 
     15 C15         2.1561  -20.2448  -50.0150 C.3       23 UNK        -0.0205 
     16 S16         2.0150  -20.0691  -48.2083 S.3       23 UNK        -0.2404 
     17 C17         0.2095  -20.0401  -47.9743 C.3       23 UNK        -0.0398 
     18 CA         -0.3268  -21.3269  -47.3016 C.3       11 UNK         0.1400 
     19 N           0.0951  -21.4881  -45.9036 N.am      11 UNK        -0.5000 
     20 C          -0.1762  -22.5665  -45.1499 C.2       10 UNK         0.5000 
     21 O          -0.7356  -23.5751  -45.5810 O.2       10 UNK        -0.5000 
     22 CA          0.1724  -22.4907  -43.6512 C.3       10 UNK         0.1400 
     23 CB          1.6554  -22.8036  -43.4037 C.3       10 UNK        -0.1800 
     24 N          -0.1759  -21.1983  -43.0591 N.am      10 UNK        -0.5000 
     25 C          -1.4293  -20.7348  -42.9392 C.2       9 UNK         0.5000 
     26 O          -2.4284  -21.3821  -43.2522 O.2       9 UNK        -0.5000 
     27 CA         -1.5929  -19.2828  -42.4485 C.3       9 UNK         0.1400 
     28 CB         -1.5186  -19.2008  -40.9171 C.3       9 UNK        -0.1800 
     29 N          -0.6045  -18.3837  -43.0457 N.am      9 UNK        -0.5000 
     30 C          -0.5228  -18.1285  -44.3586 C.2       8 UNK         0.5000 
     31 O          -1.3287  -18.5498  -45.1867 O.2       8 UNK        -0.5000 
     32 CA          0.6907  -17.3220  -44.8438 C.3       8 UNK         0.1400 
     33 CB          0.4049  -15.8199  -44.8149 C.3       8 UNK        -0.1800 
     34 N           1.9050  -17.6157  -44.0865 N.am      8 UNK        -0.5000 
     35 C           2.5718  -18.7745  -44.1712 C.2       7 UNK         0.5000 
     36 O           2.2382  -19.6975  -44.9111 O.2       7 UNK        -0.5000 
     37 CA          3.7775  -18.9481  -43.2309 C.3       7 UNK         0.1400 
     38 CB          5.0089  -18.2180  -43.7884 C.3       7 UNK        -0.1800 
     39 N           3.4967  -18.4658  -41.8784 N.am      7 UNK        -0.5000 
     40 C           2.5813  -19.0003  -41.0571 C.2       6 UNK         0.5000 
     41 O           1.9280  -20.0075  -41.3280 O.2       6 UNK        -0.5000 
     42 CA          2.3152  -18.2528  -39.7353 C.3       6 UNK         0.1400 
     43 CB          3.2285  -18.7864  -38.6221 C.3       6 UNK        -0.1800 
     44 N           2.4799  -16.7989  -39.8438 N.am      6 UNK        -0.5000 
     45 C           1.7524  -16.0054  -40.6418 C.2       5 UNK         0.5000 
     46 O           0.8627  -16.4219  -41.3870 O.2       5 UNK        -0.5000 
     47 CA          2.1535  -14.5178  -40.6653 C.3       5 UNK         0.1400 
     48 CB          3.3414  -14.3204  -41.6162 C.3       5 UNK        -0.1800 
     49 N           1.0673  -13.6308  -41.0865 N.am      5 UNK        -0.5000 
     50 C          -0.0630  -13.4273  -40.3955 C.2       4 UNK         0.5000 
     51 O          -0.3060  -13.9697  -39.3159 O.2       4 UNK        -0.5000 
     52 CA         -1.0823  -12.4235  -40.9696 C.3       4 UNK         0.1400 
     53 CB         -1.1123  -11.1439  -40.1178 C.3       4 UNK        -0.1800 
     54 N          -0.8234  -12.0449  -42.3596 N.am      4 UNK        -0.5000 
     55 C          -1.2000  -12.7522  -43.4316 C.2       3 UNK         0.5000 
     56 O          -1.7770  -13.8371  -43.3626 O.2       3 UNK        -0.5000 
     57 CA         -0.9280  -12.1251  -44.8146 C.3       3 UNK         0.1400 
     58 CB         -1.0311  -10.5841  -44.8128 C.3       3 UNK        -0.1800 
     59 N           0.3351  -12.5488  -45.4241 N.am      3 UNK        -0.5000 
     60 C           1.5813  -12.4001  -44.9462 C.2       2 UNK         0.5000 
     61 O           1.8308  -11.9696  -43.8192 O.2       2 UNK        -0.5000 
     62 CA          2.7542  -12.7788  -45.8825 C.3       2 UNK         0.1400 
     63 CB          3.7435  -13.7526  -45.2219 C.3       2 UNK        -0.1800 
     64 N           2.3285  -13.3389  -47.1683 N.am      2 UNK        -0.5000 
     65 C           1.9527  -12.6171  -48.2329 C.2       1 UNK         0.5000 
     66 O           1.9356  -11.3856  -48.2472 O.2       1 UNK        -0.5000 
     67 C          -1.8590  -21.3917  -47.4392 C.2       11 UNK         0.5000 
     68 O          -2.3472  -22.1378  -48.2845 O.2       11 UNK        -0.5000 
     69 N          -2.5898  -20.6486  -46.5972 N.am      12 UNK        -0.5000 
     70 CA         -4.0531  -20.6289  -46.5647 C.3       12 UNK         0.1400 
     71 CB         -4.5367  -19.5606  -45.5734 C.3       12 UNK        -0.1800 
     72 C          -4.6652  -22.0041  -46.2405 C.2       12 UNK         0.5000 
     73 O          -5.6045  -22.4191  -46.9193 O.2       12 UNK        -0.5000 
     74 N          -4.0885  -22.7105  -45.2572 N.am      13 UNK        -0.5000 
     75 CA         -4.4683  -24.0736  -44.8738 C.3       13 UNK         0.1400 
     76 CB         -3.7089  -24.4763  -43.6008 C.3       13 UNK        -0.1800 
     77 C          -4.2394  -25.1083  -45.9940 C.2       13 UNK         0.5000 
     78 O          -5.0470  -26.0245  -46.1502 O.2       13 UNK        -0.5000 
     79 N          -3.1670  -24.9222  -46.7744 N.am      14 UNK        -0.5000 
     80 CA         -2.8312  -25.7220  -47.9545 C.3       14 UNK         0.1400 
     81 CB         -1.3125  -25.6362  -48.1816 C.3       14 UNK        -0.1800 
     82 C          -3.5879  -25.2866  -49.2278 C.2       14 UNK         0.5000 
     83 O          -3.3687  -25.8799  -50.2857 O.2       14 UNK        -0.5000 
     84 N          -4.4112  -24.2309  -49.1355 N.am      15 UNK        -0.5000 
     85 CA         -5.1231  -23.5612  -50.2285 C.3       15 UNK         0.1400 
     86 CB         -6.2395  -24.4638  -50.7913 C.3       15 UNK        -0.1800 
     87 C          -4.1689  -23.0379  -51.3222 C.2       15 UNK         0.5000 
     88 O          -4.4787  -23.1378  -52.5097 O.2       15 UNK        -0.5000 
     89 N          -3.0221  -22.4927  -50.8944 N.am      16 UNK        -0.5000 
     90 CA         -1.8839  -22.0336  -51.6971 C.3       16 UNK         0.1400 
     91 CB         -2.2775  -20.8418  -52.5913 C.3       16 UNK        -0.1800 
     92 C          -1.1931  -23.1818  -52.4611 C.2       16 UNK         0.5000 
     93 O          -0.7039  -22.9779  -53.5712 O.2       16 UNK        -0.5000 
     94 N          -1.1768  -24.3706  -51.8383 N.am      17 UNK        -0.5000 
     95 CA         -0.7543  -25.6606  -52.3930 C.3       17 UNK         0.1400 
     96 CB          0.7463  -25.6611  -52.7538 C.3       17 UNK        -0.1800 
     97 C          -1.6762  -26.0869  -53.5528 C.2       17 UNK         0.5000 
     98 O          -1.2013  -26.4127  -54.6423 O.2       17 UNK        -0.5000 
     99 N          -2.9891  -26.0493  -53.2762 N.am      18 UNK        -0.5000 
    100 CA        -4.1025  -26.3097  -54.1937 C.3       18 UNK         0.1400 
    101 CB        -4.1437  -27.7999  -54.5915 C.3       18 UNK        -0.1800 
    102 C         -4.1087  -25.3528  -55.4063 C.2       18 UNK         0.5000 
    103 O         -4.1659  -25.7981  -56.5544 O.2       18 UNK        -0.5000 
    104 N         -4.0541  -24.0477  -55.1182 N.am      19 UNK        -0.5000 
    105 CA        -4.0815  -22.9551  -56.0899 C.3       19 UNK         0.1400 
    106 CB        -2.6601  -22.4072  -56.3058 C.3       19 UNK        -0.1800 
    107 C         -5.0872  -21.8786  -55.6430 C.2       19 UNK         0.5000 
    108 O         -4.8022  -20.6825  -55.7290 O.2       19 UNK        -0.5000 
    109 N         -6.2535  -22.3390  -55.1650 N.am      20 UNK        -0.5000 
    110 CA        -7.4471  -21.5606  -54.8128 C.3       20 UNK         0.1400 
    111 CB        -8.0983  -20.9896  -56.0901 C.3       20 UNK        -0.1800 
    112 C         -7.2147  -20.4799  -53.7350 C.2       20 UNK         0.5000 
    113 O         -7.8440  -19.4211  -53.7872 O.2       20 UNK        -0.5000 
    114 N         -6.3072  -20.7561  -52.7848 N.am      21 UNK        -0.5000 
    115 CA        -5.9390  -19.8936  -51.6510 C.3       21 UNK         0.1400 
    116 CB        -7.0765  -19.8604  -50.6100 C.3       21 UNK        -0.1800 
    117 C         -5.4678  -18.4887  -52.0841 C.2       21 UNK         0.5000 
    118 O         -5.8331  -17.4895  -51.4631 O.2       21 UNK        -0.5000 
    119 N         -4.6787  -18.4595  -53.1655 N.am      22 UNK        -0.5000 
    120 CA        -4.1497  -17.2673  -53.8485 C.3       22 UNK         0.1400 
    121 C         -5.1933  -16.5209  -54.7355 C.2       22 UNK         0.5000 
    122 N         -6.4195  -17.0064  -54.8956 N.am      22 UNK        -0.7600 
    123 O         -4.8767  -15.4881  -55.3199 O.2       22 UNK        -0.5000 
    124 C124       -3.3665  -16.2800  -52.9301 C.3       23 UNK        -0.0398 
    125 S125       -2.1356  -17.0515  -51.8213 S.3       23 UNK        -0.2404 
    126 C126       -0.6992  -17.2162  -52.9223 C.3       23 UNK        -0.0205 
    127 H127        0.0652  -17.0911  -48.8726 H         1 UNK         0.0600 
    128 H128       -1.6008  -16.5076  -48.9313 H         1 UNK         0.0600 
    129 H129       -0.8002  -16.7094  -47.3791 H         1 UNK         0.0600 
    130 H130        1.3904  -15.4900  -49.6765 H         1 UNK         0.3000 
    131 H131        0.6938  -12.8016  -49.9273 H         1 UNK         0.0600 
    132 H132        2.2037  -13.7343  -51.5091 H         1 UNK         0.0800 
    133 H133        3.0725  -12.4767  -50.7021 H         1 UNK         0.0800 
    134 H134        3.9121  -15.2040  -52.4716 H         1 UNK         0.0800 
    135 H135        4.9014  -16.3120  -51.5652 H         1 UNK         0.0800 
    136 H136        1.4930  -15.6185  -52.7185 H         1 UNK         0.1150 
    137 H137       -0.0358  -19.4066  -51.4316 H         1 UNK         0.1150 
    138 H138        3.8897  -18.1634  -50.2388 H         1 UNK         0.1150 
    139 H139        1.4577  -21.0045  -50.3692 H         1 UNK         0.0800 
    140 H140        3.1528  -20.6217  -50.2491 H         1 UNK         0.0800 
    141 H141       -0.2645  -19.8832  -48.9447 H         1 UNK         0.0800 
    142 H142       -0.0437  -19.1646  -47.3797 H         1 UNK         0.0800 
    143 H143        0.0718  -22.1810  -47.8535 H         1 UNK         0.0600 
    144 H144        0.6321  -20.7282  -45.4971 H         1 UNK         0.3000 
    145 H145       -0.4166  -23.2544  -43.1392 H         1 UNK         0.0600 
    146 H146        1.9136  -23.7899  -43.7911 H         1 UNK         0.0600 
    147 H147        2.3118  -22.0814  -43.8872 H         1 UNK         0.0600 
    148 H148        1.8853  -22.8016  -42.3381 H         1 UNK         0.0600 
    149 H149        0.5926  -20.6241  -42.7288 H         1 UNK         0.3000 
    150 H150       -2.5815  -18.9362  -42.7563 H         1 UNK         0.0600 
    151 H151       -1.6226  -18.1725  -40.5700 H         1 UNK         0.0600 
    152 H152       -0.5758  -19.5904  -40.5355 H         1 UNK         0.0600 
    153 H153       -2.3194  -19.7830  -40.4598 H         1 UNK         0.0600 
    154 H154        0.0561  -17.9327  -42.4208 H         1 UNK         0.3000 
    155 H155        0.8705  -17.6022  -45.8831 H         1 UNK         0.0600 
    156 H156       -0.5852  -15.5939  -45.2131 H         1 UNK         0.0600 
    157 H157        1.1228  -15.2893  -45.4334 H         1 UNK         0.0600 
    158 H158        0.4523  -15.4121  -43.8056 H         1 UNK         0.0600 
    159 H159        2.1860  -16.9381  -43.3943 H         1 UNK         0.3000 
    160 H160        4.0062  -20.0144  -43.1723 H         1 UNK         0.0600 
    161 H161        5.2457  -18.5670  -44.7945 H         1 UNK         0.0600 
    162 H162        5.8874  -18.3973  -43.1684 H         1 UNK         0.0600 
    163 H163        4.8510  -17.1401  -43.8438 H         1 UNK         0.0600 
    164 H164        3.9973  -17.6457  -41.5709 H         1 UNK         0.3000 
    165 H165        1.2800  -18.4480  -39.4492 H         1 UNK         0.0600 
    166 H166        2.9905  -18.3276  -37.6623 H         1 UNK         0.0600 
    167 H167        3.1098  -19.8643  -38.5033 H         1 UNK         0.0600 
    168 H168        4.2805  -18.5935  -38.8360 H         1 UNK         0.0600 
    169 H169        3.2027  -16.3870  -39.2710 H         1 UNK         0.3000 
    170 H170        2.4552  -14.2221  -39.6585 H         1 UNK         0.0600 
    171 H171        3.6304  -13.2711  -41.6817 H         1 UNK         0.0600 
    172 H172        4.2163  -14.8778  -41.2795 H         1 UNK         0.0600 
    173 H173        3.0976  -14.6669  -42.6193 H         1 UNK         0.0600 
    174 H174        1.1873  -13.1446  -41.9662 H         1 UNK         0.3000 
    175 H175       -2.0668  -12.8922  -40.9091 H         1 UNK         0.0600 
    176 H176       -0.1523  -10.6263  -40.1360 H         1 UNK         0.0600 
    177 H177       -1.8749  -10.4508  -40.4735 H         1 UNK         0.0600 
    178 H178       -1.3433  -11.3707  -39.0761 H         1 UNK         0.0600 
    179 H179       -0.3112  -11.1871  -42.5090 H         1 UNK         0.3000 
    180 H180       -1.7146  -12.4974  -45.4729 H         1 UNK         0.0600 
    181 H181       -1.0026  -10.1938  -45.8302 H         1 UNK         0.0600 
    182 H182       -0.2190  -10.1125  -44.2590 H         1 UNK         0.0600 
    183 H183       -1.9709  -10.2542  -44.3681 H         1 UNK         0.0600 
    184 H184        0.2323  -12.9695  -46.3406 H         1 UNK         0.3000 
    185 H185        3.2992  -11.8522  -46.0740 H         1 UNK         0.0600 
    186 H186        3.2828  -14.7088  -44.9784 H         1 UNK         0.0600 
    187 H187        4.5907  -13.9525  -45.8783 H         1 UNK         0.0600 
    188 H188        4.1495  -13.3309  -44.3022 H         1 UNK         0.0600 
    189 H189        2.3198  -14.3448  -47.2503 H         1 UNK         0.3000 
    190 H190       -2.1133  -20.0213  -45.9521 H         1 UNK         0.3000 
    191 H191       -4.3975  -20.3432  -47.5609 H         1 UNK         0.0600 
    192 H192       -4.2057  -19.7735  -44.5570 H         1 UNK         0.0600 
    193 H193       -5.6258  -19.5049  -45.5597 H         1 UNK         0.0600 
    194 H194       -4.1632  -18.5733  -45.8457 H         1 UNK         0.0600 
    195 H195       -3.3457  -22.2766  -44.7154 H         1 UNK         0.3000 
    196 H196       -5.5358  -24.0673  -44.6447 H         1 UNK         0.0600 
    197 H197       -3.9918  -25.4785  -43.2766 H         1 UNK         0.0600 
    198 H198       -3.9280  -23.7944  -42.7790 H         1 UNK         0.0600 
    199 H199       -2.6301  -24.4737  -43.7585 H         1 UNK         0.0600 
    200 H200       -2.5250  -24.1709  -46.5441 H         1 UNK         0.3000 
    201 H201       -3.0890  -26.7655  -47.7637 H         1 UNK         0.0600 
    202 H202       -0.7643  -25.9680  -47.2995 H         1 UNK         0.0600 
    203 H203       -0.9959  -24.6167  -48.4048 H         1 UNK         0.0600 
    204 H204       -0.9990  -26.2697  -49.0120 H         1 UNK         0.0600 
    205 H205       -4.5089  -23.7910  -48.2284 H         1 UNK         0.3000 
    206 H206       -5.5966  -22.6815  -49.7913 H         1 UNK         0.0600 
    207 H207       -6.8473  -23.9267  -51.5206 H         1 UNK         0.0600 
    208 H208       -5.8372  -25.3473  -51.2874 H         1 UNK         0.0600 
    209 H209       -6.9081  -24.8003  -49.9990 H         1 UNK         0.0600 
    210 H210       -2.8718  -22.4425  -49.8851 H         1 UNK         0.3000 
    211 H211       -1.1416  -21.6707  -50.9849 H         1 UNK         0.0600 
    212 H212       -3.0507  -21.1044  -53.3115 H         1 UNK         0.0600 
    213 H213       -1.4222  -20.4690  -53.1551 H         1 UNK         0.0600 
    214 H214       -2.6462  -20.0164  -51.9848 H         1 UNK         0.0600 
    215 H215       -1.6493  -24.4288  -50.9475 H         1 UNK         0.3000 
    216 H216       -0.8970  -26.3980  -51.6018 H         1 UNK         0.0600 
    217 H217        1.0741  -26.6611  -53.0397 H         1 UNK         0.0600 
    218 H218        1.3553  -25.3498  -51.9052 H         1 UNK         0.0600 
    219 H219        0.9692  -24.9970  -53.5890 H         1 UNK         0.0600 
    220 H220       -3.2547  -25.7962  -52.3297 H         1 UNK         0.3000 
    221 H221       -5.0141  -26.0963  -53.6337 H         1 UNK         0.0600 
    222 H222       -3.2748  -28.0878  -55.1839 H         1 UNK         0.0600 
    223 H223       -4.1761  -28.4411  -53.7107 H         1 UNK         0.0600 
    224 H224       -5.0314  -28.0202  -55.1854 H         1 UNK         0.0600 
    225 H225       -4.0605  -23.7615  -54.1395 H         1 UNK         0.3000 
    226 H226       -4.4464  -23.3231  -57.0508 H         1 UNK         0.0600 
    227 H227       -1.9671  -23.2026  -56.5805 H         1 UNK         0.0600 
    228 H228       -2.6440  -21.6683  -57.1076 H         1 UNK         0.0600 
    229 H229       -2.2750  -21.9239  -55.4093 H         1 UNK         0.0600 
    230 H230       -6.3555  -23.3414  -55.0934 H         1 UNK         0.3000 
    231 H231       -8.1517  -22.2683  -54.3741 H         1 UNK         0.0600 
    232 H232       -7.4704  -20.2299  -56.5570 H         1 UNK         0.0600 
    233 H233       -8.2788  -21.7737  -56.8255 H         1 UNK         0.0600 
    234 H234       -9.0617  -20.5284  -55.8695 H         1 UNK         0.0600 
    235 H235       -5.7996  -21.6315  -52.8616 H         1 UNK         0.3000 
    236 H236       -5.0753  -20.3509  -51.1704 H         1 UNK         0.0600 
    237 H237       -7.9651  -19.3623  -50.9991 H         1 UNK         0.0600 
    238 H238       -7.3632  -20.8669  -50.3057 H         1 UNK         0.0600 
    239 H239       -6.7685  -19.3263  -49.7102 H         1 UNK         0.0600 
    240 H240       -4.5009  -19.3328  -53.6429 H         1 UNK         0.3000 
    241 H241       -3.4281  -17.6669  -54.5616 H         1 UNK         0.0600 
    242 H242       -7.0700  -16.5101  -55.4833 H         1 UNK         0.3800 
    243 H243       -6.7225  -17.8497  -54.4213 H         1 UNK         0.3800 
    244 H244       -2.8590  -15.5257  -53.5332 H         1 UNK         0.0800 
    245 H245       -4.0634  -15.7242  -52.3015 H         1 UNK         0.0800 
    246 H246       -0.5981  -16.3116  -53.5235 H         1 UNK         0.0800 
    247 H247       -0.8727  -18.0347  -53.6219 H         1 UNK         0.0800 
@<TRIPOS>BOND
     1    1    2 1    
     2    1  127 1    
     3    1  128 1    
     4    1  129 1    
     5    2    3 2    
     6    2    4 am   BACKBONE|DICT|INTERRES
     7    4    5 1    
     8    4  130 1    
     9    5    6 1    
    10    5   65 1    
    11    5  131 1    
    12    6    7 1    
    13    6  132 1    
    14    6  133 1    
    15    7    8 1    
    16    8    9 1    
    17    8  134 1    
    18    8  135 1    
    19    9   10 ar   
    20    9   14 ar   
    21   10   11 ar   
    22   10  136 1    
    23   11   12 ar   
    24   11  126 1    
    25   12   13 ar   
    26   12  137 1    
    27   13   14 ar   
    28   13   15 1    
    29   14  138 1    
    30   15   16 1    
    31   15  139 1    
    32   15  140 1    
    33   16   17 1    
    34   17   18 1    
    35   17  141 1    
    36   17  142 1    
    37   18   19 1    
    38   18   67 1    
    39   18  143 1    
    40   19   20 am   BACKBONE|DICT|INTERRES
    41   19  144 1    
    42   20   21 2    
    43   20   22 1    
    44   22   23 1    
    45   22   24 1    
    46   22  145 1    
    47   23  146 1    
    48   23  147 1    
    49   23  148 1    
    50   24   25 am   BACKBONE|DICT|INTERRES
    51   24  149 1    
    52   25   26 2    
    53   25   27 1    
    54   27   28 1    
    55   27   29 1    
    56   27  150 1    
    57   28  151 1    
    58   28  152 1    
    59   28  153 1    
    60   29   30 am   BACKBONE|DICT|INTERRES
    61   29  154 1    
    62   30   31 2    
    63   30   32 1    
    64   32   33 1    
    65   32   34 1    
    66   32  155 1    
    67   33  156 1    
    68   33  157 1    
    69   33  158 1    
    70   34   35 am   BACKBONE|DICT|INTERRES
    71   34  159 1    
    72   35   36 2    
    73   35   37 1    
    74   37   38 1    
    75   37   39 1    
    76   37  160 1    
    77   38  161 1    
    78   38  162 1    
    79   38  163 1    
    80   39   40 am   BACKBONE|DICT|INTERRES
    81   39  164 1    
    82   40   41 2    
    83   40   42 1    
    84   42   43 1    
    85   42   44 1    
    86   42  165 1    
    87   43  166 1    
    88   43  167 1    
    89   43  168 1    
    90   44   45 am   BACKBONE|DICT|INTERRES
    91   44  169 1    
    92   45   46 2    
    93   45   47 1    
    94   47   48 1    
    95   47   49 1    
    96   47  170 1    
    97   48  171 1    
    98   48  172 1    
    99   48  173 1    
   100   49   50 am   BACKBONE|DICT|INTERRES
   101   49  174 1    
   102   50   51 2    
   103   50   52 1    
   104   52   53 1    
   105   52   54 1    
   106   52  175 1    
   107   53  176 1    
   108   53  177 1    
   109   53  178 1    
   110   54   55 am   BACKBONE|DICT|INTERRES
   111   54  179 1    
   112   55   56 2    
   113   55   57 1    
   114   57   58 1    
   115   57   59 1    
   116   57  180 1    
   117   58  181 1    
   118   58  182 1    
   119   58  183 1    
   120   59   60 am   BACKBONE|DICT|INTERRES
   121   59  184 1    
   122   60   61 2    
   123   60   62 1    
   124   62   63 1    
   125   62   64 1    
   126   62  185 1    
   127   63  186 1    
   128   63  187 1    
   129   63  188 1    
   130   64   65 am   BACKBONE|DICT|INTERRES
   131   64  189 1    
   132   65   66 2    
   133   67   68 2    
   134   67   69 am   BACKBONE|DICT|INTERRES
   135   69   70 1    
   136   69  190 1    
   137   70   71 1    
   138   70   72 1    
   139   70  191 1    
   140   71  192 1    
   141   71  193 1    
   142   71  194 1    
   143   72   73 2    
   144   72   74 am   BACKBONE|DICT|INTERRES
   145   74   75 1    
   146   74  195 1    
   147   75   76 1    
   148   75   77 1    
   149   75  196 1    
   150   76  197 1    
   151   76  198 1    
   152   76  199 1    
   153   77   78 2    
   154   77   79 am   BACKBONE|DICT|INTERRES
   155   79   80 1    
   156   79  200 1    
   157   80   81 1    
   158   80   82 1    
   159   80  201 1    
   160   81  202 1    
   161   81  203 1    
   162   81  204 1    
   163   82   83 2    
   164   82   84 am   BACKBONE|DICT|INTERRES
   165   84   85 1    
   166   84  205 1    
   167   85   86 1    
   168   85   87 1    
   169   85  206 1    
   170   86  207 1    
   171   86  208 1    
   172   86  209 1    
   173   87   88 2    
   174   87   89 am   BACKBONE|DICT|INTERRES
   175   89   90 1    
   176   89  210 1    
   177   90   91 1    
   178   90   92 1    
   179   90  211 1    
   180   91  212 1    
   181   91  213 1    
   182   91  214 1    
   183   92   93 2    
   184   92   94 am   BACKBONE|DICT|INTERRES
   185   94   95 1    
   186   94  215 1    
   187   95   96 1    
   188   95   97 1    
   189   95  216 1    
   190   96  217 1    
   191   96  218 1    
   192   96  219 1    
   193   97   98 2    
   194   97   99 am   BACKBONE|DICT|INTERRES
   195   99  100 1    
   196   99  220 1    
   197  100  101 1    
   198  100  102 1    
   199  100  221 1    
   200  101  222 1    
   201  101  223 1    
   202  101  224 1    
   203  102  103 2    
   204  102  104 am   BACKBONE|DICT|INTERRES
   205  104  105 1    
   206  104  225 1    
   207  105  106 1    
   208  105  107 1    
   209  105  226 1    
   210  106  227 1    
   211  106  228 1    
   212  106  229 1    
   213  107  108 2    
   214  107  109 am   BACKBONE|DICT|INTERRES
   215  109  110 1    
   216  109  230 1    
   217  110  111 1    
   218  110  112 1    
   219  110  231 1    
   220  111  232 1    
   221  111  233 1    
   222  111  234 1    
   223  112  113 2    
   224  112  114 am   BACKBONE|DICT|INTERRES
   225  114  115 1    
   226  114  235 1    
   227  115  116 1    
   228  115  117 1    
   229  115  236 1    
   230  116  237 1    
   231  116  238 1    
   232  116  239 1    
   233  117  118 2    
   234  117  119 am   BACKBONE|DICT|INTERRES
   235  119  120 1    
   236  119  240 1    
   237  120  121 1    
   238  120  124 1    
   239  120  241 1    
   240  121  122 am   BACKBONE|DICT|INTERRES
   241  121  123 2    
   242  122  242 1    
   243  122  243 1    
   244  124  125 1    
   245  124  244 1    
   246  124  245 1    
   247  125  126 1    
   248  126  246 1    
   249  126  247 1    
@<TRIPOS>SUBSTRUCTURE
     1 UNK         1 GROUP             0       ****    0 ROOT    
