@<TRIPOS>MOLECULE
3R540
247   249    1
SMALL
USER_CHARGES


@<TRIPOS>ATOM
      1 CA          6.7818  -16.5797  -45.4477 C.3       0 UNK        -0.1800 
      2 C           5.4301  -15.8843  -45.5049 C.2       0 UNK         0.5000 
      3 O           5.0286  -15.2443  -44.5349 O.2       0 UNK        -0.5000 
      4 N           4.7372  -15.9817  -46.6469 N.am      1 UNK        -0.5000 
      5 CA          3.3930  -15.4396  -46.9049 C.3       1 UNK         0.1400 
      6 C6          2.8080  -15.9754  -48.2331 C.3       23 UNK        -0.0398 
      7 S7          3.8694  -15.6825  -49.6931 S.3       23 UNK        -0.2404 
      8 C8          2.6699  -15.8503  -51.0590 C.3       23 UNK        -0.0205 
      9 C9          1.8142  -17.1062  -50.9441 C.ar      23 UNK        -0.0193 
     10 C10         0.4194  -17.0049  -50.9235 C.ar      23 UNK        -0.1150 
     11 C11        -0.3716  -18.1466  -50.7700 C.ar      23 UNK        -0.0193 
     12 C12         0.2418  -19.3934  -50.6237 C.ar      23 UNK        -0.1150 
     13 C13         1.6338  -19.5092  -50.6488 C.ar      23 UNK        -0.0193 
     14 C14         2.4138  -18.3648  -50.8304 C.ar      23 UNK        -0.1150 
     15 C15         2.2926  -20.8671  -50.4544 C.3       23 UNK        -0.0205 
     16 S16         3.1968  -20.9917  -48.8726 S.3       23 UNK        -0.2404 
     17 C17         1.9236  -20.5614  -47.6344 C.3       23 UNK        -0.0398 
     18 CA          1.2302  -21.7835  -46.9880 C.3       11 UNK         0.1400 
     19 N           0.5269  -21.4073  -45.7594 N.am      11 UNK        -0.5000 
     20 C          -0.0415  -22.2644  -44.9003 C.2       10 UNK         0.5000 
     21 O           0.0184  -23.4885  -45.0141 O.2       10 UNK        -0.5000 
     22 CA         -0.8553  -21.6483  -43.7466 C.3       10 UNK         0.1400 
     23 CB          0.0675  -21.1942  -42.6063 C.3       10 UNK        -0.1800 
     24 N          -1.6924  -20.5288  -44.1849 N.am      10 UNK        -0.5000 
     25 C          -2.7068  -20.6440  -45.0548 C.2       9 UNK         0.5000 
     26 O          -3.0778  -21.7166  -45.5288 O.2       9 UNK        -0.5000 
     27 CA         -3.3935  -19.3459  -45.5147 C.3       9 UNK         0.1400 
     28 CB         -4.4402  -18.8838  -44.4911 C.3       9 UNK        -0.1800 
     29 N          -2.4466  -18.2631  -45.7794 N.am      9 UNK        -0.5000 
     30 C          -1.4953  -18.2983  -46.7226 C.2       8 UNK         0.5000 
     31 O          -1.3400  -19.2408  -47.4968 O.2       8 UNK        -0.5000 
     32 CA         -0.5094  -17.1166  -46.7623 C.3       8 UNK         0.1400 
     33 CB         -1.1280  -15.8908  -47.4494 C.3       8 UNK        -0.1800 
     34 N          -0.0396  -16.7524  -45.4247 N.am      8 UNK        -0.5000 
     35 C           0.6907  -17.5598  -44.6420 C.2       7 UNK         0.5000 
     36 O           1.1133  -18.6575  -45.0023 O.2       7 UNK        -0.5000 
     37 CA          0.9528  -17.0875  -43.2037 C.3       7 UNK         0.1400 
     38 CB          2.2027  -16.2048  -43.1355 C.3       7 UNK        -0.1800 
     39 N          -0.1931  -16.3731  -42.6434 N.am      7 UNK        -0.5000 
     40 C          -1.3290  -16.9768  -42.2652 C.2       6 UNK         0.5000 
     41 O          -1.5084  -18.1929  -42.3329 O.2       6 UNK        -0.5000 
     42 CA         -2.4711  -16.0691  -41.7715 C.3       6 UNK         0.1400 
     43 CB         -2.2694  -15.6983  -40.2948 C.3       6 UNK        -0.1800 
     44 N          -2.6062  -14.8464  -42.5633 N.am      6 UNK        -0.5000 
     45 C          -2.9115  -14.8136  -43.8680 C.2       5 UNK         0.5000 
     46 O          -3.1688  -15.8166  -44.5310 O.2       5 UNK        -0.5000 
     47 CA         -2.8892  -13.4399  -44.5640 C.3       5 UNK         0.1400 
     48 CB         -4.3070  -12.8543  -44.6364 C.3       5 UNK        -0.1800 
     49 N          -1.9965  -12.4617  -43.9361 N.am      5 UNK        -0.5000 
     50 C          -0.6701  -12.5974  -43.7970 C.2       4 UNK         0.5000 
     51 O          -0.0520  -13.6012  -44.1611 O.2       4 UNK        -0.5000 
     52 CA          0.0509  -11.3984  -43.1445 C.3       4 UNK         0.1400 
     53 CB         -0.5059  -11.0886  -41.7375 C.3       4 UNK        -0.1800 
     54 N           1.5107  -11.5293  -43.1097 N.am      4 UNK        -0.5000 
     55 C           2.2571  -12.3941  -42.4097 C.2       3 UNK         0.5000 
     56 O           1.7958  -13.2259  -41.6257 O.2       3 UNK        -0.5000 
     57 CA          3.7838  -12.2890  -42.6264 C.3       3 UNK         0.1400 
     58 CB          4.5770  -13.3233  -41.8077 C.3       3 UNK        -0.1800 
     59 N           4.1576  -12.4122  -44.0387 N.am      3 UNK        -0.5000 
     60 C           4.0642  -11.4384  -44.9582 C.2       2 UNK         0.5000 
     61 O           3.6438  -10.3093  -44.7010 O.2       2 UNK        -0.5000 
     62 CA          4.4843  -11.7685  -46.4063 C.3       2 UNK         0.1400 
     63 CB          5.9156  -11.2796  -46.6746 C.3       2 UNK        -0.1800 
     64 N           4.4063  -13.1946  -46.7164 N.am      2 UNK        -0.5000 
     65 C           3.2710  -13.9006  -46.8040 C.2       1 UNK         0.5000 
     66 O           2.1534  -13.3854  -46.7818 O.2       1 UNK        -0.5000 
     67 C           0.2933  -22.5115  -47.9752 C.2       11 UNK         0.5000 
     68 O           0.6602  -23.5682  -48.4895 O.2       11 UNK        -0.5000 
     69 N          -0.9144  -21.9667  -48.1857 N.am      12 UNK        -0.5000 
     70 CA         -1.9619  -22.5754  -49.0056 C.3       12 UNK         0.1400 
     71 CB         -3.1521  -21.6179  -49.1480 C.3       12 UNK        -0.1800 
     72 C          -2.4159  -23.9403  -48.4643 C.2       12 UNK         0.5000 
     73 O          -2.5050  -24.8891  -49.2400 O.2       12 UNK        -0.5000 
     74 N          -2.6358  -24.0361  -47.1455 N.am      13 UNK        -0.5000 
     75 CA         -2.9916  -25.2760  -46.4539 C.3       13 UNK         0.1400 
     76 CB         -3.3037  -24.9805  -44.9795 C.3       13 UNK        -0.1800 
     77 C          -1.9101  -26.3649  -46.5800 C.2       13 UNK         0.5000 
     78 O          -2.2471  -27.5200  -46.8404 O.2       13 UNK        -0.5000 
     79 N          -0.6337  -25.9744  -46.4499 N.am      14 UNK        -0.5000 
     80 CA          0.5276  -26.8444  -46.6551 C.3       14 UNK         0.1400 
     81 CB          1.8008  -26.1163  -46.1985 C.3       14 UNK        -0.1800 
     82 C           0.6663  -27.3305  -48.1120 C.2       14 UNK         0.5000 
     83 O           1.0483  -28.4795  -48.3358 O.2       14 UNK        -0.5000 
     84 N           0.3206  -26.4623  -49.0718 N.am      15 UNK        -0.5000 
     85 CA          0.2695  -26.7619  -50.5049 C.3       15 UNK         0.1400 
     86 CB          0.3541  -25.4394  -51.2856 C.3       15 UNK        -0.1800 
     87 C          -0.9825  -27.5624  -50.9285 C.2       15 UNK         0.5000 
     88 O          -1.0469  -28.0004  -52.0779 O.2       15 UNK        -0.5000 
     89 N          -1.9496  -27.7261  -50.0124 N.am      16 UNK        -0.5000 
     90 CA         -3.2708  -28.3372  -50.1939 C.3       16 UNK         0.1400 
     91 CB         -3.1484  -29.8405  -50.5196 C.3       16 UNK        -0.1800 
     92 C          -4.1553  -27.5610  -51.1952 C.2       16 UNK         0.5000 
     93 O          -4.8800  -28.1672  -51.9872 O.2       16 UNK        -0.5000 
     94 N          -4.0751  -26.2281  -51.1349 N.am      17 UNK        -0.5000 
     95 CA         -4.8249  -25.2754  -51.9463 C.3       17 UNK         0.1400 
     96 CB         -3.8131  -24.4086  -52.7167 C.3       17 UNK        -0.1800 
     97 C          -5.7048  -24.3909  -51.0462 C.2       17 UNK         0.5000 
     98 O          -5.5359  -24.3741  -49.8245 O.2       17 UNK        -0.5000 
     99 N          -6.6162  -23.6407  -51.6736 N.am      18 UNK        -0.5000 
    100 CA        -7.3582  -22.5552  -51.0356 C.3       18 UNK         0.1400 
    101 CB        -8.7053  -22.3810  -51.7546 C.3       18 UNK        -0.1800 
    102 C         -6.5393  -21.2582  -51.1291 C.2       18 UNK         0.5000 
    103 O         -5.8729  -21.0367  -52.1414 O.2       18 UNK        -0.5000 
    104 N         -6.6447  -20.3904  -50.1144 N.am      19 UNK        -0.5000 
    105 CA        -5.9630  -19.0891  -50.0729 C.3       19 UNK         0.1400 
    106 CB        -6.1403  -18.4693  -48.6790 C.3       19 UNK        -0.1800 
    107 C         -6.4319  -18.1103  -51.1714 C.2       19 UNK         0.5000 
    108 O         -5.6728  -17.2281  -51.5709 O.2       19 UNK        -0.5000 
    109 N         -7.6629  -18.3046  -51.6642 N.am      20 UNK        -0.5000 
    110 CA        -8.2439  -17.5688  -52.7871 C.3       20 UNK         0.1400 
    111 CB        -9.7612  -17.8099  -52.8013 C.3       20 UNK        -0.1800 
    112 C         -7.6291  -17.9437  -54.1516 C.2       20 UNK         0.5000 
    113 O         -7.7158  -17.1460  -55.0859 O.2       20 UNK        -0.5000 
    114 N         -7.0189  -19.1347  -54.2555 N.am      21 UNK        -0.5000 
    115 CA        -6.3934  -19.6376  -55.4825 C.3       21 UNK         0.1400 
    116 CB        -6.3274  -21.1729  -55.4247 C.3       21 UNK        -0.1800 
    117 C         -4.9946  -19.0411  -55.7382 C.2       21 UNK         0.5000 
    118 O         -4.4560  -19.2213  -56.8312 O.2       21 UNK        -0.5000 
    119 N         -4.4289  -18.3515  -54.7392 N.am      22 UNK        -0.5000 
    120 CA        -3.0991  -17.7215  -54.7840 C.3       22 UNK         0.1400 
    121 C         -2.9965  -16.4720  -55.7092 C.2       22 UNK         0.5000 
    122 N         -4.0964  -15.8974  -56.1824 N.am      22 UNK        -0.7600 
    123 O         -1.8953  -16.0171  -56.0065 O.2       22 UNK        -0.5000 
    124 C124       -2.5787  -17.3804  -53.3647 C.3       23 UNK        -0.0398 
    125 S125       -2.6356  -18.7952  -52.2152 S.3       23 UNK        -0.2404 
    126 C126       -1.8878  -18.0423  -50.7393 C.3       23 UNK        -0.0205 
    127 H127        7.5694  -15.8522  -45.2518 H         1 UNK         0.0600 
    128 H128        7.0145  -17.0917  -46.3816 H         1 UNK         0.0600 
    129 H129        6.7889  -17.3163  -44.6443 H         1 UNK         0.0600 
    130 H130        5.1422  -16.4879  -47.4223 H         1 UNK         0.3000 
    131 H131        2.7566  -15.8241  -46.1066 H         1 UNK         0.0600 
    132 H132        1.8177  -15.5551  -48.4172 H         1 UNK         0.0800 
    133 H133        2.6586  -17.0526  -48.1454 H         1 UNK         0.0800 
    134 H134        2.0437  -14.9570  -51.0819 H         1 UNK         0.0800 
    135 H135        3.2102  -15.8730  -52.0062 H         1 UNK         0.0800 
    136 H136       -0.0516  -16.0366  -51.0174 H         1 UNK         0.1150 
    137 H137       -0.3713  -20.2726  -50.4849 H         1 UNK         0.1150 
    138 H138        3.4915  -18.4493  -50.8409 H         1 UNK         0.1150 
    139 H139        1.5543  -21.6682  -50.5125 H         1 UNK         0.0800 
    140 H140        2.9920  -21.0429  -51.2727 H         1 UNK         0.0800 
    141 H141        1.1940  -19.8649  -48.0447 H         1 UNK         0.0800 
    142 H142        2.4473  -19.9993  -46.8606 H         1 UNK         0.0800 
    143 H143        2.0069  -22.4932  -46.6953 H         1 UNK         0.0600 
    144 H144        0.4703  -20.4126  -45.5611 H         1 UNK         0.3000 
    145 H145       -1.5166  -22.4244  -43.3561 H         1 UNK         0.0600 
    146 H146        0.6723  -22.0249  -42.2407 H         1 UNK         0.0600 
    147 H147        0.7505  -20.4083  -42.9277 H         1 UNK         0.0600 
    148 H148       -0.5072  -20.8136  -41.7619 H         1 UNK         0.0600 
    149 H149       -1.4854  -19.6181  -43.7886 H         1 UNK         0.3000 
    150 H150       -3.9100  -19.5645  -46.4506 H         1 UNK         0.0600 
    151 H151       -5.1669  -19.6723  -44.2918 H         1 UNK         0.0600 
    152 H152       -4.9918  -18.0176  -44.8570 H         1 UNK         0.0600 
    153 H153       -3.9811  -18.6103  -43.5408 H         1 UNK         0.0600 
    154 H154       -2.5479  -17.4245  -45.2123 H         1 UNK         0.3000 
    155 H155        0.3560  -17.4315  -47.3480 H         1 UNK         0.0600 
    156 H156       -2.0474  -15.5713  -46.9601 H         1 UNK         0.0600 
    157 H157       -0.4386  -15.0461  -47.4508 H         1 UNK         0.0600 
    158 H158       -1.3733  -16.1123  -48.4877 H         1 UNK         0.0600 
    159 H159       -0.3398  -15.8607  -45.0532 H         1 UNK         0.3000 
    160 H160        1.1385  -17.9724  -42.5914 H         1 UNK         0.0600 
    161 H161        2.0948  -15.2960  -43.7288 H         1 UNK         0.0600 
    162 H162        3.0740  -16.7434  -43.5082 H         1 UNK         0.0600 
    163 H163        2.4190  -15.9116  -42.1085 H         1 UNK         0.0600 
    164 H164       -0.1293  -15.3633  -42.6137 H         1 UNK         0.3000 
    165 H165       -3.4034  -16.6309  -41.8596 H         1 UNK         0.0600 
    166 H166       -3.1142  -15.1247  -39.9131 H         1 UNK         0.0600 
    167 H167       -2.1793  -16.5928  -39.6769 H         1 UNK         0.0600 
    168 H168       -1.3659  -15.1048  -40.1476 H         1 UNK         0.0600 
    169 H169       -2.4052  -13.9746  -42.0970 H         1 UNK         0.3000 
    170 H170       -2.5339  -13.5990  -45.5838 H         1 UNK         0.0600 
    171 H171       -4.9924  -13.5493  -45.1238 H         1 UNK         0.0600 
    172 H172       -4.7060  -12.6418  -43.6437 H         1 UNK         0.0600 
    173 H173       -4.3235  -11.9284  -45.2117 H         1 UNK         0.0600 
    174 H174       -2.4319  -11.6085  -43.6165 H         1 UNK         0.3000 
    175 H175       -0.1480  -10.5347  -43.7806 H         1 UNK         0.0600 
    176 H176       -0.4546  -11.9555  -41.0780 H         1 UNK         0.0600 
    177 H177        0.0476  -10.2770  -41.2650 H         1 UNK         0.0600 
    178 H178       -1.5497  -10.7770  -41.7816 H         1 UNK         0.0600 
    179 H179        2.0158  -10.9174  -43.7428 H         1 UNK         0.3000 
    180 H180        4.0846  -11.3005  -42.2734 H         1 UNK         0.0600 
    181 H181        4.3204  -14.3440  -42.0907 H         1 UNK         0.0600 
    182 H182        4.3751  -13.2174  -40.7412 H         1 UNK         0.0600 
    183 H183        5.6506  -13.1984  -41.9486 H         1 UNK         0.0600 
    184 H184        4.4734  -13.3327  -44.3301 H         1 UNK         0.3000 
    185 H185        3.8073  -11.2352  -47.0768 H         1 UNK         0.0600 
    186 H186        6.0058  -10.2099  -46.4805 H         1 UNK         0.0600 
    187 H187        6.6410  -11.7909  -46.0404 H         1 UNK         0.0600 
    188 H188        6.2011  -11.4452  -47.7137 H         1 UNK         0.0600 
    189 H189        5.2787  -13.7015  -46.7460 H         1 UNK         0.3000 
    190 H190       -1.1307  -21.0670  -47.7618 H         1 UNK         0.3000 
    191 H191       -1.5451  -22.7387  -50.0015 H         1 UNK         0.0600 
    192 H192       -3.5858  -21.3579  -48.1829 H         1 UNK         0.0600 
    193 H193       -3.9399  -22.0654  -49.7536 H         1 UNK         0.0600 
    194 H194       -2.8535  -20.6973  -49.6432 H         1 UNK         0.0600 
    195 H195       -2.5868  -23.1947  -46.5761 H         1 UNK         0.3000 
    196 H196       -3.9009  -25.6595  -46.9214 H         1 UNK         0.0600 
    197 H197       -3.5924  -25.8899  -44.4513 H         1 UNK         0.0600 
    198 H198       -4.1288  -24.2742  -44.8860 H         1 UNK         0.0600 
    199 H199       -2.4426  -24.5585  -44.4615 H         1 UNK         0.0600 
    200 H200       -0.4410  -25.0111  -46.1899 H         1 UNK         0.3000 
    201 H201        0.3978  -27.7263  -46.0245 H         1 UNK         0.0600 
    202 H202        1.7384  -25.8362  -45.1468 H         1 UNK         0.0600 
    203 H203        1.9753  -25.2080  -46.7755 H         1 UNK         0.0600 
    204 H204        2.6784  -26.7534  -46.3147 H         1 UNK         0.0600 
    205 H205        0.0760  -25.5147  -48.8021 H         1 UNK         0.3000 
    206 H206        1.1426  -27.3639  -50.7642 H         1 UNK         0.0600 
    207 H207        1.2542  -24.8828  -51.0240 H         1 UNK         0.0600 
    208 H208        0.3842  -25.6191  -52.3609 H         1 UNK         0.0600 
    209 H209       -0.5048  -24.7987  -51.0853 H         1 UNK         0.0600 
    210 H210       -1.8005  -27.2951  -49.1091 H         1 UNK         0.3000 
    211 H211       -3.7713  -28.2540  -49.2282 H         1 UNK         0.0600 
    212 H212       -2.7153  -30.0101  -51.5056 H         1 UNK         0.0600 
    213 H213       -4.1264  -30.3228  -50.5063 H         1 UNK         0.0600 
    214 H214       -2.5254  -30.3524  -49.7861 H         1 UNK         0.0600 
    215 H215       -3.4967  -25.8053  -50.4084 H         1 UNK         0.3000 
    216 H216       -5.4711  -25.7935  -52.6575 H         1 UNK         0.0600 
    217 H217       -4.3159  -23.6880  -53.3629 H         1 UNK         0.0600 
    218 H218       -3.1731  -25.0223  -53.3510 H         1 UNK         0.0600 
    219 H219       -3.1689  -23.8468  -52.0384 H         1 UNK         0.0600 
    220 H220       -6.6611  -23.6705  -52.6817 H         1 UNK         0.3000 
    221 H221       -7.5475  -22.7921  -49.9863 H         1 UNK         0.0600 
    222 H222       -8.5731  -22.1181  -52.8052 H         1 UNK         0.0600 
    223 H223       -9.2952  -23.2968  -51.7110 H         1 UNK         0.0600 
    224 H224       -9.2981  -21.5918  -51.2907 H         1 UNK         0.0600 
    225 H225       -7.2200  -20.6255  -49.3182 H         1 UNK         0.3000 
    226 H226       -4.8978  -19.2673  -50.2302 H         1 UNK         0.0600 
    227 H227       -5.7690  -19.1358  -47.9010 H         1 UNK         0.0600 
    228 H228       -5.5866  -17.5331  -48.5951 H         1 UNK         0.0600 
    229 H229       -7.1876  -18.2534  -48.4646 H         1 UNK         0.0600 
    230 H230       -8.2236  -19.0440  -51.2684 H         1 UNK         0.3000 
    231 H231       -8.0676  -16.5028  -52.6284 H         1 UNK         0.0600 
    232 H232      -10.2382  -17.2533  -53.6091 H         1 UNK         0.0600 
    233 H233      -10.2217  -17.4837  -51.8685 H         1 UNK         0.0600 
    234 H234      -10.0000  -18.8647  -52.9440 H         1 UNK         0.0600 
    235 H235       -6.9181  -19.7185  -53.4335 H         1 UNK         0.3000 
    236 H236       -7.0242  -19.3637  -56.3307 H         1 UNK         0.0600 
    237 H237       -7.3025  -21.6057  -55.2011 H         1 UNK         0.0600 
    238 H238       -6.0022  -21.5825  -56.3817 H         1 UNK         0.0600 
    239 H239       -5.6216  -21.5197  -54.6700 H         1 UNK         0.0600 
    240 H240       -4.9289  -18.2654  -53.8657 H         1 UNK         0.3000 
    241 H241       -2.4159  -18.4601  -55.2078 H         1 UNK         0.0600 
    242 H242       -5.0069  -16.2620  -55.9484 H         1 UNK         0.3800 
    243 H243       -4.0174  -15.0920  -56.7835 H         1 UNK         0.3800 
    244 H244       -1.5479  -17.0244  -53.4136 H         1 UNK         0.0800 
    245 H245       -3.1678  -16.5690  -52.9331 H         1 UNK         0.0800 
    246 H246       -2.2117  -17.0043  -50.6523 H         1 UNK         0.0800 
    247 H247       -2.2646  -18.5447  -49.8503 H         1 UNK         0.0800 
@<TRIPOS>BOND
     1    1    2 1    
     2    1  127 1    
     3    1  128 1    
     4    1  129 1    
     5    2    3 2    
     6    2    4 am   BACKBONE|DICT|INTERRES
     7    4    5 1    
     8    4  130 1    
     9    5    6 1    
    10    5   65 1    
    11    5  131 1    
    12    6    7 1    
    13    6  132 1    
    14    6  133 1    
    15    7    8 1    
    16    8    9 1    
    17    8  134 1    
    18    8  135 1    
    19    9   10 ar   
    20    9   14 ar   
    21   10   11 ar   
    22   10  136 1    
    23   11   12 ar   
    24   11  126 1    
    25   12   13 ar   
    26   12  137 1    
    27   13   14 ar   
    28   13   15 1    
    29   14  138 1    
    30   15   16 1    
    31   15  139 1    
    32   15  140 1    
    33   16   17 1    
    34   17   18 1    
    35   17  141 1    
    36   17  142 1    
    37   18   19 1    
    38   18   67 1    
    39   18  143 1    
    40   19   20 am   BACKBONE|DICT|INTERRES
    41   19  144 1    
    42   20   21 2    
    43   20   22 1    
    44   22   23 1    
    45   22   24 1    
    46   22  145 1    
    47   23  146 1    
    48   23  147 1    
    49   23  148 1    
    50   24   25 am   BACKBONE|DICT|INTERRES
    51   24  149 1    
    52   25   26 2    
    53   25   27 1    
    54   27   28 1    
    55   27   29 1    
    56   27  150 1    
    57   28  151 1    
    58   28  152 1    
    59   28  153 1    
    60   29   30 am   BACKBONE|DICT|INTERRES
    61   29  154 1    
    62   30   31 2    
    63   30   32 1    
    64   32   33 1    
    65   32   34 1    
    66   32  155 1    
    67   33  156 1    
    68   33  157 1    
    69   33  158 1    
    70   34   35 am   BACKBONE|DICT|INTERRES
    71   34  159 1    
    72   35   36 2    
    73   35   37 1    
    74   37   38 1    
    75   37   39 1    
    76   37  160 1    
    77   38  161 1    
    78   38  162 1    
    79   38  163 1    
    80   39   40 am   BACKBONE|DICT|INTERRES
    81   39  164 1    
    82   40   41 2    
    83   40   42 1    
    84   42   43 1    
    85   42   44 1    
    86   42  165 1    
    87   43  166 1    
    88   43  167 1    
    89   43  168 1    
    90   44   45 am   BACKBONE|DICT|INTERRES
    91   44  169 1    
    92   45   46 2    
    93   45   47 1    
    94   47   48 1    
    95   47   49 1    
    96   47  170 1    
    97   48  171 1    
    98   48  172 1    
    99   48  173 1    
   100   49   50 am   BACKBONE|DICT|INTERRES
   101   49  174 1    
   102   50   51 2    
   103   50   52 1    
   104   52   53 1    
   105   52   54 1    
   106   52  175 1    
   107   53  176 1    
   108   53  177 1    
   109   53  178 1    
   110   54   55 am   BACKBONE|DICT|INTERRES
   111   54  179 1    
   112   55   56 2    
   113   55   57 1    
   114   57   58 1    
   115   57   59 1    
   116   57  180 1    
   117   58  181 1    
   118   58  182 1    
   119   58  183 1    
   120   59   60 am   BACKBONE|DICT|INTERRES
   121   59  184 1    
   122   60   61 2    
   123   60   62 1    
   124   62   63 1    
   125   62   64 1    
   126   62  185 1    
   127   63  186 1    
   128   63  187 1    
   129   63  188 1    
   130   64   65 am   BACKBONE|DICT|INTERRES
   131   64  189 1    
   132   65   66 2    
   133   67   68 2    
   134   67   69 am   BACKBONE|DICT|INTERRES
   135   69   70 1    
   136   69  190 1    
   137   70   71 1    
   138   70   72 1    
   139   70  191 1    
   140   71  192 1    
   141   71  193 1    
   142   71  194 1    
   143   72   73 2    
   144   72   74 am   BACKBONE|DICT|INTERRES
   145   74   75 1    
   146   74  195 1    
   147   75   76 1    
   148   75   77 1    
   149   75  196 1    
   150   76  197 1    
   151   76  198 1    
   152   76  199 1    
   153   77   78 2    
   154   77   79 am   BACKBONE|DICT|INTERRES
   155   79   80 1    
   156   79  200 1    
   157   80   81 1    
   158   80   82 1    
   159   80  201 1    
   160   81  202 1    
   161   81  203 1    
   162   81  204 1    
   163   82   83 2    
   164   82   84 am   BACKBONE|DICT|INTERRES
   165   84   85 1    
   166   84  205 1    
   167   85   86 1    
   168   85   87 1    
   169   85  206 1    
   170   86  207 1    
   171   86  208 1    
   172   86  209 1    
   173   87   88 2    
   174   87   89 am   BACKBONE|DICT|INTERRES
   175   89   90 1    
   176   89  210 1    
   177   90   91 1    
   178   90   92 1    
   179   90  211 1    
   180   91  212 1    
   181   91  213 1    
   182   91  214 1    
   183   92   93 2    
   184   92   94 am   BACKBONE|DICT|INTERRES
   185   94   95 1    
   186   94  215 1    
   187   95   96 1    
   188   95   97 1    
   189   95  216 1    
   190   96  217 1    
   191   96  218 1    
   192   96  219 1    
   193   97   98 2    
   194   97   99 am   BACKBONE|DICT|INTERRES
   195   99  100 1    
   196   99  220 1    
   197  100  101 1    
   198  100  102 1    
   199  100  221 1    
   200  101  222 1    
   201  101  223 1    
   202  101  224 1    
   203  102  103 2    
   204  102  104 am   BACKBONE|DICT|INTERRES
   205  104  105 1    
   206  104  225 1    
   207  105  106 1    
   208  105  107 1    
   209  105  226 1    
   210  106  227 1    
   211  106  228 1    
   212  106  229 1    
   213  107  108 2    
   214  107  109 am   BACKBONE|DICT|INTERRES
   215  109  110 1    
   216  109  230 1    
   217  110  111 1    
   218  110  112 1    
   219  110  231 1    
   220  111  232 1    
   221  111  233 1    
   222  111  234 1    
   223  112  113 2    
   224  112  114 am   BACKBONE|DICT|INTERRES
   225  114  115 1    
   226  114  235 1    
   227  115  116 1    
   228  115  117 1    
   229  115  236 1    
   230  116  237 1    
   231  116  238 1    
   232  116  239 1    
   233  117  118 2    
   234  117  119 am   BACKBONE|DICT|INTERRES
   235  119  120 1    
   236  119  240 1    
   237  120  121 1    
   238  120  124 1    
   239  120  241 1    
   240  121  122 am   BACKBONE|DICT|INTERRES
   241  121  123 2    
   242  122  242 1    
   243  122  243 1    
   244  124  125 1    
   245  124  244 1    
   246  124  245 1    
   247  125  126 1    
   248  126  246 1    
   249  126  247 1    
@<TRIPOS>SUBSTRUCTURE
     1 UNK         1 GROUP             0       ****    0 ROOT    
