@<TRIPOS>MOLECULE
3R540
247   249    1
SMALL
USER_CHARGES


@<TRIPOS>ATOM
      1 CA          0.7106  -18.3548  -51.8745 C.3       0 UNK        -0.1800 
      2 C           0.5588  -17.4396  -50.6718 C.2       0 UNK         0.5000 
      3 O           0.8694  -17.8486  -49.5555 O.2       0 UNK        -0.5000 
      4 N           0.1082  -16.1964  -50.8982 N.am      1 UNK        -0.5000 
      5 CA         -0.1817  -15.1872  -49.8669 C.3       1 UNK         0.1400 
      6 C6         -0.8320  -13.9247  -50.4917 C.3       23 UNK        -0.0398 
      7 S7         -1.6784  -12.8561  -49.2734 S.3       23 UNK        -0.2404 
      8 C8         -3.4413  -13.0681  -49.7048 C.3       23 UNK        -0.0205 
      9 C9         -3.9691  -14.4904  -49.5318 C.ar      23 UNK        -0.0193 
     10 C10        -4.8791  -15.0054  -50.4604 C.ar      23 UNK        -0.1150 
     11 C11        -5.3839  -16.3075  -50.3321 C.ar      23 UNK        -0.0193 
     12 C12        -4.9593  -17.0920  -49.2552 C.ar      23 UNK        -0.1150 
     13 C13        -4.0637  -16.5865  -48.3102 C.ar      23 UNK        -0.0193 
     14 C14        -3.5868  -15.2812  -48.4441 C.ar      23 UNK        -0.1150 
     15 C15        -3.6089  -17.4420  -47.1406 C.3       23 UNK        -0.0205 
     16 S16        -1.8954  -17.9979  -47.3739 S.3       23 UNK        -0.2404 
     17 C17        -1.6040  -18.8631  -45.7998 C.3       23 UNK        -0.0398 
     18 CA         -1.1685  -20.3293  -46.0103 C.3       11 UNK         0.1400 
     19 N          -0.3899  -20.8200  -44.8744 N.am      11 UNK        -0.5000 
     20 C           0.2825  -21.9761  -44.8686 C.2       10 UNK         0.5000 
     21 O           0.3743  -22.7158  -45.8467 O.2       10 UNK        -0.5000 
     22 CA          0.8991  -22.4050  -43.5275 C.3       10 UNK         0.1400 
     23 CB          2.2849  -21.7703  -43.3313 C.3       10 UNK        -0.1800 
     24 N           0.0225  -22.0754  -42.4000 N.am      10 UNK        -0.5000 
     25 C          -1.1592  -22.6710  -42.1760 C.2       9 UNK         0.5000 
     26 O          -1.5998  -23.5822  -42.8737 O.2       9 UNK        -0.5000 
     27 CA         -2.0160  -22.1340  -41.0149 C.3       9 UNK         0.1400 
     28 CB         -1.5813  -22.7697  -39.6863 C.3       9 UNK        -0.1800 
     29 N          -1.9639  -20.6777  -40.8952 N.am      9 UNK        -0.5000 
     30 C          -2.4118  -19.8124  -41.8170 C.2       8 UNK         0.5000 
     31 O          -2.9788  -20.1499  -42.8550 O.2       8 UNK        -0.5000 
     32 CA         -2.1041  -18.3223  -41.5673 C.3       8 UNK         0.1400 
     33 CB         -3.2318  -17.6608  -40.7629 C.3       8 UNK        -0.1800 
     34 N          -0.8247  -18.1206  -40.8779 N.am      8 UNK        -0.5000 
     35 C           0.3584  -18.4867  -41.3864 C.2       7 UNK         0.5000 
     36 O           0.4857  -18.9822  -42.5074 O.2       7 UNK        -0.5000 
     37 CA          1.5724  -18.3796  -40.4590 C.3       7 UNK         0.1400 
     38 CB          1.8044  -19.7317  -39.7541 C.3       7 UNK        -0.1800 
     39 N           2.7458  -17.9895  -41.2341 N.am      7 UNK        -0.5000 
     40 C           3.9130  -17.5890  -40.7120 C.2       6 UNK         0.5000 
     41 O           4.1466  -17.5435  -39.5033 O.2       6 UNK        -0.5000 
     42 CA          4.9859  -17.1100  -41.7022 C.3       6 UNK         0.1400 
     43 CB          5.5371  -18.2694  -42.5495 C.3       6 UNK        -0.1800 
     44 N           4.4369  -16.0659  -42.5643 N.am      6 UNK        -0.5000 
     45 C           4.3622  -14.7706  -42.2217 C.2       5 UNK         0.5000 
     46 O           4.8663  -14.3057  -41.1985 O.2       5 UNK        -0.5000 
     47 CA          3.5860  -13.8295  -43.1648 C.3       5 UNK         0.1400 
     48 CB          4.5470  -13.1064  -44.1202 C.3       5 UNK        -0.1800 
     49 N           2.5647  -14.5270  -43.9448 N.am      5 UNK        -0.5000 
     50 C           1.4227  -15.0156  -43.4388 C.2       4 UNK         0.5000 
     51 O           1.0614  -14.8428  -42.2746 O.2       4 UNK        -0.5000 
     52 CA          0.5541  -15.8730  -44.3787 C.3       4 UNK         0.1400 
     53 CB         -0.6079  -15.0453  -44.9479 C.3       4 UNK        -0.1800 
     54 N           1.3123  -16.4896  -45.4732 N.am      4 UNK        -0.5000 
     55 C           2.2732  -17.4127  -45.3018 C.2       3 UNK         0.5000 
     56 O           2.6339  -17.8136  -44.1966 O.2       3 UNK        -0.5000 
     57 CA          2.9998  -17.9379  -46.5528 C.3       3 UNK         0.1400 
     58 CB          2.3777  -19.2602  -47.0198 C.3       3 UNK        -0.1800 
     59 N           3.0080  -16.9762  -47.6560 N.am      3 UNK        -0.5000 
     60 C           3.7056  -15.8291  -47.6438 C.2       2 UNK         0.5000 
     61 O           4.4449  -15.5006  -46.7159 O.2       2 UNK        -0.5000 
     62 CA          3.5330  -14.8662  -48.8381 C.3       2 UNK         0.1400 
     63 CB          4.6787  -15.0504  -49.8442 C.3       2 UNK        -0.1800 
     64 N           2.2567  -15.0065  -49.5417 N.am      2 UNK        -0.5000 
     65 C           1.0455  -14.8383  -48.9904 C.2       1 UNK         0.5000 
     66 O           0.8835  -14.4895  -47.8218 O.2       1 UNK        -0.5000 
     67 C          -2.3591  -21.2571  -46.3396 C.2       11 UNK         0.5000 
     68 O          -2.5596  -21.6117  -47.5021 O.2       11 UNK        -0.5000 
     69 N          -3.1062  -21.6552  -45.3025 N.am      12 UNK        -0.5000 
     70 CA         -4.2844  -22.5101  -45.4105 C.3       12 UNK         0.1400 
     71 CB         -5.0624  -22.4662  -44.0868 C.3       12 UNK        -0.1800 
     72 C          -3.9695  -23.9658  -45.7994 C.2       12 UNK         0.5000 
     73 O          -4.7204  -24.5398  -46.5874 O.2       12 UNK        -0.5000 
     74 N          -2.9045  -24.5466  -45.2282 N.am      13 UNK        -0.5000 
     75 CA         -2.5787  -25.9662  -45.3724 C.3       13 UNK         0.1400 
     76 CB         -2.1934  -26.5524  -44.0035 C.3       13 UNK        -0.1800 
     77 C          -1.4672  -26.2167  -46.4021 C.2       13 UNK         0.5000 
     78 O          -1.6905  -26.9653  -47.3531 O.2       13 UNK        -0.5000 
     79 N          -0.2841  -25.6227  -46.1886 N.am      14 UNK        -0.5000 
     80 CA          0.9263  -25.9159  -46.9638 C.3       14 UNK         0.1400 
     81 CB          2.1801  -25.5086  -46.1721 C.3       14 UNK        -0.1800 
     82 C           0.9052  -25.2718  -48.3591 C.2       14 UNK         0.5000 
     83 O           1.1957  -25.9520  -49.3439 O.2       14 UNK        -0.5000 
     84 N           0.5204  -23.9896  -48.4264 N.am      15 UNK        -0.5000 
     85 CA          0.2639  -23.2822  -49.6869 C.3       15 UNK         0.1400 
     86 CB          0.4264  -21.7698  -49.4727 C.3       15 UNK        -0.1800 
     87 C          -1.1277  -23.6152  -50.2657 C.2       15 UNK         0.5000 
     88 O          -1.3850  -23.3248  -51.4344 O.2       15 UNK        -0.5000 
     89 N          -1.9941  -24.2190  -49.4368 N.am      16 UNK        -0.5000 
     90 CA         -3.3358  -24.7274  -49.7420 C.3       16 UNK         0.1400 
     91 CB         -3.2438  -25.9003  -50.7403 C.3       16 UNK        -0.1800 
     92 C          -4.3319  -23.6439  -50.2076 C.2       16 UNK         0.5000 
     93 O          -5.3207  -23.9767  -50.8638 O.2       16 UNK        -0.5000 
     94 N          -4.0367  -22.3688  -49.9087 N.am      17 UNK        -0.5000 
     95 CA         -4.6722  -21.1248  -50.3664 C.3       17 UNK         0.1400 
     96 CB         -6.1144  -21.0117  -49.8406 C.3       17 UNK        -0.1800 
     97 C          -4.6154  -20.8875  -51.8927 C.2       17 UNK         0.5000 
     98 O          -4.3552  -19.7642  -52.3208 O.2       17 UNK        -0.5000 
     99 N          -4.8392  -21.9387  -52.6902 N.am      18 UNK        -0.5000 
    100 CA        -4.8970  -21.9479  -54.1523 C.3       18 UNK         0.1400 
    101 CB        -5.2108  -23.3745  -54.6259 C.3       18 UNK        -0.1800 
    102 C         -3.6326  -21.4176  -54.8522 C.2       18 UNK         0.5000 
    103 O         -3.7460  -20.8524  -55.9404 O.2       18 UNK        -0.5000 
    104 N         -2.4624  -21.5552  -54.2106 N.am      19 UNK        -0.5000 
    105 CA        -1.1836  -21.0215  -54.6909 C.3       19 UNK         0.1400 
    106 CB        -0.0468  -21.5501  -53.8047 C.3       19 UNK        -0.1800 
    107 C         -1.1381  -19.4806  -54.7778 C.2       19 UNK         0.5000 
    108 O         -0.3124  -18.9466  -55.5184 O.2       19 UNK        -0.5000 
    109 N         -2.0333  -18.7918  -54.0530 N.am      20 UNK        -0.5000 
    110 CA        -2.2281  -17.3424  -54.1293 C.3       20 UNK         0.1400 
    111 CB        -2.8519  -16.8600  -52.8118 C.3       20 UNK        -0.1800 
    112 C         -3.0921  -16.9100  -55.3354 C.2       20 UNK         0.5000 
    113 O         -3.2624  -15.7083  -55.5430 O.2       20 UNK        -0.5000 
    114 N         -3.6184  -17.8806  -56.1015 N.am      21 UNK        -0.5000 
    115 CA        -4.4733  -17.7278  -57.2840 C.3       21 UNK         0.1400 
    116 CB        -3.7419  -16.9722  -58.4140 C.3       21 UNK        -0.1800 
    117 C         -5.8642  -17.1449  -56.9574 C.2       21 UNK         0.5000 
    118 O         -6.4474  -16.4357  -57.7796 O.2       21 UNK        -0.5000 
    119 N         -6.3798  -17.4726  -55.7655 N.am      22 UNK        -0.5000 
    120 CA        -7.7062  -17.0561  -55.2766 C.3       22 UNK         0.1400 
    121 C         -8.9054  -17.8142  -55.9214 C.2       22 UNK         0.5000 
    122 N         -8.6940  -18.8832  -56.6799 N.am      22 UNK        -0.7600 
    123 O        -10.0531  -17.4192  -55.7345 O.2       22 UNK        -0.5000 
    124 C124       -7.7939  -17.1161  -53.7304 C.3       23 UNK        -0.0398 
    125 S125       -6.5517  -16.0590  -52.9157 S.3       23 UNK        -0.2404 
    126 C126       -6.4035  -16.9049  -51.3046 C.3       23 UNK        -0.0205 
    127 H127        0.6751  -17.8016  -52.8129 H         1 UNK         0.0600 
    128 H128       -0.0952  -19.0870  -51.8723 H         1 UNK         0.0600 
    129 H129        1.6600  -18.8883  -51.8296 H         1 UNK         0.0600 
    130 H130       -0.0960  -15.9190  -51.8466 H         1 UNK         0.3000 
    131 H131       -0.9128  -15.6484  -49.2011 H         1 UNK         0.0600 
    132 H132       -0.0874  -13.3285  -51.0219 H         1 UNK         0.0800 
    133 H133       -1.5635  -14.2200  -51.2449 H         1 UNK         0.0800 
    134 H134       -4.0342  -12.4043  -49.0747 H         1 UNK         0.0800 
    135 H135       -3.5871  -12.7285  -50.7316 H         1 UNK         0.0800 
    136 H136       -5.1945  -14.3782  -51.2810 H         1 UNK         0.1150 
    137 H137       -5.3356  -18.0990  -49.1463 H         1 UNK         0.1150 
    138 H138       -2.8990  -14.8916  -47.7068 H         1 UNK         0.1150 
    139 H139       -3.6836  -16.8626  -46.2190 H         1 UNK         0.0800 
    140 H140       -4.2579  -18.3111  -47.0200 H         1 UNK         0.0800 
    141 H141       -0.8133  -18.3163  -45.2883 H         1 UNK         0.0800 
    142 H142       -2.4771  -18.7935  -45.1491 H         1 UNK         0.0800 
    143 H143       -0.4972  -20.3590  -46.8676 H         1 UNK         0.0600 
    144 H144       -0.3821  -20.2543  -44.0337 H         1 UNK         0.3000 
    145 H145        1.0269  -23.4894  -43.5520 H         1 UNK         0.0600 
    146 H146        2.7364  -22.0889  -42.3920 H         1 UNK         0.0600 
    147 H147        2.9618  -22.0672  -44.1334 H         1 UNK         0.0600 
    148 H148        2.2435  -20.6811  -43.3323 H         1 UNK         0.0600 
    149 H149        0.2912  -21.2857  -41.8324 H         1 UNK         0.3000 
    150 H150       -3.0525  -22.4185  -41.2072 H         1 UNK         0.0600 
    151 H151       -1.6291  -23.8582  -39.7411 H         1 UNK         0.0600 
    152 H152       -2.2317  -22.4583  -38.8687 H         1 UNK         0.0600 
    153 H153       -0.5578  -22.4987  -39.4240 H         1 UNK         0.0600 
    154 H154       -1.5173  -20.3066  -40.0703 H         1 UNK         0.3000 
    155 H155       -2.0436  -17.8304  -42.5406 H         1 UNK         0.0600 
    156 H156       -3.0585  -16.5907  -40.6481 H         1 UNK         0.0600 
    157 H157       -3.3263  -18.0954  -39.7669 H         1 UNK         0.0600 
    158 H158       -4.1920  -17.7812  -41.2664 H         1 UNK         0.0600 
    159 H159       -0.8667  -17.7267  -39.9487 H         1 UNK         0.3000 
    160 H160        1.3754  -17.6069  -39.7131 H         1 UNK         0.0600 
    161 H161        2.0819  -20.5110  -40.4644 H         1 UNK         0.0600 
    162 H162        0.9061  -20.0649  -39.2331 H         1 UNK         0.0600 
    163 H163        2.5960  -19.6665  -39.0082 H         1 UNK         0.0600 
    164 H164        2.6178  -18.0002  -42.2450 H         1 UNK         0.3000 
    165 H165        5.8200  -16.7003  -41.1283 H         1 UNK         0.0600 
    166 H166        4.7586  -18.7778  -43.1173 H         1 UNK         0.0600 
    167 H167        6.2892  -17.9172  -43.2556 H         1 UNK         0.0600 
    168 H168        6.0128  -19.0173  -41.9142 H         1 UNK         0.0600 
    169 H169        3.9435  -16.3839  -43.3891 H         1 UNK         0.3000 
    170 H170        3.0899  -13.0769  -42.5483 H         1 UNK         0.0600 
    171 H171        5.2756  -12.5149  -43.5642 H         1 UNK         0.0600 
    172 H172        5.1034  -13.8094  -44.7405 H         1 UNK         0.0600 
    173 H173        4.0112  -12.4247  -44.7810 H         1 UNK         0.0600 
    174 H174        2.7882  -14.7258  -44.9103 H         1 UNK         0.3000 
    175 H175        0.1262  -16.6774  -43.7803 H         1 UNK         0.0600 
    176 H176       -1.2602  -14.6932  -44.1481 H         1 UNK         0.0600 
    177 H177       -0.2516  -14.1666  -45.4858 H         1 UNK         0.0600 
    178 H178       -1.2207  -15.6315  -45.6316 H         1 UNK         0.0600 
    179 H179        1.1122  -16.1520  -46.4072 H         1 UNK         0.3000 
    180 H180        4.0354  -18.1369  -46.2687 H         1 UNK         0.0600 
    181 H181        1.3421  -19.1217  -47.3261 H         1 UNK         0.0600 
    182 H182        2.3887  -20.0039  -46.2220 H         1 UNK         0.0600 
    183 H183        2.9236  -19.6785  -47.8654 H         1 UNK         0.0600 
    184 H184        2.3822  -17.1755  -48.4313 H         1 UNK         0.3000 
    185 H185        3.5821  -13.8492  -48.4439 H         1 UNK         0.0600 
    186 H186        4.6215  -14.3158  -50.6477 H         1 UNK         0.0600 
    187 H187        5.6482  -14.9249  -49.3600 H         1 UNK         0.0600 
    188 H188        4.6625  -16.0441  -50.2938 H         1 UNK         0.0600 
    189 H189        2.3016  -15.3230  -50.4990 H         1 UNK         0.3000 
    190 H190       -2.9030  -21.2808  -44.3796 H         1 UNK         0.3000 
    191 H191       -4.9259  -22.0940  -46.1907 H         1 UNK         0.0600 
    192 H192       -5.9661  -23.0744  -44.1428 H         1 UNK         0.0600 
    193 H193       -5.3695  -21.4488  -43.8436 H         1 UNK         0.0600 
    194 H194       -4.4632  -22.8420  -43.2569 H         1 UNK         0.0600 
    195 H195       -2.3665  -24.0250  -44.5407 H         1 UNK         0.3000 
    196 H196       -3.4610  -26.5152  -45.7087 H         1 UNK         0.0600 
    197 H197       -2.0144  -27.6258  -44.0772 H         1 UNK         0.0600 
    198 H198       -2.9907  -26.4053  -43.2748 H         1 UNK         0.0600 
    199 H199       -1.2874  -26.0990  -43.6011 H         1 UNK         0.0600 
    200 H200       -0.1917  -24.9525  -45.4388 H         1 UNK         0.3000 
    201 H201        0.9758  -26.9979  -47.1061 H         1 UNK         0.0600 
    202 H202        2.1974  -25.9806  -45.1897 H         1 UNK         0.0600 
    203 H203        2.2488  -24.4314  -46.0280 H         1 UNK         0.0600 
    204 H204        3.0838  -25.8204  -46.6970 H         1 UNK         0.0600 
    205 H205        0.3442  -23.4865  -47.5588 H         1 UNK         0.3000 
    206 H206        1.0083  -23.5933  -50.4228 H         1 UNK         0.0600 
    207 H207        1.3676  -21.5340  -48.9761 H         1 UNK         0.0600 
    208 H208        0.4207  -21.2395  -50.4248 H         1 UNK         0.0600 
    209 H209       -0.3831  -21.3586  -48.8751 H         1 UNK         0.0600 
    210 H210       -1.6759  -24.3810  -48.4927 H         1 UNK         0.3000 
    211 H211       -3.7283  -25.1328  -48.8121 H         1 UNK         0.0600 
    212 H212       -2.9257  -25.5674  -51.7288 H         1 UNK         0.0600 
    213 H213       -4.2089  -26.3945  -50.8565 H         1 UNK         0.0600 
    214 H214       -2.5361  -26.6545  -50.3953 H         1 UNK         0.0600 
    215 H215       -3.2348  -22.2226  -49.3025 H         1 UNK         0.3000 
    216 H216       -4.0937  -20.3200  -49.9093 H         1 UNK         0.0600 
    217 H217       -6.7575  -21.7959  -50.2406 H         1 UNK         0.0600 
    218 H218       -6.1407  -21.0783  -48.7529 H         1 UNK         0.0600 
    219 H219       -6.5584  -20.0557  -50.1194 H         1 UNK         0.0600 
    220 H220       -5.0547  -22.8171  -52.2239 H         1 UNK         0.3000 
    221 H221       -5.7243  -21.2990  -54.4460 H         1 UNK         0.0600 
    222 H222       -4.4351  -24.0776  -54.3195 H         1 UNK         0.0600 
    223 H223       -6.1596  -23.7252  -54.2194 H         1 UNK         0.0600 
    224 H224       -5.2870  -23.4199  -55.7132 H         1 UNK         0.0600 
    225 H225       -2.4487  -22.0326  -53.3183 H         1 UNK         0.3000 
    226 H226       -1.0260  -21.4016  -55.7023 H         1 UNK         0.0600 
    227 H227       -0.1843  -21.2604  -52.7640 H         1 UNK         0.0600 
    228 H228        0.0081  -22.6381  -53.8428 H         1 UNK         0.0600 
    229 H229        0.9204  -21.1644  -54.1298 H         1 UNK         0.0600 
    230 H230       -2.6955  -19.2972  -53.4728 H         1 UNK         0.3000 
    231 H231       -1.2547  -16.8604  -54.2374 H         1 UNK         0.0600 
    232 H232       -2.9039  -15.7716  -52.7735 H         1 UNK         0.0600 
    233 H233       -2.2831  -17.1946  -51.9454 H         1 UNK         0.0600 
    234 H234       -3.8665  -17.2363  -52.6986 H         1 UNK         0.0600 
    235 H235       -3.4266  -18.8434  -55.8462 H         1 UNK         0.3000 
    236 H236       -4.6577  -18.7405  -57.6451 H         1 UNK         0.0600 
    237 H237       -2.7656  -17.4132  -58.6154 H         1 UNK         0.0600 
    238 H238       -4.3123  -17.0127  -59.3426 H         1 UNK         0.0600 
    239 H239       -3.5924  -15.9200  -58.1710 H         1 UNK         0.0600 
    240 H240       -5.8276  -18.0378  -55.1382 H         1 UNK         0.3000 
    241 H241       -7.8400  -16.0109  -55.5625 H         1 UNK         0.0600 
    242 H242       -7.7595  -19.2181  -56.8485 H         1 UNK         0.3800 
    243 H243       -9.4797  -19.3598  -57.0946 H         1 UNK         0.3800 
    244 H244       -8.7767  -16.7903  -53.3850 H         1 UNK         0.0800 
    245 H245       -7.6737  -18.1460  -53.3897 H         1 UNK         0.0800 
    246 H246       -6.1424  -17.9467  -51.4926 H         1 UNK         0.0800 
    247 H247       -7.3806  -16.9094  -50.8199 H         1 UNK         0.0800 
@<TRIPOS>BOND
     1    1    2 1    
     2    1  127 1    
     3    1  128 1    
     4    1  129 1    
     5    2    3 2    
     6    2    4 am   BACKBONE|DICT|INTERRES
     7    4    5 1    
     8    4  130 1    
     9    5    6 1    
    10    5   65 1    
    11    5  131 1    
    12    6    7 1    
    13    6  132 1    
    14    6  133 1    
    15    7    8 1    
    16    8    9 1    
    17    8  134 1    
    18    8  135 1    
    19    9   10 ar   
    20    9   14 ar   
    21   10   11 ar   
    22   10  136 1    
    23   11   12 ar   
    24   11  126 1    
    25   12   13 ar   
    26   12  137 1    
    27   13   14 ar   
    28   13   15 1    
    29   14  138 1    
    30   15   16 1    
    31   15  139 1    
    32   15  140 1    
    33   16   17 1    
    34   17   18 1    
    35   17  141 1    
    36   17  142 1    
    37   18   19 1    
    38   18   67 1    
    39   18  143 1    
    40   19   20 am   BACKBONE|DICT|INTERRES
    41   19  144 1    
    42   20   21 2    
    43   20   22 1    
    44   22   23 1    
    45   22   24 1    
    46   22  145 1    
    47   23  146 1    
    48   23  147 1    
    49   23  148 1    
    50   24   25 am   BACKBONE|DICT|INTERRES
    51   24  149 1    
    52   25   26 2    
    53   25   27 1    
    54   27   28 1    
    55   27   29 1    
    56   27  150 1    
    57   28  151 1    
    58   28  152 1    
    59   28  153 1    
    60   29   30 am   BACKBONE|DICT|INTERRES
    61   29  154 1    
    62   30   31 2    
    63   30   32 1    
    64   32   33 1    
    65   32   34 1    
    66   32  155 1    
    67   33  156 1    
    68   33  157 1    
    69   33  158 1    
    70   34   35 am   BACKBONE|DICT|INTERRES
    71   34  159 1    
    72   35   36 2    
    73   35   37 1    
    74   37   38 1    
    75   37   39 1    
    76   37  160 1    
    77   38  161 1    
    78   38  162 1    
    79   38  163 1    
    80   39   40 am   BACKBONE|DICT|INTERRES
    81   39  164 1    
    82   40   41 2    
    83   40   42 1    
    84   42   43 1    
    85   42   44 1    
    86   42  165 1    
    87   43  166 1    
    88   43  167 1    
    89   43  168 1    
    90   44   45 am   BACKBONE|DICT|INTERRES
    91   44  169 1    
    92   45   46 2    
    93   45   47 1    
    94   47   48 1    
    95   47   49 1    
    96   47  170 1    
    97   48  171 1    
    98   48  172 1    
    99   48  173 1    
   100   49   50 am   BACKBONE|DICT|INTERRES
   101   49  174 1    
   102   50   51 2    
   103   50   52 1    
   104   52   53 1    
   105   52   54 1    
   106   52  175 1    
   107   53  176 1    
   108   53  177 1    
   109   53  178 1    
   110   54   55 am   BACKBONE|DICT|INTERRES
   111   54  179 1    
   112   55   56 2    
   113   55   57 1    
   114   57   58 1    
   115   57   59 1    
   116   57  180 1    
   117   58  181 1    
   118   58  182 1    
   119   58  183 1    
   120   59   60 am   BACKBONE|DICT|INTERRES
   121   59  184 1    
   122   60   61 2    
   123   60   62 1    
   124   62   63 1    
   125   62   64 1    
   126   62  185 1    
   127   63  186 1    
   128   63  187 1    
   129   63  188 1    
   130   64   65 am   BACKBONE|DICT|INTERRES
   131   64  189 1    
   132   65   66 2    
   133   67   68 2    
   134   67   69 am   BACKBONE|DICT|INTERRES
   135   69   70 1    
   136   69  190 1    
   137   70   71 1    
   138   70   72 1    
   139   70  191 1    
   140   71  192 1    
   141   71  193 1    
   142   71  194 1    
   143   72   73 2    
   144   72   74 am   BACKBONE|DICT|INTERRES
   145   74   75 1    
   146   74  195 1    
   147   75   76 1    
   148   75   77 1    
   149   75  196 1    
   150   76  197 1    
   151   76  198 1    
   152   76  199 1    
   153   77   78 2    
   154   77   79 am   BACKBONE|DICT|INTERRES
   155   79   80 1    
   156   79  200 1    
   157   80   81 1    
   158   80   82 1    
   159   80  201 1    
   160   81  202 1    
   161   81  203 1    
   162   81  204 1    
   163   82   83 2    
   164   82   84 am   BACKBONE|DICT|INTERRES
   165   84   85 1    
   166   84  205 1    
   167   85   86 1    
   168   85   87 1    
   169   85  206 1    
   170   86  207 1    
   171   86  208 1    
   172   86  209 1    
   173   87   88 2    
   174   87   89 am   BACKBONE|DICT|INTERRES
   175   89   90 1    
   176   89  210 1    
   177   90   91 1    
   178   90   92 1    
   179   90  211 1    
   180   91  212 1    
   181   91  213 1    
   182   91  214 1    
   183   92   93 2    
   184   92   94 am   BACKBONE|DICT|INTERRES
   185   94   95 1    
   186   94  215 1    
   187   95   96 1    
   188   95   97 1    
   189   95  216 1    
   190   96  217 1    
   191   96  218 1    
   192   96  219 1    
   193   97   98 2    
   194   97   99 am   BACKBONE|DICT|INTERRES
   195   99  100 1    
   196   99  220 1    
   197  100  101 1    
   198  100  102 1    
   199  100  221 1    
   200  101  222 1    
   201  101  223 1    
   202  101  224 1    
   203  102  103 2    
   204  102  104 am   BACKBONE|DICT|INTERRES
   205  104  105 1    
   206  104  225 1    
   207  105  106 1    
   208  105  107 1    
   209  105  226 1    
   210  106  227 1    
   211  106  228 1    
   212  106  229 1    
   213  107  108 2    
   214  107  109 am   BACKBONE|DICT|INTERRES
   215  109  110 1    
   216  109  230 1    
   217  110  111 1    
   218  110  112 1    
   219  110  231 1    
   220  111  232 1    
   221  111  233 1    
   222  111  234 1    
   223  112  113 2    
   224  112  114 am   BACKBONE|DICT|INTERRES
   225  114  115 1    
   226  114  235 1    
   227  115  116 1    
   228  115  117 1    
   229  115  236 1    
   230  116  237 1    
   231  116  238 1    
   232  116  239 1    
   233  117  118 2    
   234  117  119 am   BACKBONE|DICT|INTERRES
   235  119  120 1    
   236  119  240 1    
   237  120  121 1    
   238  120  124 1    
   239  120  241 1    
   240  121  122 am   BACKBONE|DICT|INTERRES
   241  121  123 2    
   242  122  242 1    
   243  122  243 1    
   244  124  125 1    
   245  124  244 1    
   246  124  245 1    
   247  125  126 1    
   248  126  246 1    
   249  126  247 1    
@<TRIPOS>SUBSTRUCTURE
     1 UNK         1 GROUP             0       ****    0 ROOT    
