@<TRIPOS>MOLECULE
3R540
247   249    1
SMALL
USER_CHARGES


@<TRIPOS>ATOM
      1 CA         -0.3791  -13.2430  -51.1677 C.3       0 UNK        -0.1800 
      2 C          -0.0463  -13.3306  -49.6848 C.2       0 UNK         0.5000 
      3 O           1.1207  -13.4924  -49.3283 O.2       0 UNK        -0.5000 
      4 N          -1.0710  -13.2450  -48.8270 N.am      1 UNK        -0.5000 
      5 CA         -0.9699  -13.2999  -47.3663 C.3       1 UNK         0.1400 
      6 C6         -2.3681  -13.4488  -46.7082 C.3       23 UNK        -0.0398 
      7 S7         -2.8530  -15.1886  -46.4450 S.3       23 UNK        -0.2404 
      8 C8         -3.7375  -15.6408  -47.9835 C.3       23 UNK        -0.0205 
      9 C9         -2.8674  -16.1357  -49.1434 C.ar      23 UNK        -0.0193 
     10 C10        -3.4568  -16.2890  -50.4034 C.ar      23 UNK        -0.1150 
     11 C11        -2.7069  -16.7037  -51.5100 C.ar      23 UNK        -0.0193 
     12 C12        -1.3402  -16.9548  -51.3458 C.ar      23 UNK        -0.1150 
     13 C13        -0.7360  -16.8211  -50.0949 C.ar      23 UNK        -0.0193 
     14 C14        -1.5074  -16.4351  -48.9974 C.ar      23 UNK        -0.1150 
     15 C15         0.7633  -17.0272  -49.9480 C.3       23 UNK        -0.0205 
     16 S16         1.1938  -18.7613  -49.6228 S.3       23 UNK        -0.2404 
     17 C17         0.8314  -18.9005  -47.8405 C.3       23 UNK        -0.0398 
     18 CA          0.0383  -20.1806  -47.5007 C.3       11 UNK         0.1400 
     19 N           0.2564  -20.5939  -46.1150 N.am      11 UNK        -0.5000 
     20 C          -0.0298  -21.8117  -45.6389 C.2       10 UNK         0.5000 
     21 O          -0.4835  -22.7243  -46.3298 O.2       10 UNK        -0.5000 
     22 CA          0.1889  -22.0308  -44.1310 C.3       10 UNK         0.1400 
     23 CB          1.6700  -22.2994  -43.8261 C.3       10 UNK        -0.1800 
     24 N          -0.2838  -20.9009  -43.3289 N.am      10 UNK        -0.5000 
     25 C          -1.5675  -20.5222  -43.2525 C.2       9 UNK         0.5000 
     26 O          -2.4877  -21.1229  -43.8075 O.2       9 UNK        -0.5000 
     27 CA         -1.8757  -19.2402  -42.4578 C.3       9 UNK         0.1400 
     28 CB         -1.9445  -19.5416  -40.9535 C.3       9 UNK        -0.1800 
     29 N          -0.9208  -18.1571  -42.7061 N.am      9 UNK        -0.5000 
     30 C          -0.7150  -17.5824  -43.9007 C.2       8 UNK         0.5000 
     31 O          -1.3079  -17.9105  -44.9242 O.2       8 UNK        -0.5000 
     32 CA          0.3843  -16.5102  -43.9913 C.3       8 UNK         0.1400 
     33 CB         -0.0812  -15.1780  -43.3847 C.3       8 UNK        -0.1800 
     34 N           1.6264  -16.9417  -43.3551 N.am      8 UNK        -0.5000 
     35 C           2.3399  -18.0145  -43.7260 C.2       7 UNK         0.5000 
     36 O           2.0583  -18.7308  -44.6873 O.2       7 UNK        -0.5000 
     37 CA          3.5344  -18.3824  -42.8318 C.3       7 UNK         0.1400 
     38 CB          4.7497  -17.4922  -43.1356 C.3       7 UNK        -0.1800 
     39 N           3.1924  -18.2919  -41.4119 N.am      7 UNK        -0.5000 
     40 C           2.3383  -19.1151  -40.7864 C.2       6 UNK         0.5000 
     41 O           1.7731  -20.0615  -41.3342 O.2       6 UNK        -0.5000 
     42 CA          2.0393  -18.8047  -39.3085 C.3       6 UNK         0.1400 
     43 CB          3.1363  -19.3800  -38.4003 C.3       6 UNK        -0.1800 
     44 N           1.8989  -17.3705  -39.0524 N.am      6 UNK        -0.5000 
     45 C           0.8974  -16.6142  -39.5236 C.2       5 UNK         0.5000 
     46 O          -0.0297  -17.0522  -40.2023 O.2       5 UNK        -0.5000 
     47 CA          0.9683  -15.1057  -39.2266 C.3       5 UNK         0.1400 
     48 CB          0.3554  -14.7956  -37.8529 C.3       5 UNK        -0.1800 
     49 N           2.3272  -14.5602  -39.2892 N.am      5 UNK        -0.5000 
     50 C           3.1035  -14.5772  -40.3803 C.2       4 UNK         0.5000 
     51 O           2.7841  -15.1195  -41.4402 O.2       4 UNK        -0.5000 
     52 CA          4.4901  -13.9246  -40.2452 C.3       4 UNK         0.1400 
     53 CB          5.5410  -14.9844  -39.8791 C.3       4 UNK        -0.1800 
     54 N           4.9040  -13.2511  -41.4761 N.am      4 UNK        -0.5000 
     55 C           4.3000  -12.1794  -42.0068 C.2       3 UNK         0.5000 
     56 O           3.3479  -11.6021  -41.4754 O.2       3 UNK        -0.5000 
     57 CA          4.8762  -11.6166  -43.3243 C.3       3 UNK         0.1400 
     58 CB          5.9000  -12.5409  -44.0252 C.3       3 UNK        -0.1800 
     59 N           3.8151  -11.1997  -44.2474 N.am      3 UNK        -0.5000 
     60 C           2.9223  -11.9897  -44.8593 C.2       2 UNK         0.5000 
     61 O           2.9014  -13.2203  -44.7615 O.2       2 UNK        -0.5000 
     62 CA          1.8888  -11.2800  -45.7511 C.3       2 UNK         0.1400 
     63 CB          2.5697  -10.5520  -46.9293 C.3       2 UNK        -0.1800 
     64 N           0.9560  -12.2809  -46.2558 N.am      2 UNK        -0.5000 
     65 C          -0.2207  -12.0555  -46.8465 C.2       1 UNK         0.5000 
     66 O          -0.7127  -10.9356  -47.0032 O.2       1 UNK        -0.5000 
     67 C          -1.4649  -20.0767  -47.8449 C.2       11 UNK         0.5000 
     68 O          -1.8624  -20.5017  -48.9274 O.2       11 UNK        -0.5000 
     69 N          -2.2890  -19.5945  -46.9031 N.am      12 UNK        -0.5000 
     70 CA         -3.7494  -19.5712  -47.0067 C.3       12 UNK         0.1400 
     71 CB         -4.3519  -18.8111  -45.8158 C.3       12 UNK        -0.1800 
     72 C          -4.3573  -20.9817  -47.0973 C.2       12 UNK         0.5000 
     73 O          -5.2633  -21.1983  -47.9009 O.2       12 UNK        -0.5000 
     74 N          -3.8285  -21.9261  -46.3057 N.am      13 UNK        -0.5000 
     75 CA         -4.1933  -23.3422  -46.3608 C.3       13 UNK         0.1400 
     76 CB         -3.5663  -24.0916  -45.1761 C.3       13 UNK        -0.1800 
     77 C          -3.8041  -23.9923  -47.7012 C.2       13 UNK         0.5000 
     78 O          -4.6031  -24.7390  -48.2662 O.2       13 UNK        -0.5000 
     79 N          -2.6124  -23.6571  -48.2162 N.am      14 UNK        -0.5000 
     80 CA         -2.1491  -24.0661  -49.5425 C.3       14 UNK         0.1400 
     81 CB         -0.6633  -23.7197  -49.7120 C.3       14 UNK        -0.1800 
     82 C          -2.9939  -23.4637  -50.6808 C.2       14 UNK         0.5000 
     83 O          -3.2489  -24.1538  -51.6657 O.2       14 UNK        -0.5000 
     84 N          -3.4401  -22.2104  -50.5294 N.am      15 UNK        -0.5000 
     85 CA         -4.3578  -21.5399  -51.4507 C.3       15 UNK         0.1400 
     86 CB         -4.4090  -20.0369  -51.1433 C.3       15 UNK        -0.1800 
     87 C          -5.7634  -22.1654  -51.4391 C.2       15 UNK         0.5000 
     88 O          -6.3387  -22.3699  -52.5081 O.2       15 UNK        -0.5000 
     89 N          -6.2708  -22.5169  -50.2497 N.am      16 UNK        -0.5000 
     90 CA         -7.5367  -23.2334  -50.0671 C.3       16 UNK         0.1400 
     91 CB         -7.8895  -23.2833  -48.5730 C.3       16 UNK        -0.1800 
     92 C          -7.5156  -24.6503  -50.6752 C.2       16 UNK         0.5000 
     93 O          -8.5189  -25.0864  -51.2404 O.2       16 UNK        -0.5000 
     94 N          -6.3607  -25.3234  -50.5853 N.am      17 UNK        -0.5000 
     95 CA         -6.0877  -26.6194  -51.2108 C.3       17 UNK         0.1400 
     96 CB         -4.8935  -27.2655  -50.4897 C.3       17 UNK        -0.1800 
     97 C          -5.8083  -26.5295  -52.7273 C.2       17 UNK         0.5000 
     98 O          -5.7366  -27.5696  -53.3824 O.2       17 UNK        -0.5000 
     99 N          -5.6215  -25.3061  -53.2470 N.am      18 UNK        -0.5000 
    100 CA        -5.2273  -24.9477  -54.6158 C.3       18 UNK         0.1400 
    101 CB        -6.2735  -25.4184  -55.6460 C.3       18 UNK        -0.1800 
    102 C         -3.7896  -25.3738  -54.9897 C.2       18 UNK         0.5000 
    103 O         -3.4268  -25.3378  -56.1661 O.2       18 UNK        -0.5000 
    104 N         -2.9749  -25.7176  -53.9845 N.am      19 UNK        -0.5000 
    105 CA        -1.5624  -26.0745  -54.1091 C.3       19 UNK         0.1400 
    106 CB        -1.1126  -26.7826  -52.8220 C.3       19 UNK        -0.1800 
    107 C         -0.6756  -24.8486  -54.3933 C.2       19 UNK         0.5000 
    108 O          0.3372  -24.9780  -55.0806 O.2       19 UNK        -0.5000 
    109 N         -1.0936  -23.6756  -53.8954 N.am      20 UNK        -0.5000 
    110 CA        -0.4571  -22.3797  -54.1554 C.3       20 UNK         0.1400 
    111 CB        -0.7280  -21.4387  -52.9687 C.3       20 UNK        -0.1800 
    112 C         -0.9166  -21.7361  -55.4828 C.2       20 UNK         0.5000 
    113 O         -0.5454  -20.5947  -55.7546 O.2       20 UNK        -0.5000 
    114 N         -1.7465  -22.4460  -56.2646 N.am      21 UNK        -0.5000 
    115 CA        -2.3785  -22.0725  -57.5399 C.3       21 UNK         0.1400 
    116 CB        -1.3377  -21.6760  -58.6044 C.3       21 UNK        -0.1800 
    117 C         -3.4876  -21.0089  -57.4113 C.2       21 UNK         0.5000 
    118 O         -4.4943  -21.1043  -58.1134 O.2       21 UNK        -0.5000 
    119 N         -3.3165  -20.0492  -56.4961 N.am      22 UNK        -0.5000 
    120 CA        -4.3216  -19.0515  -56.0932 C.3       22 UNK         0.1400 
    121 C         -5.4556  -19.6018  -55.1743 C.2       22 UNK         0.5000 
    122 N         -5.4297  -20.8724  -54.7935 N.am      22 UNK        -0.7600 
    123 O         -6.3683  -18.8667  -54.8077 O.2       22 UNK        -0.5000 
    124 C124       -3.6463  -17.7875  -55.5022 C.3       23 UNK        -0.0398 
    125 S125       -2.6936  -18.0960  -53.9712 S.3       23 UNK        -0.2404 
    126 C126       -3.3827  -16.8058  -52.8770 C.3       23 UNK        -0.0205 
    127 H127        0.0224  -14.1098  -51.6928 H         1 UNK         0.0600 
    128 H128       -1.4554  -13.2150  -51.3400 H         1 UNK         0.0600 
    129 H129        0.0619  -12.3450  -51.6001 H         1 UNK         0.0600 
    130 H130       -2.0011  -13.1063  -49.1925 H         1 UNK         0.3000 
    131 H131       -0.3697  -14.1754  -47.1086 H         1 UNK         0.0600 
    132 H132       -3.1378  -12.9221  -47.2742 H         1 UNK         0.0800 
    133 H133       -2.3806  -12.9940  -45.7156 H         1 UNK         0.0800 
    134 H134       -4.4472  -16.4318  -47.7405 H         1 UNK         0.0800 
    135 H135       -4.3349  -14.7894  -48.3119 H         1 UNK         0.0800 
    136 H136       -4.5077  -16.0674  -50.5267 H         1 UNK         0.1150 
    137 H137       -0.7348  -17.2407  -52.1938 H         1 UNK         0.1150 
    138 H138       -1.0266  -16.3269  -48.0386 H         1 UNK         0.1150 
    139 H139        1.2640  -16.7101  -50.8640 H         1 UNK         0.0800 
    140 H140        1.1625  -16.3910  -49.1563 H         1 UNK         0.0800 
    141 H141        0.3279  -18.0140  -47.4567 H         1 UNK         0.0800 
    142 H142        1.8007  -18.9232  -47.3411 H         1 UNK         0.0800 
    143 H143        0.4446  -20.9849  -48.1181 H         1 UNK         0.0600 
    144 H144        0.6563  -19.9011  -45.4891 H         1 UNK         0.3000 
    145 H145       -0.3834  -22.9135  -43.8379 H         1 UNK         0.0600 
    146 H146        1.8170  -22.5405  -42.7732 H         1 UNK         0.0600 
    147 H147        2.0424  -23.1429  -44.4085 H         1 UNK         0.0600 
    148 H148        2.2935  -21.4360  -44.0603 H         1 UNK         0.0600 
    149 H149        0.4166  -20.3856  -42.8052 H         1 UNK         0.3000 
    150 H150       -2.8588  -18.8869  -42.7748 H         1 UNK         0.0600 
    151 H151       -2.6507  -20.3469  -40.7471 H         1 UNK         0.0600 
    152 H152       -2.2760  -18.6682  -40.3920 H         1 UNK         0.0600 
    153 H153       -0.9742  -19.8450  -40.5594 H         1 UNK         0.0600 
    154 H154       -0.4145  -17.8084  -41.8962 H         1 UNK         0.3000 
    155 H155        0.5975  -16.3416  -45.0490 H         1 UNK         0.0600 
    156 H156       -0.3022  -15.2740  -42.3219 H         1 UNK         0.0600 
    157 H157       -0.9852  -14.8197  -43.8782 H         1 UNK         0.0600 
    158 H158        0.6805  -14.4063  -43.4977 H         1 UNK         0.0600 
    159 H159        1.9618  -16.3777  -42.5777 H         1 UNK         0.3000 
    160 H160        3.8094  -19.4168  -43.0493 H         1 UNK         0.0600 
    161 H161        5.6081  -17.7744  -42.5261 H         1 UNK         0.0600 
    162 H162        4.5397  -16.4380  -42.9533 H         1 UNK         0.0600 
    163 H163        5.0475  -17.5879  -44.1805 H         1 UNK         0.0600 
    164 H164        3.5630  -17.5023  -40.9054 H         1 UNK         0.3000 
    165 H165        1.0952  -19.2899  -39.0513 H         1 UNK         0.0600 
    166 H166        2.8930  -19.2343  -37.3477 H         1 UNK         0.0600 
    167 H167        3.2517  -20.4529  -38.5605 H         1 UNK         0.0600 
    168 H168        4.1041  -18.9138  -38.5894 H         1 UNK         0.0600 
    169 H169        2.6210  -16.9280  -38.5038 H         1 UNK         0.3000 
    170 H170        0.3738  -14.5944  -39.9865 H         1 UNK         0.0600 
    171 H171       -0.6649  -15.1758  -37.7862 H         1 UNK         0.0600 
    172 H172        0.9284  -15.2494  -37.0432 H         1 UNK         0.0600 
    173 H173        0.3122  -13.7212  -37.6734 H         1 UNK         0.0600 
    174 H174        2.6677  -14.1087  -38.4525 H         1 UNK         0.3000 
    175 H175        4.4529  -13.1786  -39.4486 H         1 UNK         0.0600 
    176 H176        5.6362  -15.7438  -40.6561 H         1 UNK         0.0600 
    177 H177        6.5219  -14.5323  -39.7309 H         1 UNK         0.0600 
    178 H178        5.2775  -15.4948  -38.9518 H         1 UNK         0.0600 
    179 H179        5.6596  -13.6788  -41.9901 H         1 UNK         0.3000 
    180 H180        5.4050  -10.7034  -43.0479 H         1 UNK         0.0600 
    181 H181        5.4831  -13.5233  -44.2502 H         1 UNK         0.0600 
    182 H182        6.7860  -12.6897  -43.4072 H         1 UNK         0.0600 
    183 H183        6.2398  -12.1041  -44.9643 H         1 UNK         0.0600 
    184 H184        3.7271  -10.2009  -44.3704 H         1 UNK         0.3000 
    185 H185        1.3424  -10.5623  -45.1362 H         1 UNK         0.0600 
    186 H186        3.2734   -9.7961  -46.5799 H         1 UNK         0.0600 
    187 H187        3.1215  -11.2487  -47.5617 H         1 UNK         0.0600 
    188 H188        1.8418  -10.0392  -47.5580 H         1 UNK         0.0600 
    189 H189        1.2923  -13.2285  -46.1299 H         1 UNK         0.3000 
    190 H190       -1.8894  -19.1836  -46.0613 H         1 UNK         0.3000 
    191 H191       -4.0046  -19.0324  -47.9213 H         1 UNK         0.0600 
    192 H192       -4.1681  -19.3248  -44.8728 H         1 UNK         0.0600 
    193 H193       -5.4317  -18.7075  -45.9274 H         1 UNK         0.0600 
    194 H194       -3.9363  -17.8089  -45.7308 H         1 UNK         0.0600 
    195 H195       -3.1287  -21.6570  -45.6208 H         1 UNK         0.3000 
    196 H196       -5.2787  -23.4095  -46.2636 H         1 UNK         0.0600 
    197 H197       -2.4777  -24.0538  -45.2012 H         1 UNK         0.0600 
    198 H198       -3.8583  -25.1424  -45.1820 H         1 UNK         0.0600 
    199 H199       -3.8924  -23.6680  -44.2260 H         1 UNK         0.0600 
    200 H200       -1.9882  -23.0739  -47.6686 H         1 UNK         0.3000 
    201 H201       -2.2455  -25.1518  -49.6047 H         1 UNK         0.0600 
    202 H202       -0.0581  -24.1919  -48.9381 H         1 UNK         0.0600 
    203 H203       -0.4895  -22.6456  -49.6615 H         1 UNK         0.0600 
    204 H204       -0.2892  -24.0671  -50.6759 H         1 UNK         0.0600 
    205 H205       -3.0971  -21.6621  -49.7445 H         1 UNK         0.3000 
    206 H206       -3.9626  -21.6593  -52.4602 H         1 UNK         0.0600 
    207 H207       -3.4133  -19.5946  -51.1853 H         1 UNK         0.0600 
    208 H208       -5.0283  -19.5118  -51.8716 H         1 UNK         0.0600 
    209 H209       -4.8210  -19.8359  -50.1553 H         1 UNK         0.0600 
    210 H210       -5.7654  -22.2553  -49.4070 H         1 UNK         0.3000 
    211 H211       -8.3156  -22.6657  -50.5801 H         1 UNK         0.0600 
    212 H212       -7.1414  -23.8307  -47.9997 H         1 UNK         0.0600 
    213 H213       -8.8495  -23.7761  -48.4150 H         1 UNK         0.0600 
    214 H214       -7.9646  -22.2805  -48.1521 H         1 UNK         0.0600 
    215 H215       -5.6114  -24.9223  -50.0302 H         1 UNK         0.3000 
    216 H216       -6.9589  -27.2633  -51.0751 H         1 UNK         0.0600 
    217 H217       -4.6844  -28.2596  -50.8868 H         1 UNK         0.0600 
    218 H218       -5.0899  -27.3773  -49.4231 H         1 UNK         0.0600 
    219 H219       -3.9870  -26.6703  -50.6020 H         1 UNK         0.0600 
    220 H220       -5.7054  -24.5207  -52.6141 H         1 UNK         0.3000 
    221 H221       -5.2222  -23.8579  -54.6387 H         1 UNK         0.0600 
    222 H222       -6.2824  -26.5034  -55.7512 H         1 UNK         0.0600 
    223 H223       -7.2763  -25.0988  -55.3625 H         1 UNK         0.0600 
    224 H224       -6.0675  -24.9987  -56.6313 H         1 UNK         0.0600 
    225 H225       -3.3229  -25.5925  -53.0401 H         1 UNK         0.3000 
    226 H226       -1.4530  -26.7707  -54.9433 H         1 UNK         0.0600 
    227 H227       -1.7030  -27.6809  -52.6405 H         1 UNK         0.0600 
    228 H228       -0.0675  -27.0877  -52.8886 H         1 UNK         0.0600 
    229 H229       -1.2116  -26.1361  -51.9495 H         1 UNK         0.0600 
    230 H230       -1.9280  -23.6730  -53.3210 H         1 UNK         0.3000 
    231 H231        0.6230  -22.5232  -54.2257 H         1 UNK         0.0600 
    232 H232       -0.4210  -21.8864  -52.0246 H         1 UNK         0.0600 
    233 H233       -1.7818  -21.1768  -52.8925 H         1 UNK         0.0600 
    234 H234       -0.1738  -20.5050  -53.0732 H         1 UNK         0.0600 
    235 H235       -1.9886  -23.3723  -55.9405 H         1 UNK         0.3000 
    236 H236       -2.8673  -22.9825  -57.8920 H         1 UNK         0.0600 
    237 H237       -1.8124  -21.5423  -59.5771 H         1 UNK         0.0600 
    238 H238       -0.8358  -20.7397  -58.3597 H         1 UNK         0.0600 
    239 H239       -0.5759  -22.4472  -58.7177 H         1 UNK         0.0600 
    240 H240       -2.4360  -20.0260  -55.9917 H         1 UNK         0.3000 
    241 H241       -4.8312  -18.7316  -57.0039 H         1 UNK         0.0600 
    242 H242       -6.1319  -21.2374  -54.1610 H         1 UNK         0.3800 
    243 H243       -4.6910  -21.4691  -55.1192 H         1 UNK         0.3800 
    244 H244       -2.9625  -17.3636  -56.2386 H         1 UNK         0.0800 
    245 H245       -4.3947  -17.0135  -55.3247 H         1 UNK         0.0800 
    246 H246       -3.2960  -15.8374  -53.3712 H         1 UNK         0.0800 
    247 H247       -4.4489  -17.0017  -52.7509 H         1 UNK         0.0800 
@<TRIPOS>BOND
     1    1    2 1    
     2    1  127 1    
     3    1  128 1    
     4    1  129 1    
     5    2    3 2    
     6    2    4 am   BACKBONE|DICT|INTERRES
     7    4    5 1    
     8    4  130 1    
     9    5    6 1    
    10    5   65 1    
    11    5  131 1    
    12    6    7 1    
    13    6  132 1    
    14    6  133 1    
    15    7    8 1    
    16    8    9 1    
    17    8  134 1    
    18    8  135 1    
    19    9   10 ar   
    20    9   14 ar   
    21   10   11 ar   
    22   10  136 1    
    23   11   12 ar   
    24   11  126 1    
    25   12   13 ar   
    26   12  137 1    
    27   13   14 ar   
    28   13   15 1    
    29   14  138 1    
    30   15   16 1    
    31   15  139 1    
    32   15  140 1    
    33   16   17 1    
    34   17   18 1    
    35   17  141 1    
    36   17  142 1    
    37   18   19 1    
    38   18   67 1    
    39   18  143 1    
    40   19   20 am   BACKBONE|DICT|INTERRES
    41   19  144 1    
    42   20   21 2    
    43   20   22 1    
    44   22   23 1    
    45   22   24 1    
    46   22  145 1    
    47   23  146 1    
    48   23  147 1    
    49   23  148 1    
    50   24   25 am   BACKBONE|DICT|INTERRES
    51   24  149 1    
    52   25   26 2    
    53   25   27 1    
    54   27   28 1    
    55   27   29 1    
    56   27  150 1    
    57   28  151 1    
    58   28  152 1    
    59   28  153 1    
    60   29   30 am   BACKBONE|DICT|INTERRES
    61   29  154 1    
    62   30   31 2    
    63   30   32 1    
    64   32   33 1    
    65   32   34 1    
    66   32  155 1    
    67   33  156 1    
    68   33  157 1    
    69   33  158 1    
    70   34   35 am   BACKBONE|DICT|INTERRES
    71   34  159 1    
    72   35   36 2    
    73   35   37 1    
    74   37   38 1    
    75   37   39 1    
    76   37  160 1    
    77   38  161 1    
    78   38  162 1    
    79   38  163 1    
    80   39   40 am   BACKBONE|DICT|INTERRES
    81   39  164 1    
    82   40   41 2    
    83   40   42 1    
    84   42   43 1    
    85   42   44 1    
    86   42  165 1    
    87   43  166 1    
    88   43  167 1    
    89   43  168 1    
    90   44   45 am   BACKBONE|DICT|INTERRES
    91   44  169 1    
    92   45   46 2    
    93   45   47 1    
    94   47   48 1    
    95   47   49 1    
    96   47  170 1    
    97   48  171 1    
    98   48  172 1    
    99   48  173 1    
   100   49   50 am   BACKBONE|DICT|INTERRES
   101   49  174 1    
   102   50   51 2    
   103   50   52 1    
   104   52   53 1    
   105   52   54 1    
   106   52  175 1    
   107   53  176 1    
   108   53  177 1    
   109   53  178 1    
   110   54   55 am   BACKBONE|DICT|INTERRES
   111   54  179 1    
   112   55   56 2    
   113   55   57 1    
   114   57   58 1    
   115   57   59 1    
   116   57  180 1    
   117   58  181 1    
   118   58  182 1    
   119   58  183 1    
   120   59   60 am   BACKBONE|DICT|INTERRES
   121   59  184 1    
   122   60   61 2    
   123   60   62 1    
   124   62   63 1    
   125   62   64 1    
   126   62  185 1    
   127   63  186 1    
   128   63  187 1    
   129   63  188 1    
   130   64   65 am   BACKBONE|DICT|INTERRES
   131   64  189 1    
   132   65   66 2    
   133   67   68 2    
   134   67   69 am   BACKBONE|DICT|INTERRES
   135   69   70 1    
   136   69  190 1    
   137   70   71 1    
   138   70   72 1    
   139   70  191 1    
   140   71  192 1    
   141   71  193 1    
   142   71  194 1    
   143   72   73 2    
   144   72   74 am   BACKBONE|DICT|INTERRES
   145   74   75 1    
   146   74  195 1    
   147   75   76 1    
   148   75   77 1    
   149   75  196 1    
   150   76  197 1    
   151   76  198 1    
   152   76  199 1    
   153   77   78 2    
   154   77   79 am   BACKBONE|DICT|INTERRES
   155   79   80 1    
   156   79  200 1    
   157   80   81 1    
   158   80   82 1    
   159   80  201 1    
   160   81  202 1    
   161   81  203 1    
   162   81  204 1    
   163   82   83 2    
   164   82   84 am   BACKBONE|DICT|INTERRES
   165   84   85 1    
   166   84  205 1    
   167   85   86 1    
   168   85   87 1    
   169   85  206 1    
   170   86  207 1    
   171   86  208 1    
   172   86  209 1    
   173   87   88 2    
   174   87   89 am   BACKBONE|DICT|INTERRES
   175   89   90 1    
   176   89  210 1    
   177   90   91 1    
   178   90   92 1    
   179   90  211 1    
   180   91  212 1    
   181   91  213 1    
   182   91  214 1    
   183   92   93 2    
   184   92   94 am   BACKBONE|DICT|INTERRES
   185   94   95 1    
   186   94  215 1    
   187   95   96 1    
   188   95   97 1    
   189   95  216 1    
   190   96  217 1    
   191   96  218 1    
   192   96  219 1    
   193   97   98 2    
   194   97   99 am   BACKBONE|DICT|INTERRES
   195   99  100 1    
   196   99  220 1    
   197  100  101 1    
   198  100  102 1    
   199  100  221 1    
   200  101  222 1    
   201  101  223 1    
   202  101  224 1    
   203  102  103 2    
   204  102  104 am   BACKBONE|DICT|INTERRES
   205  104  105 1    
   206  104  225 1    
   207  105  106 1    
   208  105  107 1    
   209  105  226 1    
   210  106  227 1    
   211  106  228 1    
   212  106  229 1    
   213  107  108 2    
   214  107  109 am   BACKBONE|DICT|INTERRES
   215  109  110 1    
   216  109  230 1    
   217  110  111 1    
   218  110  112 1    
   219  110  231 1    
   220  111  232 1    
   221  111  233 1    
   222  111  234 1    
   223  112  113 2    
   224  112  114 am   BACKBONE|DICT|INTERRES
   225  114  115 1    
   226  114  235 1    
   227  115  116 1    
   228  115  117 1    
   229  115  236 1    
   230  116  237 1    
   231  116  238 1    
   232  116  239 1    
   233  117  118 2    
   234  117  119 am   BACKBONE|DICT|INTERRES
   235  119  120 1    
   236  119  240 1    
   237  120  121 1    
   238  120  124 1    
   239  120  241 1    
   240  121  122 am   BACKBONE|DICT|INTERRES
   241  121  123 2    
   242  122  242 1    
   243  122  243 1    
   244  124  125 1    
   245  124  244 1    
   246  124  245 1    
   247  125  126 1    
   248  126  246 1    
   249  126  247 1    
@<TRIPOS>SUBSTRUCTURE
     1 UNK         1 GROUP             0       ****    0 ROOT    
