@<TRIPOS>MOLECULE
3R540
247   249    1
SMALL
USER_CHARGES


@<TRIPOS>ATOM
      1 CA         -6.3286  -12.5554  -46.8738 C.3       0 UNK        -0.1800 
      2 C          -4.9042  -13.0096  -47.1566 C.2       0 UNK         0.5000 
      3 O          -3.9567  -12.3534  -46.7269 O.2       0 UNK        -0.5000 
      4 N          -4.7483  -14.1381  -47.8630 N.am      1 UNK        -0.5000 
      5 CA         -3.4621  -14.7338  -48.2583 C.3       1 UNK         0.1400 
      6 C6         -3.6855  -15.9766  -49.1579 C.3       23 UNK        -0.0398 
      7 S7         -2.2784  -16.3245  -50.2614 S.3       23 UNK        -0.2404 
      8 C8         -1.5429  -17.7734  -49.4362 C.3       23 UNK        -0.0205 
      9 C9         -0.1670  -18.1377  -49.9778 C.ar      23 UNK        -0.0193 
     10 C10         0.8178  -17.1589  -50.1286 C.ar      23 UNK        -0.1150 
     11 C11         2.0990  -17.4898  -50.5759 C.ar      23 UNK        -0.0193 
     12 C12         2.4037  -18.8296  -50.8279 C.ar      23 UNK        -0.1150 
     13 C13         1.4379  -19.8302  -50.6699 C.ar      23 UNK        -0.0193 
     14 C14         0.1444  -19.4681  -50.2691 C.ar      23 UNK        -0.1150 
     15 C15         1.8344  -21.2819  -50.9496 C.3       23 UNK        -0.0205 
     16 S16         0.8632  -22.5608  -50.0825 S.3       23 UNK        -0.2404 
     17 C17         1.1035  -22.1062  -48.3304 C.3       23 UNK        -0.0398 
     18 CA          0.1987  -22.9025  -47.3617 C.3       11 UNK         0.1400 
     19 N           0.5235  -22.6072  -45.9665 N.am      11 UNK        -0.5000 
     20 C           0.0478  -23.2773  -44.9083 C.2       10 UNK         0.5000 
     21 O          -0.6862  -24.2621  -44.9932 O.2       10 UNK        -0.5000 
     22 CA          0.4124  -22.7170  -43.5214 C.3       10 UNK         0.1400 
     23 CB          1.8430  -23.1113  -43.1255 C.3       10 UNK        -0.1800 
     24 N           0.2668  -21.2620  -43.4549 N.am      10 UNK        -0.5000 
     25 C          -0.8945  -20.6122  -43.6157 C.2       9 UNK         0.5000 
     26 O          -1.9770  -21.1753  -43.7803 O.2       9 UNK        -0.5000 
     27 CA         -0.8313  -19.0760  -43.6468 C.3       9 UNK         0.1400 
     28 CB         -0.7299  -18.5007  -42.2267 C.3       9 UNK        -0.1800 
     29 N           0.2683  -18.5693  -44.4705 N.am      9 UNK        -0.5000 
     30 C           0.3808  -18.7656  -45.7925 C.2       8 UNK         0.5000 
     31 O          -0.4638  -19.3454  -46.4681 O.2       8 UNK        -0.5000 
     32 CA          1.6765  -18.2908  -46.4683 C.3       8 UNK         0.1400 
     33 CB          1.6037  -16.7974  -46.8091 C.3       8 UNK        -0.1800 
     34 N           2.8504  -18.5612  -45.6406 N.am      8 UNK        -0.5000 
     35 C           3.3124  -19.7894  -45.3648 C.2       7 UNK         0.5000 
     36 O           2.8298  -20.8221  -45.8289 O.2       7 UNK        -0.5000 
     37 CA          4.4777  -19.8774  -44.3624 C.3       7 UNK         0.1400 
     38 CB          5.8217  -19.6701  -45.0759 C.3       7 UNK        -0.1800 
     39 N           4.3495  -18.9046  -43.2759 N.am      7 UNK        -0.5000 
     40 C           3.3886  -18.9341  -42.3406 C.2       6 UNK         0.5000 
     41 O           2.5503  -19.8311  -42.2543 O.2       6 UNK        -0.5000 
     42 CA          3.3215  -17.7273  -41.3824 C.3       6 UNK         0.1400 
     43 CB          4.2350  -17.9485  -40.1680 C.3       6 UNK        -0.1800 
     44 N           3.6783  -16.4650  -42.0406 N.am      6 UNK        -0.5000 
     45 C           2.9685  -15.9125  -43.0331 C.2       5 UNK         0.5000 
     46 O           1.9040  -16.3777  -43.4447 O.2       5 UNK        -0.5000 
     47 CA          3.5955  -14.7016  -43.7382 C.3       5 UNK         0.1400 
     48 CB          4.7466  -15.1823  -44.6505 C.3       5 UNK        -0.1800 
     49 N           2.5683  -14.0150  -44.5218 N.am      5 UNK        -0.5000 
     50 C           2.7285  -12.8739  -45.2048 C.2       4 UNK         0.5000 
     51 O           3.7720  -12.2192  -45.2084 O.2       4 UNK        -0.5000 
     52 CA          1.5253  -12.3636  -46.0213 C.3       4 UNK         0.1400 
     53 CB          1.5038  -12.9989  -47.4203 C.3       4 UNK        -0.1800 
     54 N           0.2326  -12.5783  -45.3697 N.am      4 UNK        -0.5000 
     55 C          -0.1730  -11.9300  -44.2665 C.2       3 UNK         0.5000 
     56 O           0.5271  -11.1159  -43.6626 O.2       3 UNK        -0.5000 
     57 CA         -1.6022  -12.2043  -43.7554 C.3       3 UNK         0.1400 
     58 CB         -2.5165  -11.0038  -44.0448 C.3       3 UNK        -0.1800 
     59 N          -2.2000  -13.4125  -44.3267 N.am      3 UNK        -0.5000 
     60 C          -1.8705  -14.6555  -43.9475 C.2       2 UNK         0.5000 
     61 O          -1.0625  -14.8884  -43.0499 O.2       2 UNK        -0.5000 
     62 CA         -2.5366  -15.8390  -44.6788 C.3       2 UNK         0.1400 
     63 CB         -3.5716  -16.5227  -43.7714 C.3       2 UNK        -0.1800 
     64 N          -3.1867  -15.4923  -45.9419 N.am      2 UNK        -0.5000 
     65 C          -2.5594  -15.0681  -47.0475 C.2       1 UNK         0.5000 
     66 O          -1.3429  -14.8929  -47.1124 O.2       1 UNK        -0.5000 
     67 C          -1.3082  -22.7134  -47.6492 C.2       11 UNK         0.5000 
     68 O          -1.9195  -23.6062  -48.2337 O.2       11 UNK        -0.5000 
     69 N          -1.8947  -21.5956  -47.1956 N.am      12 UNK        -0.5000 
     70 CA         -3.3225  -21.2920  -47.3109 C.3       12 UNK         0.1400 
     71 CB         -3.6134  -19.8912  -46.7476 C.3       12 UNK        -0.1800 
     72 C          -4.2160  -22.3428  -46.6318 C.2       12 UNK         0.5000 
     73 O          -5.2075  -22.7644  -47.2260 O.2       12 UNK        -0.5000 
     74 N          -3.8262  -22.7763  -45.4253 N.am      13 UNK        -0.5000 
     75 CA         -4.4915  -23.8405  -44.6748 C.3       13 UNK         0.1400 
     76 CB         -3.9053  -23.9114  -43.2566 C.3       13 UNK        -0.1800 
     77 C          -4.4056  -25.2106  -45.3737 C.2       13 UNK         0.5000 
     78 O          -5.4003  -25.9360  -45.4019 O.2       13 UNK        -0.5000 
     79 N          -3.2322  -25.5321  -45.9365 N.am      14 UNK        -0.5000 
     80 CA         -2.9801  -26.7680  -46.6784 C.3       14 UNK         0.1400 
     81 CB         -1.4673  -26.9459  -46.8803 C.3       14 UNK        -0.1800 
     82 C          -3.7219  -26.8186  -48.0272 C.2       14 UNK         0.5000 
     83 O          -4.3138  -27.8474  -48.3563 O.2       14 UNK        -0.5000 
     84 N          -3.6797  -25.7110  -48.7799 N.am      15 UNK        -0.5000 
     85 CA         -4.3272  -25.5636  -50.0843 C.3       15 UNK         0.1400 
     86 CB         -3.7295  -24.3456  -50.8084 C.3       15 UNK        -0.1800 
     87 C          -5.8570  -25.4238  -49.9906 C.2       15 UNK         0.5000 
     88 O          -6.5507  -25.7616  -50.9504 O.2       15 UNK        -0.5000 
     89 N          -6.3485  -24.8899  -48.8631 N.am      16 UNK        -0.5000 
     90 CA         -7.7379  -24.5784  -48.5024 C.3       16 UNK         0.1400 
     91 CB         -8.6355  -25.8295  -48.5425 C.3       16 UNK        -0.1800 
     92 C          -8.3438  -23.4165  -49.3137 C.2       16 UNK         0.5000 
     93 O          -8.9311  -22.5076  -48.7263 O.2       16 UNK        -0.5000 
     94 N          -8.1701  -23.4473  -50.6406 N.am      17 UNK        -0.5000 
     95 CA         -8.5536  -22.3824  -51.5687 C.3       17 UNK         0.1400 
     96 CB         -8.6115  -22.9624  -52.9905 C.3       17 UNK        -0.1800 
     97 C          -7.5921  -21.1785  -51.5231 C.2       17 UNK         0.5000 
     98 O          -7.9946  -20.0735  -51.8868 O.2       17 UNK        -0.5000 
     99 N          -6.3432  -21.4232  -51.0917 N.am      18 UNK        -0.5000 
    100 CA        -5.2425  -20.4610  -50.9431 C.3       18 UNK         0.1400 
    101 CB        -5.5658  -19.4382  -49.8363 C.3       18 UNK        -0.1800 
    102 C         -4.8050  -19.7946  -52.2673 C.2       18 UNK         0.5000 
    103 O         -4.2864  -18.6788  -52.2554 O.2       18 UNK        -0.5000 
    104 N         -5.0108  -20.5001  -53.3872 N.am      19 UNK        -0.5000 
    105 CA        -4.6741  -20.0464  -54.7390 C.3       19 UNK         0.1400 
    106 CB        -5.6697  -20.6862  -55.7212 C.3       19 UNK        -0.1800 
    107 C         -3.2228  -20.3765  -55.1464 C.2       19 UNK         0.5000 
    108 O         -2.7789  -19.9331  -56.2066 O.2       19 UNK        -0.5000 
    109 N         -2.5248  -21.1756  -54.3288 N.am      20 UNK        -0.5000 
    110 CA        -1.1521  -21.6243  -54.5492 C.3       20 UNK         0.1400 
    111 CB        -0.8249  -22.7138  -53.5165 C.3       20 UNK        -0.1800 
    112 C         -0.1293  -20.4760  -54.4606 C.2       20 UNK         0.5000 
    113 O         -0.2581  -19.6094  -53.5940 O.2       20 UNK        -0.5000 
    114 N          0.8851  -20.5317  -55.3364 N.am      21 UNK        -0.5000 
    115 CA         2.0423  -19.6350  -55.4340 C.3       21 UNK         0.1400 
    116 CB         3.0973  -20.0170  -54.3760 C.3       21 UNK        -0.1800 
    117 C          1.6578  -18.1395  -55.4237 C.2       21 UNK         0.5000 
    118 O          1.0798  -17.6676  -56.4046 O.2       21 UNK        -0.5000 
    119 N          1.9920  -17.4270  -54.3391 N.am      22 UNK        -0.5000 
    120 CA         1.6872  -16.0019  -54.1425 C.3       22 UNK         0.1400 
    121 C          0.2315  -15.7089  -53.6646 C.2       22 UNK         0.5000 
    122 N         -0.5845  -16.7076  -53.3492 N.am      22 UNK        -0.7600 
    123 O         -0.1753  -14.5510  -53.6150 O.2       22 UNK        -0.5000 
    124 C124        2.8232  -15.2888  -53.3416 C.3       23 UNK        -0.0398 
    125 S125        2.5645  -14.9119  -51.5685 S.3       23 UNK        -0.2404 
    126 C126        3.1693  -16.4142  -50.7274 C.3       23 UNK        -0.0205 
    127 H127       -6.4960  -11.5644  -47.2954 H         1 UNK         0.0600 
    128 H128       -6.4980  -12.5023  -45.7983 H         1 UNK         0.0600 
    129 H129       -7.0648  -13.2363  -47.3015 H         1 UNK         0.0600 
    130 H130       -5.5731  -14.6261  -48.1824 H         1 UNK         0.3000 
    131 H131       -2.9426  -13.9720  -48.8438 H         1 UNK         0.0600 
    132 H132       -4.5416  -15.8124  -49.8139 H         1 UNK         0.0800 
    133 H133       -3.9368  -16.8572  -48.5647 H         1 UNK         0.0800 
    134 H134       -2.2270  -18.6164  -49.5389 H         1 UNK         0.0800 
    135 H135       -1.4434  -17.5729  -48.3692 H         1 UNK         0.0800 
    136 H136        0.5839  -16.1308  -49.8909 H         1 UNK         0.1150 
    137 H137        3.4031  -19.0978  -51.1407 H         1 UNK         0.1150 
    138 H138       -0.6182  -20.2241  -50.1543 H         1 UNK         0.1150 
    139 H139        1.7369  -21.4652  -52.0192 H         1 UNK         0.0800 
    140 H140        2.8865  -21.4319  -50.7027 H         1 UNK         0.0800 
    141 H141        0.9399  -21.0375  -48.1967 H         1 UNK         0.0800 
    142 H142        2.1516  -22.2822  -48.0849 H         1 UNK         0.0800 
    143 H143        0.4178  -23.9616  -47.5131 H         1 UNK         0.0600 
    144 H144        1.1602  -21.8320  -45.8074 H         1 UNK         0.3000 
    145 H145       -0.2750  -23.1548  -42.7947 H         1 UNK         0.0600 
    146 H146        2.0803  -22.7704  -42.1175 H         1 UNK         0.0600 
    147 H147        2.5826  -22.6854  -43.8037 H         1 UNK         0.0600 
    148 H148        1.9675  -24.1948  -43.1413 H         1 UNK         0.0600 
    149 H149        1.1071  -20.7236  -43.2666 H         1 UNK         0.3000 
    150 H150       -1.7643  -18.7277  -44.0897 H         1 UNK         0.0600 
    151 H151       -1.5998  -18.7813  -41.6318 H         1 UNK         0.0600 
    152 H152       -0.6818  -17.4125  -42.2418 H         1 UNK         0.0600 
    153 H153        0.1536  -18.8632  -41.7028 H         1 UNK         0.0600 
    154 H154        0.9779  -18.0164  -43.9996 H         1 UNK         0.3000 
    155 H155        1.7867  -18.8414  -47.4051 H         1 UNK         0.0600 
    156 H156        0.7443  -16.5908  -47.4452 H         1 UNK         0.0600 
    157 H157        2.4939  -16.4659  -47.3430 H         1 UNK         0.0600 
    158 H158        1.4876  -16.1782  -45.9235 H         1 UNK         0.0600 
    159 H159        3.2723  -17.7706  -45.1802 H         1 UNK         0.3000 
    160 H160        4.4703  -20.8792  -43.9276 H         1 UNK         0.0600 
    161 H161        5.8987  -18.6736  -45.5127 H         1 UNK         0.0600 
    162 H162        5.9500  -20.3931  -45.8826 H         1 UNK         0.0600 
    163 H163        6.6573  -19.8010  -44.3880 H         1 UNK         0.0600 
    164 H164        5.0091  -18.1414  -43.2655 H         1 UNK         0.3000 
    165 H165        2.2927  -17.6442  -41.0256 H         1 UNK         0.0600 
    166 H166        4.1376  -17.1355  -39.4484 H         1 UNK         0.0600 
    167 H167        3.9766  -18.8727  -39.6493 H         1 UNK         0.0600 
    168 H168        5.2842  -18.0171  -40.4583 H         1 UNK         0.0600 
    169 H169        4.5438  -16.0323  -41.7507 H         1 UNK         0.3000 
    170 H170        3.9789  -14.0163  -42.9800 H         1 UNK         0.0600 
    171 H171        4.3783  -15.8011  -45.4694 H         1 UNK         0.0600 
    172 H172        5.2918  -14.3467  -45.0880 H         1 UNK         0.0600 
    173 H173        5.4778  -15.7713  -44.0960 H         1 UNK         0.0600 
    174 H174        1.6686  -14.4804  -44.5223 H         1 UNK         0.3000 
    175 H175        1.6559  -11.2871  -46.1508 H         1 UNK         0.0600 
    176 H176        1.3255  -14.0723  -47.3736 H         1 UNK         0.0600 
    177 H177        0.7216  -12.5608  -48.0405 H         1 UNK         0.0600 
    178 H178        2.4524  -12.8462  -47.9367 H         1 UNK         0.0600 
    179 H179       -0.3967  -13.2372  -45.8115 H         1 UNK         0.3000 
    180 H180       -1.5442  -12.3259  -42.6716 H         1 UNK         0.0600 
    181 H181       -3.5345  -11.1869  -43.7005 H         1 UNK         0.0600 
    182 H182       -2.5566  -10.7764  -45.1104 H         1 UNK         0.0600 
    183 H183       -2.1569  -10.1090  -43.5352 H         1 UNK         0.0600 
    184 H184       -2.8527  -13.2782  -45.0903 H         1 UNK         0.3000 
    185 H185       -1.7429  -16.5513  -44.9061 H         1 UNK         0.0600 
    186 H186       -4.4108  -15.8614  -43.5523 H         1 UNK         0.0600 
    187 H187       -3.9676  -17.4268  -44.2346 H         1 UNK         0.0600 
    188 H188       -3.1300  -16.8143  -42.8179 H         1 UNK         0.0600 
    189 H189       -4.1932  -15.5671  -45.9644 H         1 UNK         0.3000 
    190 H190       -1.3185  -20.8733  -46.7658 H         1 UNK         0.3000 
    191 H191       -3.5678  -21.2897  -48.3735 H         1 UNK         0.0600 
    192 H192       -3.0725  -19.1218  -47.2956 H         1 UNK         0.0600 
    193 H193       -3.3297  -19.8121  -45.6986 H         1 UNK         0.0600 
    194 H194       -4.6750  -19.6517  -46.8153 H         1 UNK         0.0600 
    195 H195       -3.0195  -22.3420  -44.9857 H         1 UNK         0.3000 
    196 H196       -5.5480  -23.5776  -44.5911 H         1 UNK         0.0600 
    197 H197       -4.0383  -22.9671  -42.7285 H         1 UNK         0.0600 
    198 H198       -2.8386  -24.1368  -43.2718 H         1 UNK         0.0600 
    199 H199       -4.3976  -24.6864  -42.6679 H         1 UNK         0.0600 
    200 H200       -2.4481  -24.8963  -45.8315 H         1 UNK         0.3000 
    201 H201       -3.3374  -27.6030  -46.0722 H         1 UNK         0.0600 
    202 H202       -0.9458  -26.9933  -45.9241 H         1 UNK         0.0600 
    203 H203       -1.0368  -26.1246  -47.4539 H         1 UNK         0.0600 
    204 H204       -1.2502  -27.8708  -47.4160 H         1 UNK         0.0600 
    205 H205       -3.1197  -24.9212  -48.4603 H         1 UNK         0.3000 
    206 H206       -4.1121  -26.4538  -50.6789 H         1 UNK         0.0600 
    207 H207       -3.8866  -23.4277  -50.2413 H         1 UNK         0.0600 
    208 H208       -2.6556  -24.4635  -50.9558 H         1 UNK         0.0600 
    209 H209       -4.1793  -24.2104  -51.7929 H         1 UNK         0.0600 
    210 H210       -5.6723  -24.5590  -48.1834 H         1 UNK         0.3000 
    211 H211       -7.6955  -24.2443  -47.4644 H         1 UNK         0.0600 
    212 H212       -8.7598  -26.2152  -49.5544 H         1 UNK         0.0600 
    213 H213       -9.6306  -25.6036  -48.1576 H         1 UNK         0.0600 
    214 H214       -8.2220  -26.6284  -47.9268 H         1 UNK         0.0600 
    215 H215       -7.6901  -24.2557  -51.0279 H         1 UNK         0.3000 
    216 H216       -9.5500  -22.0247  -51.3010 H         1 UNK         0.0600 
    217 H217       -8.9076  -22.2005  -53.7129 H         1 UNK         0.0600 
    218 H218       -9.3396  -23.7712  -53.0559 H         1 UNK         0.0600 
    219 H219       -7.6443  -23.3562  -53.3055 H         1 UNK         0.0600 
    220 H220       -6.1392  -22.3696  -50.8078 H         1 UNK         0.3000 
    221 H221       -4.3807  -21.0395  -50.6103 H         1 UNK         0.0600 
    222 H222       -6.3459  -18.7414  -50.1440 H         1 UNK         0.0600 
    223 H223       -5.9010  -19.9356  -48.9263 H         1 UNK         0.0600 
    224 H224       -4.6842  -18.8517  -49.5822 H         1 UNK         0.0600 
    225 H225       -5.4530  -21.4040  -53.3114 H         1 UNK         0.3000 
    226 H226       -4.7905  -18.9621  -54.7966 H         1 UNK         0.0600 
    227 H227       -6.6970  -20.4237  -55.4673 H         1 UNK         0.0600 
    228 H228       -5.4911  -20.3424  -56.7409 H         1 UNK         0.0600 
    229 H229       -5.5915  -21.7741  -55.7229 H         1 UNK         0.0600 
    230 H230       -2.9573  -21.4593  -53.4642 H         1 UNK         0.3000 
    231 H231       -1.1005  -22.0664  -55.5464 H         1 UNK         0.0600 
    232 H232        0.1977  -23.0746  -53.6342 H         1 UNK         0.0600 
    233 H233       -1.4873  -23.5730  -53.6228 H         1 UNK         0.0600 
    234 H234       -0.9250  -22.3382  -52.4975 H         1 UNK         0.0600 
    235 H235        0.8693  -21.2723  -56.0231 H         1 UNK         0.3000 
    236 H236        2.4879  -19.8206  -56.4125 H         1 UNK         0.0600 
    237 H237        2.7193  -19.8864  -53.3658 H         1 UNK         0.0600 
    238 H238        3.3999  -21.0587  -54.4829 H         1 UNK         0.0600 
    239 H239        3.9971  -19.4088  -54.4774 H         1 UNK         0.0600 
    240 H240        2.3999  -17.9063  -53.5505 H         1 UNK         0.3000 
    241 H241        1.7216  -15.5531  -55.1375 H         1 UNK         0.0600 
    242 H242       -1.5094  -16.4994  -53.0101 H         1 UNK         0.3800 
    243 H243       -0.2810  -17.6768  -53.3921 H         1 UNK         0.3800 
    244 H244        2.9978  -14.3190  -53.8097 H         1 UNK         0.0800 
    245 H245        3.7707  -15.8165  -53.4586 H         1 UNK         0.0800 
    246 H246        4.0448  -16.7999  -51.2516 H         1 UNK         0.0800 
    247 H247        3.5085  -16.1347  -49.7294 H         1 UNK         0.0800 
@<TRIPOS>BOND
     1    1    2 1    
     2    1  127 1    
     3    1  128 1    
     4    1  129 1    
     5    2    3 2    
     6    2    4 am   BACKBONE|DICT|INTERRES
     7    4    5 1    
     8    4  130 1    
     9    5    6 1    
    10    5   65 1    
    11    5  131 1    
    12    6    7 1    
    13    6  132 1    
    14    6  133 1    
    15    7    8 1    
    16    8    9 1    
    17    8  134 1    
    18    8  135 1    
    19    9   10 ar   
    20    9   14 ar   
    21   10   11 ar   
    22   10  136 1    
    23   11   12 ar   
    24   11  126 1    
    25   12   13 ar   
    26   12  137 1    
    27   13   14 ar   
    28   13   15 1    
    29   14  138 1    
    30   15   16 1    
    31   15  139 1    
    32   15  140 1    
    33   16   17 1    
    34   17   18 1    
    35   17  141 1    
    36   17  142 1    
    37   18   19 1    
    38   18   67 1    
    39   18  143 1    
    40   19   20 am   BACKBONE|DICT|INTERRES
    41   19  144 1    
    42   20   21 2    
    43   20   22 1    
    44   22   23 1    
    45   22   24 1    
    46   22  145 1    
    47   23  146 1    
    48   23  147 1    
    49   23  148 1    
    50   24   25 am   BACKBONE|DICT|INTERRES
    51   24  149 1    
    52   25   26 2    
    53   25   27 1    
    54   27   28 1    
    55   27   29 1    
    56   27  150 1    
    57   28  151 1    
    58   28  152 1    
    59   28  153 1    
    60   29   30 am   BACKBONE|DICT|INTERRES
    61   29  154 1    
    62   30   31 2    
    63   30   32 1    
    64   32   33 1    
    65   32   34 1    
    66   32  155 1    
    67   33  156 1    
    68   33  157 1    
    69   33  158 1    
    70   34   35 am   BACKBONE|DICT|INTERRES
    71   34  159 1    
    72   35   36 2    
    73   35   37 1    
    74   37   38 1    
    75   37   39 1    
    76   37  160 1    
    77   38  161 1    
    78   38  162 1    
    79   38  163 1    
    80   39   40 am   BACKBONE|DICT|INTERRES
    81   39  164 1    
    82   40   41 2    
    83   40   42 1    
    84   42   43 1    
    85   42   44 1    
    86   42  165 1    
    87   43  166 1    
    88   43  167 1    
    89   43  168 1    
    90   44   45 am   BACKBONE|DICT|INTERRES
    91   44  169 1    
    92   45   46 2    
    93   45   47 1    
    94   47   48 1    
    95   47   49 1    
    96   47  170 1    
    97   48  171 1    
    98   48  172 1    
    99   48  173 1    
   100   49   50 am   BACKBONE|DICT|INTERRES
   101   49  174 1    
   102   50   51 2    
   103   50   52 1    
   104   52   53 1    
   105   52   54 1    
   106   52  175 1    
   107   53  176 1    
   108   53  177 1    
   109   53  178 1    
   110   54   55 am   BACKBONE|DICT|INTERRES
   111   54  179 1    
   112   55   56 2    
   113   55   57 1    
   114   57   58 1    
   115   57   59 1    
   116   57  180 1    
   117   58  181 1    
   118   58  182 1    
   119   58  183 1    
   120   59   60 am   BACKBONE|DICT|INTERRES
   121   59  184 1    
   122   60   61 2    
   123   60   62 1    
   124   62   63 1    
   125   62   64 1    
   126   62  185 1    
   127   63  186 1    
   128   63  187 1    
   129   63  188 1    
   130   64   65 am   BACKBONE|DICT|INTERRES
   131   64  189 1    
   132   65   66 2    
   133   67   68 2    
   134   67   69 am   BACKBONE|DICT|INTERRES
   135   69   70 1    
   136   69  190 1    
   137   70   71 1    
   138   70   72 1    
   139   70  191 1    
   140   71  192 1    
   141   71  193 1    
   142   71  194 1    
   143   72   73 2    
   144   72   74 am   BACKBONE|DICT|INTERRES
   145   74   75 1    
   146   74  195 1    
   147   75   76 1    
   148   75   77 1    
   149   75  196 1    
   150   76  197 1    
   151   76  198 1    
   152   76  199 1    
   153   77   78 2    
   154   77   79 am   BACKBONE|DICT|INTERRES
   155   79   80 1    
   156   79  200 1    
   157   80   81 1    
   158   80   82 1    
   159   80  201 1    
   160   81  202 1    
   161   81  203 1    
   162   81  204 1    
   163   82   83 2    
   164   82   84 am   BACKBONE|DICT|INTERRES
   165   84   85 1    
   166   84  205 1    
   167   85   86 1    
   168   85   87 1    
   169   85  206 1    
   170   86  207 1    
   171   86  208 1    
   172   86  209 1    
   173   87   88 2    
   174   87   89 am   BACKBONE|DICT|INTERRES
   175   89   90 1    
   176   89  210 1    
   177   90   91 1    
   178   90   92 1    
   179   90  211 1    
   180   91  212 1    
   181   91  213 1    
   182   91  214 1    
   183   92   93 2    
   184   92   94 am   BACKBONE|DICT|INTERRES
   185   94   95 1    
   186   94  215 1    
   187   95   96 1    
   188   95   97 1    
   189   95  216 1    
   190   96  217 1    
   191   96  218 1    
   192   96  219 1    
   193   97   98 2    
   194   97   99 am   BACKBONE|DICT|INTERRES
   195   99  100 1    
   196   99  220 1    
   197  100  101 1    
   198  100  102 1    
   199  100  221 1    
   200  101  222 1    
   201  101  223 1    
   202  101  224 1    
   203  102  103 2    
   204  102  104 am   BACKBONE|DICT|INTERRES
   205  104  105 1    
   206  104  225 1    
   207  105  106 1    
   208  105  107 1    
   209  105  226 1    
   210  106  227 1    
   211  106  228 1    
   212  106  229 1    
   213  107  108 2    
   214  107  109 am   BACKBONE|DICT|INTERRES
   215  109  110 1    
   216  109  230 1    
   217  110  111 1    
   218  110  112 1    
   219  110  231 1    
   220  111  232 1    
   221  111  233 1    
   222  111  234 1    
   223  112  113 2    
   224  112  114 am   BACKBONE|DICT|INTERRES
   225  114  115 1    
   226  114  235 1    
   227  115  116 1    
   228  115  117 1    
   229  115  236 1    
   230  116  237 1    
   231  116  238 1    
   232  116  239 1    
   233  117  118 2    
   234  117  119 am   BACKBONE|DICT|INTERRES
   235  119  120 1    
   236  119  240 1    
   237  120  121 1    
   238  120  124 1    
   239  120  241 1    
   240  121  122 am   BACKBONE|DICT|INTERRES
   241  121  123 2    
   242  122  242 1    
   243  122  243 1    
   244  124  125 1    
   245  124  244 1    
   246  124  245 1    
   247  125  126 1    
   248  126  246 1    
   249  126  247 1    
@<TRIPOS>SUBSTRUCTURE
     1 UNK         1 GROUP             0       ****    0 ROOT    
