@<TRIPOS>MOLECULE
3R540
247   249    1
SMALL
USER_CHARGES


@<TRIPOS>ATOM
      1 CA         -2.3018  -14.1824  -50.6477 C.3       0 UNK        -0.1800 
      2 C          -1.2439  -13.9437  -49.5820 C.2       0 UNK         0.5000 
      3 O          -1.3975  -14.4030  -48.4500 O.2       0 UNK        -0.5000 
      4 N          -0.1826  -13.2065  -49.9372 N.am      1 UNK        -0.5000 
      5 CA          0.9592  -12.7807  -49.1083 C.3       1 UNK         0.1400 
      6 C6          1.7807  -13.9452  -48.4958 C.3       23 UNK        -0.0398 
      7 S7          2.5952  -14.9729  -49.7644 S.3       23 UNK        -0.2404 
      8 C8          2.9084  -16.5094  -48.8290 C.3       23 UNK        -0.0205 
      9 C9          1.9651  -17.6543  -49.1897 C.ar      23 UNK        -0.0193 
     10 C10         0.5893  -17.4486  -49.3385 C.ar      23 UNK        -0.1150 
     11 C11        -0.2703  -18.5045  -49.6563 C.ar      23 UNK        -0.0193 
     12 C12         0.2610  -19.7946  -49.7740 C.ar      23 UNK        -0.1150 
     13 C13         1.6311  -20.0214  -49.6270 C.ar      23 UNK        -0.0193 
     14 C14         2.4783  -18.9447  -49.3492 C.ar      23 UNK        -0.1150 
     15 C15         2.1813  -21.4369  -49.7601 C.3       23 UNK        -0.0205 
     16 S16         3.1800  -21.9776  -48.3296 S.3       23 UNK        -0.2404 
     17 C17         2.1458  -21.5144  -46.8967 C.3       23 UNK        -0.0398 
     18 CA          1.2500  -22.6544  -46.3653 C.3       11 UNK         0.1400 
     19 N           0.8083  -22.3864  -44.9957 N.am      11 UNK        -0.5000 
     20 C           0.1604  -23.2592  -44.2126 C.2       10 UNK         0.5000 
     21 O          -0.0950  -24.4174  -44.5428 O.2       10 UNK        -0.5000 
     22 CA         -0.3217  -22.7323  -42.8490 C.3       10 UNK         0.1400 
     23 CB          0.8320  -22.7073  -41.8355 C.3       10 UNK        -0.1800 
     24 N          -0.9229  -21.4005  -42.9439 N.am      10 UNK        -0.5000 
     25 C          -2.0440  -21.1234  -43.6256 C.2       9 UNK         0.5000 
     26 O          -2.7180  -21.9762  -44.2034 O.2       9 UNK        -0.5000 
     27 CA         -2.4567  -19.6417  -43.7188 C.3       9 UNK         0.1400 
     28 CB         -3.1529  -19.1815  -42.4299 C.3       9 UNK        -0.1800 
     29 N          -1.3292  -18.7558  -44.0148 N.am      9 UNK        -0.5000 
     30 C          -0.5970  -18.8121  -45.1366 C.2       8 UNK         0.5000 
     31 O          -0.8121  -19.5971  -46.0556 O.2       8 UNK        -0.5000 
     32 CA          0.6159  -17.8753  -45.2254 C.3       8 UNK         0.1400 
     33 CB          0.1861  -16.4706  -45.6714 C.3       8 UNK        -0.1800 
     34 N           1.3494  -17.8175  -43.9591 N.am      8 UNK        -0.5000 
     35 C           2.0286  -18.8553  -43.4456 C.2       7 UNK         0.5000 
     36 O           2.1611  -19.9349  -44.0205 O.2       7 UNK        -0.5000 
     37 CA          2.6011  -18.6878  -42.0280 C.3       7 UNK         0.1400 
     38 CB          3.9856  -18.0252  -42.0597 C.3       7 UNK        -0.1800 
     39 N           1.6981  -17.9320  -41.1600 N.am      7 UNK        -0.5000 
     40 C           0.5406  -18.4253  -40.6947 C.2       6 UNK         0.5000 
     41 O           0.1487  -19.5685  -40.9275 O.2       6 UNK        -0.5000 
     42 CA         -0.3517  -17.4842  -39.8643 C.3       6 UNK         0.1400 
     43 CB         -0.0190  -17.6093  -38.3703 C.3       6 UNK        -0.1800 
     44 N          -0.2606  -16.0792  -40.2606 N.am      6 UNK        -0.5000 
     45 C          -0.5691  -15.5915  -41.4697 C.2       5 UNK         0.5000 
     46 O          -0.9661  -16.2908  -42.4029 O.2       5 UNK        -0.5000 
     47 CA         -0.3809  -14.0749  -41.6844 C.3       5 UNK         0.1400 
     48 CB         -0.2486  -13.2711  -40.3722 C.3       5 UNK        -0.1800 
     49 N           0.7421  -13.7486  -42.5689 N.am      5 UNK        -0.5000 
     50 C           2.0113  -14.1813  -42.4854 C.2       4 UNK         0.5000 
     51 O           2.3908  -15.0408  -41.6893 O.2       4 UNK        -0.5000 
     52 CA          3.0464  -13.5338  -43.4318 C.3       4 UNK         0.1400 
     53 CB          3.4529  -14.4834  -44.5693 C.3       4 UNK        -0.1800 
     54 N           2.5918  -12.2718  -44.0172 N.am      4 UNK        -0.5000 
     55 C           2.5043  -11.1069  -43.3618 C.2       3 UNK         0.5000 
     56 O           2.8762  -10.9445  -42.1993 O.2       3 UNK        -0.5000 
     57 CA          1.8718   -9.9312  -44.1311 C.3       3 UNK         0.1400 
     58 CB          2.9619   -9.0581  -44.7705 C.3       3 UNK        -0.1800 
     59 N           0.9229  -10.3425  -45.1710 N.am      3 UNK        -0.5000 
     60 C          -0.2404  -10.9728  -44.9671 C.2       2 UNK         0.5000 
     61 O          -0.6189  -11.3588  -43.8613 O.2       2 UNK        -0.5000 
     62 CA         -1.1223  -11.2374  -46.2014 C.3       2 UNK         0.1400 
     63 CB         -1.7058   -9.9286  -46.7673 C.3       2 UNK        -0.1800 
     64 N          -0.4789  -12.0333  -47.2532 N.am      2 UNK        -0.5000 
     65 C           0.5740  -11.7430  -48.0295 C.2       1 UNK         0.5000 
     66 O           1.2282  -10.7034  -47.9365 O.2       1 UNK        -0.5000 
     67 C           0.0567  -22.9405  -47.3005 C.2       11 UNK         0.5000 
     68 O           0.0969  -23.9195  -48.0437 O.2       11 UNK        -0.5000 
     69 N          -1.0027  -22.1231  -47.2125 N.am      12 UNK        -0.5000 
     70 CA         -2.2556  -22.2913  -47.9478 C.3       12 UNK         0.1400 
     71 CB         -3.1957  -21.1118  -47.6628 C.3       12 UNK        -0.1800 
     72 C          -2.9579  -23.6179  -47.6247 C.2       12 UNK         0.5000 
     73 O          -3.4121  -24.2930  -48.5469 O.2       12 UNK        -0.5000 
     74 N          -3.0033  -23.9856  -46.3370 N.am      13 UNK        -0.5000 
     75 CA         -3.5503  -25.2557  -45.8605 C.3       13 UNK         0.1400 
     76 CB         -3.6206  -25.2457  -44.3261 C.3       13 UNK        -0.1800 
     77 C          -2.7562  -26.4734  -46.3689 C.2       13 UNK         0.5000 
     78 O          -3.3651  -27.4616  -46.7796 O.2       13 UNK        -0.5000 
     79 N          -1.4197  -26.3696  -46.3635 N.am      14 UNK        -0.5000 
     80 CA         -0.5062  -27.3913  -46.8772 C.3       14 UNK         0.1400 
     81 CB          0.9289  -27.0619  -46.4380 C.3       14 UNK        -0.1800 
     82 C          -0.5879  -27.5518  -48.4074 C.2       14 UNK         0.5000 
     83 O          -0.5985  -28.6803  -48.9006 O.2       14 UNK        -0.5000 
     84 N          -0.6552  -26.4244  -49.1279 N.am      15 UNK        -0.5000 
     85 CA         -0.7553  -26.3682  -50.5875 C.3       15 UNK         0.1400 
     86 CB         -0.3838  -24.9504  -51.0562 C.3       15 UNK        -0.1800 
     87 C          -2.1465  -26.7488  -51.1295 C.2       15 UNK         0.5000 
     88 O          -2.2503  -27.0962  -52.3060 O.2       15 UNK        -0.5000 
     89 N          -3.1798  -26.6402  -50.2798 N.am      16 UNK        -0.5000 
     90 CA         -4.6104  -26.6741  -50.6078 C.3       16 UNK         0.1400 
     91 CB         -5.0367  -28.0535  -51.1527 C.3       16 UNK        -0.1800 
     92 C          -4.9872  -25.4931  -51.5293 C.2       16 UNK         0.5000 
     93 O          -5.6458  -25.6839  -52.5531 O.2       16 UNK        -0.5000 
     94 N          -4.5203  -24.3021  -51.1234 N.am      17 UNK        -0.5000 
     95 CA         -4.4556  -23.0251  -51.8369 C.3       17 UNK         0.1400 
     96 CB         -5.8357  -22.5590  -52.3357 C.3       17 UNK        -0.1800 
     97 C          -3.4065  -23.0665  -52.9657 C.2       17 UNK         0.5000 
     98 O          -3.4976  -23.8882  -53.8784 O.2       17 UNK        -0.5000 
     99 N          -2.4158  -22.1689  -52.8834 N.am      18 UNK        -0.5000 
    100 CA        -1.2892  -22.0799  -53.8204 C.3       18 UNK         0.1400 
    101 CB        -0.1678  -21.2642  -53.1574 C.3       18 UNK        -0.1800 
    102 C         -1.6564  -21.4863  -55.1983 C.2       18 UNK         0.5000 
    103 O         -0.8568  -21.5775  -56.1306 O.2       18 UNK        -0.5000 
    104 N         -2.8478  -20.8923  -55.3022 N.am      19 UNK        -0.5000 
    105 CA        -3.4398  -20.2830  -56.4872 C.3       19 UNK         0.1400 
    106 CB        -2.7709  -18.9233  -56.7719 C.3       19 UNK        -0.1800 
    107 C         -4.9496  -20.1408  -56.2278 C.2       19 UNK         0.5000 
    108 O         -5.4248  -20.5566  -55.1655 O.2       19 UNK        -0.5000 
    109 N         -5.6818  -19.5378  -57.1743 N.am      20 UNK        -0.5000 
    110 CA        -7.1033  -19.1995  -57.0469 C.3       20 UNK         0.1400 
    111 CB        -7.5900  -18.5537  -58.3536 C.3       20 UNK        -0.1800 
    112 C         -7.3462  -18.2693  -55.8417 C.2       20 UNK         0.5000 
    113 O         -6.8322  -17.1482  -55.8276 O.2       20 UNK        -0.5000 
    114 N         -8.0394  -18.7922  -54.8186 N.am      21 UNK        -0.5000 
    115 CA        -8.2477  -18.1909  -53.4910 C.3       21 UNK         0.1400 
    116 CB        -9.1698  -16.9582  -53.5938 C.3       21 UNK        -0.1800 
    117 C         -6.9299  -17.8856  -52.7367 C.2       21 UNK         0.5000 
    118 O         -6.8983  -17.0006  -51.8804 O.2       21 UNK        -0.5000 
    119 N         -5.8616  -18.6144  -53.0881 N.am      22 UNK        -0.5000 
    120 CA        -4.4673  -18.3839  -52.6858 C.3       22 UNK         0.1400 
    121 C         -3.8263  -17.0852  -53.2703 C.2       22 UNK         0.5000 
    122 N         -4.4246  -16.4292  -54.2589 N.am      22 UNK        -0.7600 
    123 O         -2.7463  -16.6800  -52.8552 O.2       22 UNK        -0.5000 
    124 C124       -4.2406  -18.5743  -51.1582 C.3       23 UNK        -0.0398 
    125 S125       -2.6846  -19.4590  -50.8055 S.3       23 UNK        -0.2404 
    126 C126       -1.7554  -18.2007  -49.8586 C.3       23 UNK        -0.0205 
    127 H127       -1.8535  -14.2646  -51.6381 H         1 UNK         0.0600 
    128 H128       -3.0171  -13.3602  -50.6579 H         1 UNK         0.0600 
    129 H129       -2.8487  -15.1033  -50.4473 H         1 UNK         0.0600 
    130 H130       -0.1511  -12.8580  -50.8852 H         1 UNK         0.3000 
    131 H131        1.6217  -12.2515  -49.7955 H         1 UNK         0.0600 
    132 H132        1.1481  -14.5738  -47.8700 H         1 UNK         0.0800 
    133 H133        2.5674  -13.5592  -47.8448 H         1 UNK         0.0800 
    134 H134        2.8478  -16.3228  -47.7562 H         1 UNK         0.0800 
    135 H135        3.9405  -16.8044  -49.0242 H         1 UNK         0.0800 
    136 H136        0.1836  -16.4558  -49.2170 H         1 UNK         0.1150 
    137 H137       -0.3864  -20.6320  -49.9842 H         1 UNK         0.1150 
    138 H138        3.5384  -19.1211  -49.2323 H         1 UNK         0.1150 
    139 H139        1.3719  -22.1537  -49.9063 H         1 UNK         0.0800 
    140 H140        2.7974  -21.4899  -50.6584 H         1 UNK         0.0800 
    141 H141        1.5636  -20.6138  -47.0903 H         1 UNK         0.0800 
    142 H142        2.8567  -21.2313  -46.1207 H         1 UNK         0.0800 
    143 H143        1.8538  -23.5635  -46.3233 H         1 UNK         0.0600 
    144 H144        1.0128  -21.4613  -44.6314 H         1 UNK         0.3000 
    145 H145       -1.0854  -23.4192  -42.4785 H         1 UNK         0.0600 
    146 H146        0.4797  -22.4154  -40.8460 H         1 UNK         0.0600 
    147 H147        1.6135  -22.0067  -42.1313 H         1 UNK         0.0600 
    148 H148        1.2905  -23.6923  -41.7404 H         1 UNK         0.0600 
    149 H149       -0.4539  -20.6522  -42.4421 H         1 UNK         0.3000 
    150 H150       -3.1704  -19.5481  -44.5398 H         1 UNK         0.0600 
    151 H151       -4.0442  -19.7793  -42.2358 H         1 UNK         0.0600 
    152 H152       -3.4670  -18.1399  -42.5000 H         1 UNK         0.0600 
    153 H153       -2.5006  -19.2775  -41.5626 H         1 UNK         0.0600 
    154 H154       -1.1100  -18.0403  -43.3285 H         1 UNK         0.3000 
    155 H155        1.2859  -18.2759  -45.9896 H         1 UNK         0.0600 
    156 H156       -0.4155  -15.9618  -44.9193 H         1 UNK         0.0600 
    157 H157       -0.4068  -16.5164  -46.5862 H         1 UNK         0.0600 
    158 H158        1.0516  -15.8523  -45.8865 H         1 UNK         0.0600 
    159 H159        1.2219  -16.9926  -43.3909 H         1 UNK         0.3000 
    160 H160        2.7244  -19.6864  -41.6031 H         1 UNK         0.0600 
    161 H161        3.9474  -17.0196  -42.4747 H         1 UNK         0.0600 
    162 H162        4.6794  -18.6044  -42.6703 H         1 UNK         0.0600 
    163 H163        4.4119  -17.9572  -41.0588 H         1 UNK         0.0600 
    164 H164        1.9325  -16.9600  -40.9867 H         1 UNK         0.3000 
    165 H165       -1.3864  -17.7994  -40.0093 H         1 UNK         0.0600 
    166 H166       -0.7038  -17.0179  -37.7621 H         1 UNK         0.0600 
    167 H167       -0.1022  -18.6447  -38.0372 H         1 UNK         0.0600 
    168 H168        0.9969  -17.2755  -38.1551 H         1 UNK         0.0600 
    169 H169        0.0873  -15.4369  -39.5639 H         1 UNK         0.3000 
    170 H170       -1.2827  -13.7290  -42.1917 H         1 UNK         0.0600 
    171 H171       -1.0880  -13.4629  -39.7023 H         1 UNK         0.0600 
    172 H172        0.6722  -13.5046  -39.8364 H         1 UNK         0.0600 
    173 H173       -0.2430  -12.2002  -40.5769 H         1 UNK         0.0600 
    174 H174        0.5340  -13.0291  -43.2503 H         1 UNK         0.3000 
    175 H175        3.9355  -13.3367  -42.8291 H         1 UNK         0.0600 
    176 H176        2.6914  -14.5293  -45.3442 H         1 UNK         0.0600 
    177 H177        4.3760  -14.1469  -45.0416 H         1 UNK         0.0600 
    178 H178        3.6262  -15.4980  -44.2109 H         1 UNK         0.0600 
    179 H179        2.2705  -12.2997  -44.9730 H         1 UNK         0.3000 
    180 H180        1.3269   -9.3235  -43.4058 H         1 UNK         0.0600 
    181 H181        2.5325   -8.1734  -45.2410 H         1 UNK         0.0600 
    182 H182        3.5195   -9.6056  -45.5315 H         1 UNK         0.0600 
    183 H183        3.6768   -8.7128  -44.0224 H         1 UNK         0.0600 
    184 H184        1.1718  -10.1320  -46.1341 H         1 UNK         0.3000 
    185 H185       -1.9638  -11.8404  -45.8564 H         1 UNK         0.0600 
    186 H186       -0.9314   -9.2641  -47.1512 H         1 UNK         0.0600 
    187 H187       -2.4050  -10.1300  -47.5789 H         1 UNK         0.0600 
    188 H188       -2.2512   -9.3815  -45.9973 H         1 UNK         0.0600 
    189 H189       -0.9266  -12.9279  -47.4448 H         1 UNK         0.3000 
    190 H190       -0.9418  -21.2975  -46.6186 H         1 UNK         0.3000 
    191 H191       -2.0148  -22.2880  -49.0126 H         1 UNK         0.0600 
    192 H192       -2.7127  -20.1618  -47.8822 H         1 UNK         0.0600 
    193 H193       -3.5114  -21.0862  -46.6201 H         1 UNK         0.0600 
    194 H194       -4.0941  -21.1710  -48.2784 H         1 UNK         0.0600 
    195 H195       -2.6520  -23.3445  -45.6316 H         1 UNK         0.3000 
    196 H196       -4.5690  -25.3420  -46.2443 H         1 UNK         0.0600 
    197 H197       -4.2473  -24.4294  -43.9665 H         1 UNK         0.0600 
    198 H198       -2.6340  -25.1308  -43.8769 H         1 UNK         0.0600 
    199 H199       -4.0478  -26.1753  -43.9484 H         1 UNK         0.0600 
    200 H200       -0.9958  -25.5368  -45.9663 H         1 UNK         0.3000 
    201 H201       -0.7845  -28.3469  -46.4281 H         1 UNK         0.0600 
    202 H202        1.0083  -27.0214  -45.3515 H         1 UNK         0.0600 
    203 H203        1.2617  -26.1012  -46.8320 H         1 UNK         0.0600 
    204 H204        1.6290  -27.8214  -46.7882 H         1 UNK         0.0600 
    205 H205       -0.5675  -25.5309  -48.6472 H         1 UNK         0.3000 
    206 H206       -0.0323  -27.0688  -51.0103 H         1 UNK         0.0600 
    207 H207       -1.0667  -24.2021  -50.6517 H         1 UNK         0.0600 
    208 H208        0.6265  -24.6834  -50.7456 H         1 UNK         0.0600 
    209 H209       -0.4204  -24.8732  -52.1435 H         1 UNK         0.0600 
    210 H210       -2.9676  -26.3043  -49.3485 H         1 UNK         0.3000 
    211 H211       -5.1418  -26.5149  -49.6683 H         1 UNK         0.0600 
    212 H212       -4.6025  -28.2612  -52.1308 H         1 UNK         0.0600 
    213 H213       -6.1204  -28.1076  -51.2615 H         1 UNK         0.0600 
    214 H214       -4.7375  -28.8532  -50.4753 H         1 UNK         0.0600 
    215 H215       -4.0316  -24.3046  -50.2291 H         1 UNK         0.3000 
    216 H216       -4.1244  -22.3009  -51.0908 H         1 UNK         0.0600 
    217 H217       -5.7901  -21.5255  -52.6776 H         1 UNK         0.0600 
    218 H218       -6.5805  -22.6044  -51.5412 H         1 UNK         0.0600 
    219 H219       -6.1947  -23.1608  -53.1710 H         1 UNK         0.0600 
    220 H220       -2.4118  -21.5015  -52.1235 H         1 UNK         0.3000 
    221 H221       -0.9116  -23.0891  -53.9977 H         1 UNK         0.0600 
    222 H222       -0.4873  -20.2454  -52.9340 H         1 UNK         0.0600 
    223 H223        0.1572  -21.7278  -52.2261 H         1 UNK         0.0600 
    224 H224        0.7066  -21.1982  -53.8059 H         1 UNK         0.0600 
    225 H225       -3.4858  -20.9459  -54.5190 H         1 UNK         0.3000 
    226 H226       -3.3033  -20.9507  -57.3398 H         1 UNK         0.0600 
    227 H227       -1.7000  -19.0346  -56.9409 H         1 UNK         0.0600 
    228 H228       -3.1841  -18.4522  -57.6640 H         1 UNK         0.0600 
    229 H229       -2.9040  -18.2300  -55.9417 H         1 UNK         0.0600 
    230 H230       -5.2205  -19.2051  -58.0081 H         1 UNK         0.3000 
    231 H231       -7.6584  -20.1282  -56.8992 H         1 UNK         0.0600 
    232 H232       -8.6479  -18.2958  -58.2900 H         1 UNK         0.0600 
    233 H233       -7.4720  -19.2333  -59.1978 H         1 UNK         0.0600 
    234 H234       -7.0421  -17.6381  -58.5803 H         1 UNK         0.0600 
    235 H235       -8.3815  -19.7385  -54.9164 H         1 UNK         0.3000 
    236 H236       -8.7665  -18.9421  -52.8939 H         1 UNK         0.0600 
    237 H237       -8.6872  -16.1340  -54.1199 H         1 UNK         0.0600 
    238 H238      -10.0924  -17.1989  -54.1218 H         1 UNK         0.0600 
    239 H239       -9.4501  -16.5943  -52.6047 H         1 UNK         0.0600 
    240 H240       -5.9813  -19.3183  -53.8108 H         1 UNK         0.3000 
    241 H241       -3.9316  -19.1831  -53.1971 H         1 UNK         0.0600 
    242 H242       -3.9857  -15.6007  -54.6263 H         1 UNK         0.3800 
    243 H243       -5.3063  -16.7402  -54.6540 H         1 UNK         0.3800 
    244 H244       -5.0391  -19.1809  -50.7289 H         1 UNK         0.0800 
    245 H245       -4.2806  -17.6214  -50.6277 H         1 UNK         0.0800 
    246 H246       -2.2243  -18.0592  -48.8843 H         1 UNK         0.0800 
    247 H247       -1.8405  -17.2511  -50.3866 H         1 UNK         0.0800 
@<TRIPOS>BOND
     1    1    2 1    
     2    1  127 1    
     3    1  128 1    
     4    1  129 1    
     5    2    3 2    
     6    2    4 am   BACKBONE|DICT|INTERRES
     7    4    5 1    
     8    4  130 1    
     9    5    6 1    
    10    5   65 1    
    11    5  131 1    
    12    6    7 1    
    13    6  132 1    
    14    6  133 1    
    15    7    8 1    
    16    8    9 1    
    17    8  134 1    
    18    8  135 1    
    19    9   10 ar   
    20    9   14 ar   
    21   10   11 ar   
    22   10  136 1    
    23   11   12 ar   
    24   11  126 1    
    25   12   13 ar   
    26   12  137 1    
    27   13   14 ar   
    28   13   15 1    
    29   14  138 1    
    30   15   16 1    
    31   15  139 1    
    32   15  140 1    
    33   16   17 1    
    34   17   18 1    
    35   17  141 1    
    36   17  142 1    
    37   18   19 1    
    38   18   67 1    
    39   18  143 1    
    40   19   20 am   BACKBONE|DICT|INTERRES
    41   19  144 1    
    42   20   21 2    
    43   20   22 1    
    44   22   23 1    
    45   22   24 1    
    46   22  145 1    
    47   23  146 1    
    48   23  147 1    
    49   23  148 1    
    50   24   25 am   BACKBONE|DICT|INTERRES
    51   24  149 1    
    52   25   26 2    
    53   25   27 1    
    54   27   28 1    
    55   27   29 1    
    56   27  150 1    
    57   28  151 1    
    58   28  152 1    
    59   28  153 1    
    60   29   30 am   BACKBONE|DICT|INTERRES
    61   29  154 1    
    62   30   31 2    
    63   30   32 1    
    64   32   33 1    
    65   32   34 1    
    66   32  155 1    
    67   33  156 1    
    68   33  157 1    
    69   33  158 1    
    70   34   35 am   BACKBONE|DICT|INTERRES
    71   34  159 1    
    72   35   36 2    
    73   35   37 1    
    74   37   38 1    
    75   37   39 1    
    76   37  160 1    
    77   38  161 1    
    78   38  162 1    
    79   38  163 1    
    80   39   40 am   BACKBONE|DICT|INTERRES
    81   39  164 1    
    82   40   41 2    
    83   40   42 1    
    84   42   43 1    
    85   42   44 1    
    86   42  165 1    
    87   43  166 1    
    88   43  167 1    
    89   43  168 1    
    90   44   45 am   BACKBONE|DICT|INTERRES
    91   44  169 1    
    92   45   46 2    
    93   45   47 1    
    94   47   48 1    
    95   47   49 1    
    96   47  170 1    
    97   48  171 1    
    98   48  172 1    
    99   48  173 1    
   100   49   50 am   BACKBONE|DICT|INTERRES
   101   49  174 1    
   102   50   51 2    
   103   50   52 1    
   104   52   53 1    
   105   52   54 1    
   106   52  175 1    
   107   53  176 1    
   108   53  177 1    
   109   53  178 1    
   110   54   55 am   BACKBONE|DICT|INTERRES
   111   54  179 1    
   112   55   56 2    
   113   55   57 1    
   114   57   58 1    
   115   57   59 1    
   116   57  180 1    
   117   58  181 1    
   118   58  182 1    
   119   58  183 1    
   120   59   60 am   BACKBONE|DICT|INTERRES
   121   59  184 1    
   122   60   61 2    
   123   60   62 1    
   124   62   63 1    
   125   62   64 1    
   126   62  185 1    
   127   63  186 1    
   128   63  187 1    
   129   63  188 1    
   130   64   65 am   BACKBONE|DICT|INTERRES
   131   64  189 1    
   132   65   66 2    
   133   67   68 2    
   134   67   69 am   BACKBONE|DICT|INTERRES
   135   69   70 1    
   136   69  190 1    
   137   70   71 1    
   138   70   72 1    
   139   70  191 1    
   140   71  192 1    
   141   71  193 1    
   142   71  194 1    
   143   72   73 2    
   144   72   74 am   BACKBONE|DICT|INTERRES
   145   74   75 1    
   146   74  195 1    
   147   75   76 1    
   148   75   77 1    
   149   75  196 1    
   150   76  197 1    
   151   76  198 1    
   152   76  199 1    
   153   77   78 2    
   154   77   79 am   BACKBONE|DICT|INTERRES
   155   79   80 1    
   156   79  200 1    
   157   80   81 1    
   158   80   82 1    
   159   80  201 1    
   160   81  202 1    
   161   81  203 1    
   162   81  204 1    
   163   82   83 2    
   164   82   84 am   BACKBONE|DICT|INTERRES
   165   84   85 1    
   166   84  205 1    
   167   85   86 1    
   168   85   87 1    
   169   85  206 1    
   170   86  207 1    
   171   86  208 1    
   172   86  209 1    
   173   87   88 2    
   174   87   89 am   BACKBONE|DICT|INTERRES
   175   89   90 1    
   176   89  210 1    
   177   90   91 1    
   178   90   92 1    
   179   90  211 1    
   180   91  212 1    
   181   91  213 1    
   182   91  214 1    
   183   92   93 2    
   184   92   94 am   BACKBONE|DICT|INTERRES
   185   94   95 1    
   186   94  215 1    
   187   95   96 1    
   188   95   97 1    
   189   95  216 1    
   190   96  217 1    
   191   96  218 1    
   192   96  219 1    
   193   97   98 2    
   194   97   99 am   BACKBONE|DICT|INTERRES
   195   99  100 1    
   196   99  220 1    
   197  100  101 1    
   198  100  102 1    
   199  100  221 1    
   200  101  222 1    
   201  101  223 1    
   202  101  224 1    
   203  102  103 2    
   204  102  104 am   BACKBONE|DICT|INTERRES
   205  104  105 1    
   206  104  225 1    
   207  105  106 1    
   208  105  107 1    
   209  105  226 1    
   210  106  227 1    
   211  106  228 1    
   212  106  229 1    
   213  107  108 2    
   214  107  109 am   BACKBONE|DICT|INTERRES
   215  109  110 1    
   216  109  230 1    
   217  110  111 1    
   218  110  112 1    
   219  110  231 1    
   220  111  232 1    
   221  111  233 1    
   222  111  234 1    
   223  112  113 2    
   224  112  114 am   BACKBONE|DICT|INTERRES
   225  114  115 1    
   226  114  235 1    
   227  115  116 1    
   228  115  117 1    
   229  115  236 1    
   230  116  237 1    
   231  116  238 1    
   232  116  239 1    
   233  117  118 2    
   234  117  119 am   BACKBONE|DICT|INTERRES
   235  119  120 1    
   236  119  240 1    
   237  120  121 1    
   238  120  124 1    
   239  120  241 1    
   240  121  122 am   BACKBONE|DICT|INTERRES
   241  121  123 2    
   242  122  242 1    
   243  122  243 1    
   244  124  125 1    
   245  124  244 1    
   246  124  245 1    
   247  125  126 1    
   248  126  246 1    
   249  126  247 1    
@<TRIPOS>SUBSTRUCTURE
     1 UNK         1 GROUP             0       ****    0 ROOT    
