@<TRIPOS>MOLECULE
3R540
247   249    1
SMALL
USER_CHARGES


@<TRIPOS>ATOM
      1 CA          2.2878  -15.1970  -50.4139 C.3       0 UNK        -0.1800 
      2 C           3.3674  -16.2198  -50.0930 C.2       0 UNK         0.5000 
      3 O           4.3974  -15.8599  -49.5241 O.2       0 UNK        -0.5000 
      4 N           3.1286  -17.4900  -50.4484 N.am      1 UNK        -0.5000 
      5 CA          4.0632  -18.6237  -50.3555 C.3       1 UNK         0.1400 
      6 C6          3.4338  -19.9451  -50.8657 C.3       23 UNK        -0.0398 
      7 S7          2.7021  -19.8286  -52.5357 S.3       23 UNK        -0.2404 
      8 C8          0.9493  -20.1927  -52.1990 C.3       23 UNK        -0.0205 
      9 C9          0.1671  -18.9434  -51.8254 C.ar      23 UNK        -0.0193 
     10 C10        -0.5014  -18.2217  -52.8181 C.ar      23 UNK        -0.1150 
     11 C11        -1.2160  -17.0656  -52.4960 C.ar      23 UNK        -0.0193 
     12 C12        -1.2514  -16.6279  -51.1698 C.ar      23 UNK        -0.1150 
     13 C13        -0.5894  -17.3398  -50.1656 C.ar      23 UNK        -0.0193 
     14 C14         0.1081  -18.5060  -50.4979 C.ar      23 UNK        -0.1150 
     15 C15        -0.5920  -16.8089  -48.7391 C.3       23 UNK        -0.0205 
     16 S16        -1.7175  -17.7396  -47.6590 S.3       23 UNK        -0.2404 
     17 C17        -0.5701  -18.9016  -46.8449 C.3       23 UNK        -0.0398 
     18 CA         -1.1526  -20.3201  -46.6453 C.3       11 UNK         0.1400 
     19 N          -2.3953  -20.3130  -45.8494 N.am      11 UNK        -0.5000 
     20 C          -3.4124  -21.1868  -45.8200 C.2       10 UNK         0.5000 
     21 O          -3.6408  -22.0252  -46.6906 O.2       10 UNK        -0.5000 
     22 CA         -4.3726  -21.1216  -44.6208 C.3       10 UNK         0.1400 
     23 CB         -3.8524  -22.0064  -43.4770 C.3       10 UNK        -0.1800 
     24 N          -4.6128  -19.7667  -44.1145 N.am      10 UNK        -0.5000 
     25 C          -5.8187  -19.3225  -43.7236 C.2       9 UNK         0.5000 
     26 O          -6.8502  -19.9879  -43.8232 O.2       9 UNK        -0.5000 
     27 CA         -5.9159  -17.9163  -43.0938 C.3       9 UNK         0.1400 
     28 CB         -6.1137  -18.0249  -41.5737 C.3       9 UNK        -0.1800 
     29 N          -4.7535  -17.0703  -43.3492 N.am      9 UNK        -0.5000 
     30 C          -4.4552  -16.5107  -44.5271 C.2       8 UNK         0.5000 
     31 O          -5.1863  -16.5782  -45.5147 O.2       8 UNK        -0.5000 
     32 CA         -3.1073  -15.7690  -44.6321 C.3       8 UNK         0.1400 
     33 CB         -3.3368  -14.2510  -44.6231 C.3       8 UNK        -0.1800 
     34 N          -2.1075  -16.1122  -43.6103 N.am      8 UNK        -0.5000 
     35 C          -1.6307  -17.3401  -43.3474 C.2       7 UNK         0.5000 
     36 O          -2.0670  -18.3628  -43.8779 O.2       7 UNK        -0.5000 
     37 CA         -0.4830  -17.4718  -42.3285 C.3       7 UNK         0.1400 
     38 CB          0.7935  -17.9655  -43.0232 C.3       7 UNK        -0.1800 
     39 N          -0.1781  -16.2249  -41.6296 N.am      7 UNK        -0.5000 
     40 C          -0.8417  -15.7627  -40.5615 C.2       6 UNK         0.5000 
     41 O          -1.7975  -16.3450  -40.0485 O.2       6 UNK        -0.5000 
     42 CA         -0.3640  -14.4192  -39.9742 C.3       6 UNK         0.1400 
     43 CB          0.5513  -14.6596  -38.7640 C.3       6 UNK        -0.1800 
     44 N           0.3436  -13.5766  -40.9428 N.am      6 UNK        -0.5000 
     45 C          -0.2226  -13.0026  -42.0138 C.2       5 UNK         0.5000 
     46 O          -1.4147  -13.1182  -42.2933 O.2       5 UNK        -0.5000 
     47 CA          0.7008  -12.1925  -42.9426 C.3       5 UNK         0.1400 
     48 CB          0.6726  -10.7044  -42.5626 C.3       5 UNK        -0.1800 
     49 N           2.0879  -12.6667  -42.9305 N.am      5 UNK        -0.5000 
     50 C           2.4989  -13.8165  -43.4794 C.2       4 UNK         0.5000 
     51 O           1.7507  -14.6142  -44.0491 O.2       4 UNK        -0.5000 
     52 CA          3.9875  -14.1489  -43.3378 C.3       4 UNK         0.1400 
     53 CB          4.2145  -15.1487  -42.1905 C.3       4 UNK        -0.1800 
     54 N           4.4642  -14.7182  -44.5931 N.am      4 UNK        -0.5000 
     55 C           5.7155  -14.6202  -45.0586 C.2       3 UNK         0.5000 
     56 O           6.6145  -14.0282  -44.4576 O.2       3 UNK        -0.5000 
     57 CA          6.0081  -15.2813  -46.4256 C.3       3 UNK         0.1400 
     58 CB          7.5050  -15.5942  -46.6320 C.3       3 UNK        -0.1800 
     59 N           5.1947  -16.4710  -46.7040 N.am      3 UNK        -0.5000 
     60 C           5.1384  -17.6056  -45.9874 C.2       2 UNK         0.5000 
     61 O           5.7776  -17.7983  -44.9527 O.2       2 UNK        -0.5000 
     62 CA          4.2015  -18.7176  -46.5006 C.3       2 UNK         0.1400 
     63 CB          2.9173  -18.7679  -45.6611 C.3       2 UNK        -0.1800 
     64 N           3.8335  -18.5705  -47.9096 N.am      2 UNK        -0.5000 
     65 C           4.6381  -18.8599  -48.9414 C.2       1 UNK         0.5000 
     66 O           5.7806  -19.3019  -48.8151 O.2       1 UNK        -0.5000 
     67 C          -1.1028  -21.1345  -47.9574 C.2       11 UNK         0.5000 
     68 O          -0.2027  -21.9620  -48.1066 O.2       11 UNK        -0.5000 
     69 N          -2.0517  -20.9203  -48.8797 N.am      12 UNK        -0.5000 
     70 CA         -2.1202  -21.6317  -50.1611 C.3       12 UNK         0.1400 
     71 CB         -3.1978  -21.0050  -51.0512 C.3       12 UNK        -0.1800 
     72 C          -2.3188  -23.1560  -50.0408 C.2       12 UNK         0.5000 
     73 O          -1.9835  -23.8744  -50.9832 O.2       12 UNK        -0.5000 
     74 N          -2.8147  -23.6290  -48.8887 N.am      13 UNK        -0.5000 
     75 CA         -2.9463  -25.0471  -48.5553 C.3       13 UNK         0.1400 
     76 CB         -3.8772  -25.2064  -47.3435 C.3       13 UNK        -0.1800 
     77 C          -1.5936  -25.7286  -48.2824 C.2       13 UNK         0.5000 
     78 O          -1.4801  -26.9333  -48.5064 O.2       13 UNK        -0.5000 
     79 N          -0.5851  -24.9619  -47.8377 N.am      14 UNK        -0.5000 
     80 CA          0.7757  -25.4568  -47.6060 C.3       14 UNK         0.1400 
     81 CB          1.5510  -24.4592  -46.7314 C.3       14 UNK        -0.1800 
     82 C           1.5209  -25.7205  -48.9269 C.2       14 UNK         0.5000 
     83 O           2.3014  -26.6689  -49.0108 O.2       14 UNK        -0.5000 
     84 N           1.2337  -24.8953  -49.9427 N.am      15 UNK        -0.5000 
     85 CA          1.7082  -25.0666  -51.3169 C.3       15 UNK         0.1400 
     86 CB          1.6911  -23.6959  -52.0103 C.3       15 UNK        -0.1800 
     87 C           0.8592  -26.0744  -52.1185 C.2       15 UNK         0.5000 
     88 O           1.2902  -26.5041  -53.1888 O.2       15 UNK        -0.5000 
     89 N          -0.3385  -26.3977  -51.6048 N.am      16 UNK        -0.5000 
     90 CA         -1.4104  -27.1785  -52.2336 C.3       16 UNK         0.1400 
     91 CB         -0.9770  -28.6422  -52.4549 C.3       16 UNK        -0.1800 
     92 C          -1.9627  -26.5050  -53.5099 C.2       16 UNK         0.5000 
     93 O          -2.3934  -27.1899  -54.4395 O.2       16 UNK        -0.5000 
     94 N          -1.9306  -25.1668  -53.5283 N.am      17 UNK        -0.5000 
     95 CA         -2.3864  -24.3262  -54.6317 C.3       17 UNK         0.1400 
     96 CB         -1.5708  -23.0225  -54.6258 C.3       17 UNK        -0.1800 
     97 C          -3.8908  -24.0229  -54.5336 C.2       17 UNK         0.5000 
     98 O          -4.5595  -23.9313  -55.5635 O.2       17 UNK        -0.5000 
     99 N          -4.3883  -23.8813  -53.2999 N.am      18 UNK        -0.5000 
    100 CA        -5.7705  -23.5798  -52.9368 C.3       18 UNK         0.1400 
    101 CB        -6.1809  -22.1676  -53.4232 C.3       18 UNK        -0.1800 
    102 C         -5.8798  -23.7675  -51.4132 C.2       18 UNK         0.5000 
    103 O         -5.3493  -24.7493  -50.8928 O.2       18 UNK        -0.5000 
    104 N         -6.5141  -22.8190  -50.7196 N.am      19 UNK        -0.5000 
    105 CA        -6.5098  -22.6703  -49.2706 C.3       19 UNK         0.1400 
    106 CB        -7.5618  -23.5858  -48.6226 C.3       19 UNK        -0.1800 
    107 C         -6.7802  -21.1915  -48.9702 C.2       19 UNK         0.5000 
    108 O         -7.6347  -20.5973  -49.6330 O.2       19 UNK        -0.5000 
    109 N         -6.0426  -20.6379  -47.9975 N.am      20 UNK        -0.5000 
    110 CA        -6.0066  -19.2205  -47.6031 C.3       20 UNK         0.1400 
    111 CB        -7.3989  -18.7332  -47.1476 C.3       20 UNK        -0.1800 
    112 C         -5.3950  -18.3022  -48.6829 C.2       20 UNK         0.5000 
    113 O         -5.0772  -18.7516  -49.7846 O.2       20 UNK        -0.5000 
    114 N         -5.1931  -17.0281  -48.3293 N.am      21 UNK        -0.5000 
    115 CA        -4.6396  -16.0036  -49.2136 C.3       21 UNK         0.1400 
    116 CB        -4.3566  -14.7309  -48.4031 C.3       21 UNK        -0.1800 
    117 C         -5.5541  -15.7031  -50.4166 C.2       21 UNK         0.5000 
    118 O         -6.7804  -15.7324  -50.2861 O.2       21 UNK        -0.5000 
    119 N         -4.9285  -15.4116  -51.5619 N.am      22 UNK        -0.5000 
    120 CA        -5.5881  -15.2399  -52.8681 C.3       22 UNK         0.1400 
    121 C         -6.4028  -13.9227  -53.0375 C.2       22 UNK         0.5000 
    122 N         -6.3130  -12.9587  -52.1295 N.am      22 UNK        -0.7600 
    123 O         -7.1337  -13.7741  -54.0130 O.2       22 UNK        -0.5000 
    124 C124       -4.5921  -15.4206  -54.0459 C.3       23 UNK        -0.0398 
    125 S125       -3.5862  -16.9444  -53.9189 S.3       23 UNK        -0.2404 
    126 C126       -1.9251  -16.2732  -53.5823 C.3       23 UNK        -0.0205 
    127 H127        2.7338  -14.3098  -50.8634 H         1 UNK         0.0600 
    128 H128        1.7709  -14.8950  -49.5034 H         1 UNK         0.0600 
    129 H129        1.5533  -15.5930  -51.1150 H         1 UNK         0.0600 
    130 H130        2.2637  -17.7005  -50.9285 H         1 UNK         0.3000 
    131 H131        4.9073  -18.3806  -51.0040 H         1 UNK         0.0600 
    132 H132        2.6815  -20.3047  -50.1619 H         1 UNK         0.0800 
    133 H133        4.1941  -20.7275  -50.9057 H         1 UNK         0.0800 
    134 H134        0.8732  -20.9378  -51.4087 H         1 UNK         0.0800 
    135 H135        0.5113  -20.6515  -53.0869 H         1 UNK         0.0800 
    136 H136       -0.4628  -18.5569  -53.8451 H         1 UNK         0.1150 
    137 H137       -1.7789  -15.7187  -50.9214 H         1 UNK         0.1150 
    138 H138        0.6194  -19.0640  -49.7282 H         1 UNK         0.1150 
    139 H139        0.4205  -16.8130  -48.3343 H         1 UNK         0.0800 
    140 H140       -0.9061  -15.7641  -48.7300 H         1 UNK         0.0800 
    141 H141       -0.3073  -18.4738  -45.8782 H         1 UNK         0.0800 
    142 H142        0.3694  -18.9517  -47.3958 H         1 UNK         0.0800 
    143 H143       -0.4465  -20.8327  -45.9890 H         1 UNK         0.0600 
    144 H144       -2.3607  -19.6308  -45.0957 H         1 UNK         0.3000 
    145 H145       -5.3112  -21.5545  -44.9734 H         1 UNK         0.0600 
    146 H146       -4.5821  -22.0747  -42.6699 H         1 UNK         0.0600 
    147 H147       -3.6559  -23.0221  -43.8232 H         1 UNK         0.0600 
    148 H148       -2.9249  -21.6146  -43.0575 H         1 UNK         0.0600 
    149 H149       -3.8036  -19.1644  -43.9965 H         1 UNK         0.3000 
    150 H150       -6.7957  -17.4290  -43.5195 H         1 UNK         0.0600 
    151 H151       -6.9955  -18.6208  -41.3344 H         1 UNK         0.0600 
    152 H152       -6.2560  -17.0425  -41.1229 H         1 UNK         0.0600 
    153 H153       -5.2574  -18.4965  -41.0898 H         1 UNK         0.0600 
    154 H154       -4.0935  -16.9637  -42.5928 H         1 UNK         0.3000 
    155 H155       -2.6788  -16.0340  -45.5976 H         1 UNK         0.0600 
    156 H156       -3.7050  -13.9085  -43.6554 H         1 UNK         0.0600 
    157 H157       -4.0704  -13.9559  -45.3743 H         1 UNK         0.0600 
    158 H158       -2.4152  -13.7121  -44.8436 H         1 UNK         0.0600 
    159 H159       -1.7072  -15.3307  -43.1084 H         1 UNK         0.3000 
    160 H160       -0.7833  -18.2259  -41.5981 H         1 UNK         0.0600 
    161 H161        1.1336  -17.2567  -43.7781 H         1 UNK         0.0600 
    162 H162        0.6276  -18.9234  -43.5181 H         1 UNK         0.0600 
    163 H163        1.6039  -18.1077  -42.3081 H         1 UNK         0.0600 
    164 H164        0.5746  -15.6687  -42.0102 H         1 UNK         0.3000 
    165 H165       -1.2485  -13.8767  -39.6339 H         1 UNK         0.0600 
    166 H166        0.8356  -13.7194  -38.2909 H         1 UNK         0.0600 
    167 H167        0.0484  -15.2630  -38.0070 H         1 UNK         0.0600 
    168 H168        1.4649  -15.1837  -39.0479 H         1 UNK         0.0600 
    169 H169        1.3285  -13.4270  -40.7821 H         1 UNK         0.3000 
    170 H170        0.3129  -12.2922  -43.9588 H         1 UNK         0.0600 
    171 H171       -0.3461  -10.3148  -42.5864 H         1 UNK         0.0600 
    172 H172        1.0648  -10.5365  -41.5588 H         1 UNK         0.0600 
    173 H173        1.2628  -10.1082  -43.2588 H         1 UNK         0.0600 
    174 H174        2.7636  -12.0666  -42.4790 H         1 UNK         0.3000 
    175 H175        4.5312  -13.2259  -43.1244 H         1 UNK         0.0600 
    176 H176        3.6974  -16.0920  -42.3726 H         1 UNK         0.0600 
    177 H177        5.2745  -15.3698  -42.0645 H         1 UNK         0.0600 
    178 H178        3.8507  -14.7496  -41.2430 H         1 UNK         0.0600 
    179 H179        3.7587  -15.1868  -45.1460 H         1 UNK         0.3000 
    180 H180        5.7240  -14.5442  -47.1779 H         1 UNK         0.0600 
    181 H181        7.8822  -16.2834  -45.8759 H         1 UNK         0.0600 
    182 H182        8.1076  -14.6869  -46.5780 H         1 UNK         0.0600 
    183 H183        7.6817  -16.0405  -47.6107 H         1 UNK         0.0600 
    184 H184        4.6701  -16.4278  -47.5713 H         1 UNK         0.3000 
    185 H185        4.7257  -19.6674  -46.3743 H         1 UNK         0.0600 
    186 H186        3.1490  -18.8642  -44.5995 H         1 UNK         0.0600 
    187 H187        2.3207  -17.8640  -45.7884 H         1 UNK         0.0600 
    188 H188        2.3017  -19.6250  -45.9340 H         1 UNK         0.0600 
    189 H189        2.9210  -18.1903  -48.1073 H         1 UNK         0.3000 
    190 H190       -2.7555  -20.2174  -48.7050 H         1 UNK         0.3000 
    191 H191       -1.1636  -21.4886  -50.6602 H         1 UNK         0.0600 
    192 H192       -4.1883  -21.1083  -50.6114 H         1 UNK         0.0600 
    193 H193       -3.2218  -21.4778  -52.0329 H         1 UNK         0.0600 
    194 H194       -3.0074  -19.9430  -51.2109 H         1 UNK         0.0600 
    195 H195       -3.0591  -22.9709  -48.1518 H         1 UNK         0.3000 
    196 H196       -3.4001  -25.5610  -49.4040 H         1 UNK         0.0600 
    197 H197       -4.0226  -26.2596  -47.1001 H         1 UNK         0.0600 
    198 H198       -4.8614  -24.7833  -47.5404 H         1 UNK         0.0600 
    199 H199       -3.4717  -24.7186  -46.4565 H         1 UNK         0.0600 
    200 H200       -0.7305  -23.9654  -47.7237 H         1 UNK         0.3000 
    201 H201        0.7101  -26.4017  -47.0622 H         1 UNK         0.0600 
    202 H202        1.7212  -23.5133  -47.2457 H         1 UNK         0.0600 
    203 H203        1.0184  -24.2474  -45.8042 H         1 UNK         0.0600 
    204 H204        2.5282  -24.8610  -46.4611 H         1 UNK         0.0600 
    205 H205        0.5944  -24.1321  -49.7724 H         1 UNK         0.3000 
    206 H206        2.7370  -25.4326  -51.3013 H         1 UNK         0.0600 
    207 H207        0.6802  -23.2907  -52.0704 H         1 UNK         0.0600 
    208 H208        2.3154  -22.9780  -51.4783 H         1 UNK         0.0600 
    209 H209        2.0756  -23.7657  -53.0287 H         1 UNK         0.0600 
    210 H210       -0.5846  -25.9720  -50.7232 H         1 UNK         0.3000 
    211 H211       -2.2346  -27.1851  -51.5187 H         1 UNK         0.0600 
    212 H212       -0.2029  -28.7267  -53.2179 H         1 UNK         0.0600 
    213 H213       -1.8201  -29.2543  -52.7771 H         1 UNK         0.0600 
    214 H214       -0.5917  -29.0813  -51.5346 H         1 UNK         0.0600 
    215 H215       -1.6354  -24.6881  -52.6823 H         1 UNK         0.3000 
    216 H216       -2.2043  -24.8385  -55.5789 H         1 UNK         0.0600 
    217 H217       -1.8824  -22.3620  -55.4359 H         1 UNK         0.0600 
    218 H218       -0.5079  -23.2241  -54.7606 H         1 UNK         0.0600 
    219 H219       -1.6889  -22.4748  -53.6902 H         1 UNK         0.0600 
    220 H220       -3.7764  -24.0512  -52.5102 H         1 UNK         0.3000 
    221 H221       -6.4214  -24.3211  -53.4036 H         1 UNK         0.0600 
    222 H222       -5.5609  -21.3886  -52.9780 H         1 UNK         0.0600 
    223 H223       -6.0967  -22.0735  -54.5053 H         1 UNK         0.0600 
    224 H224       -7.2211  -21.9502  -53.1783 H         1 UNK         0.0600 
    225 H225       -6.9244  -22.0318  -51.2072 H         1 UNK         0.3000 
    226 H226       -5.5207  -22.9291  -48.8904 H         1 UNK         0.0600 
    227 H227       -7.3505  -24.6360  -48.8244 H         1 UNK         0.0600 
    228 H228       -7.5729  -23.4588  -47.5395 H         1 UNK         0.0600 
    229 H229       -8.5647  -23.3680  -48.9917 H         1 UNK         0.0600 
    230 H230       -5.3437  -21.2216  -47.5537 H         1 UNK         0.3000 
    231 H231       -5.3384  -19.1619  -46.7457 H         1 UNK         0.0600 
    232 H232       -7.8462  -19.4263  -46.4352 H         1 UNK         0.0600 
    233 H233       -8.0871  -18.6207  -47.9855 H         1 UNK         0.0600 
    234 H234       -7.3354  -17.7637  -46.6536 H         1 UNK         0.0600 
    235 H235       -5.4147  -16.7407  -47.3797 H         1 UNK         0.3000 
    236 H236       -3.6907  -16.3848  -49.5935 H         1 UNK         0.0600 
    237 H237       -3.9608  -13.9379  -49.0387 H         1 UNK         0.0600 
    238 H238       -5.2589  -14.3515  -47.9220 H         1 UNK         0.0600 
    239 H239       -3.6150  -14.9217  -47.6282 H         1 UNK         0.0600 
    240 H240       -3.9210  -15.4149  -51.5849 H         1 UNK         0.3000 
    241 H241       -6.3215  -16.0446  -52.9501 H         1 UNK         0.0600 
    242 H242       -6.8480  -12.1125  -52.2482 H         1 UNK         0.3800 
    243 H243       -5.7275  -13.0728  -51.3182 H         1 UNK         0.3800 
    244 H244       -5.1394  -15.4730  -54.9887 H         1 UNK         0.0800 
    245 H245       -3.9421  -14.5489  -54.1341 H         1 UNK         0.0800 
    246 H246       -1.3401  -16.2948  -54.5030 H         1 UNK         0.0800 
    247 H247       -1.9793  -15.2252  -53.2856 H         1 UNK         0.0800 
@<TRIPOS>BOND
     1    1    2 1    
     2    1  127 1    
     3    1  128 1    
     4    1  129 1    
     5    2    3 2    
     6    2    4 am   BACKBONE|DICT|INTERRES
     7    4    5 1    
     8    4  130 1    
     9    5    6 1    
    10    5   65 1    
    11    5  131 1    
    12    6    7 1    
    13    6  132 1    
    14    6  133 1    
    15    7    8 1    
    16    8    9 1    
    17    8  134 1    
    18    8  135 1    
    19    9   10 ar   
    20    9   14 ar   
    21   10   11 ar   
    22   10  136 1    
    23   11   12 ar   
    24   11  126 1    
    25   12   13 ar   
    26   12  137 1    
    27   13   14 ar   
    28   13   15 1    
    29   14  138 1    
    30   15   16 1    
    31   15  139 1    
    32   15  140 1    
    33   16   17 1    
    34   17   18 1    
    35   17  141 1    
    36   17  142 1    
    37   18   19 1    
    38   18   67 1    
    39   18  143 1    
    40   19   20 am   BACKBONE|DICT|INTERRES
    41   19  144 1    
    42   20   21 2    
    43   20   22 1    
    44   22   23 1    
    45   22   24 1    
    46   22  145 1    
    47   23  146 1    
    48   23  147 1    
    49   23  148 1    
    50   24   25 am   BACKBONE|DICT|INTERRES
    51   24  149 1    
    52   25   26 2    
    53   25   27 1    
    54   27   28 1    
    55   27   29 1    
    56   27  150 1    
    57   28  151 1    
    58   28  152 1    
    59   28  153 1    
    60   29   30 am   BACKBONE|DICT|INTERRES
    61   29  154 1    
    62   30   31 2    
    63   30   32 1    
    64   32   33 1    
    65   32   34 1    
    66   32  155 1    
    67   33  156 1    
    68   33  157 1    
    69   33  158 1    
    70   34   35 am   BACKBONE|DICT|INTERRES
    71   34  159 1    
    72   35   36 2    
    73   35   37 1    
    74   37   38 1    
    75   37   39 1    
    76   37  160 1    
    77   38  161 1    
    78   38  162 1    
    79   38  163 1    
    80   39   40 am   BACKBONE|DICT|INTERRES
    81   39  164 1    
    82   40   41 2    
    83   40   42 1    
    84   42   43 1    
    85   42   44 1    
    86   42  165 1    
    87   43  166 1    
    88   43  167 1    
    89   43  168 1    
    90   44   45 am   BACKBONE|DICT|INTERRES
    91   44  169 1    
    92   45   46 2    
    93   45   47 1    
    94   47   48 1    
    95   47   49 1    
    96   47  170 1    
    97   48  171 1    
    98   48  172 1    
    99   48  173 1    
   100   49   50 am   BACKBONE|DICT|INTERRES
   101   49  174 1    
   102   50   51 2    
   103   50   52 1    
   104   52   53 1    
   105   52   54 1    
   106   52  175 1    
   107   53  176 1    
   108   53  177 1    
   109   53  178 1    
   110   54   55 am   BACKBONE|DICT|INTERRES
   111   54  179 1    
   112   55   56 2    
   113   55   57 1    
   114   57   58 1    
   115   57   59 1    
   116   57  180 1    
   117   58  181 1    
   118   58  182 1    
   119   58  183 1    
   120   59   60 am   BACKBONE|DICT|INTERRES
   121   59  184 1    
   122   60   61 2    
   123   60   62 1    
   124   62   63 1    
   125   62   64 1    
   126   62  185 1    
   127   63  186 1    
   128   63  187 1    
   129   63  188 1    
   130   64   65 am   BACKBONE|DICT|INTERRES
   131   64  189 1    
   132   65   66 2    
   133   67   68 2    
   134   67   69 am   BACKBONE|DICT|INTERRES
   135   69   70 1    
   136   69  190 1    
   137   70   71 1    
   138   70   72 1    
   139   70  191 1    
   140   71  192 1    
   141   71  193 1    
   142   71  194 1    
   143   72   73 2    
   144   72   74 am   BACKBONE|DICT|INTERRES
   145   74   75 1    
   146   74  195 1    
   147   75   76 1    
   148   75   77 1    
   149   75  196 1    
   150   76  197 1    
   151   76  198 1    
   152   76  199 1    
   153   77   78 2    
   154   77   79 am   BACKBONE|DICT|INTERRES
   155   79   80 1    
   156   79  200 1    
   157   80   81 1    
   158   80   82 1    
   159   80  201 1    
   160   81  202 1    
   161   81  203 1    
   162   81  204 1    
   163   82   83 2    
   164   82   84 am   BACKBONE|DICT|INTERRES
   165   84   85 1    
   166   84  205 1    
   167   85   86 1    
   168   85   87 1    
   169   85  206 1    
   170   86  207 1    
   171   86  208 1    
   172   86  209 1    
   173   87   88 2    
   174   87   89 am   BACKBONE|DICT|INTERRES
   175   89   90 1    
   176   89  210 1    
   177   90   91 1    
   178   90   92 1    
   179   90  211 1    
   180   91  212 1    
   181   91  213 1    
   182   91  214 1    
   183   92   93 2    
   184   92   94 am   BACKBONE|DICT|INTERRES
   185   94   95 1    
   186   94  215 1    
   187   95   96 1    
   188   95   97 1    
   189   95  216 1    
   190   96  217 1    
   191   96  218 1    
   192   96  219 1    
   193   97   98 2    
   194   97   99 am   BACKBONE|DICT|INTERRES
   195   99  100 1    
   196   99  220 1    
   197  100  101 1    
   198  100  102 1    
   199  100  221 1    
   200  101  222 1    
   201  101  223 1    
   202  101  224 1    
   203  102  103 2    
   204  102  104 am   BACKBONE|DICT|INTERRES
   205  104  105 1    
   206  104  225 1    
   207  105  106 1    
   208  105  107 1    
   209  105  226 1    
   210  106  227 1    
   211  106  228 1    
   212  106  229 1    
   213  107  108 2    
   214  107  109 am   BACKBONE|DICT|INTERRES
   215  109  110 1    
   216  109  230 1    
   217  110  111 1    
   218  110  112 1    
   219  110  231 1    
   220  111  232 1    
   221  111  233 1    
   222  111  234 1    
   223  112  113 2    
   224  112  114 am   BACKBONE|DICT|INTERRES
   225  114  115 1    
   226  114  235 1    
   227  115  116 1    
   228  115  117 1    
   229  115  236 1    
   230  116  237 1    
   231  116  238 1    
   232  116  239 1    
   233  117  118 2    
   234  117  119 am   BACKBONE|DICT|INTERRES
   235  119  120 1    
   236  119  240 1    
   237  120  121 1    
   238  120  124 1    
   239  120  241 1    
   240  121  122 am   BACKBONE|DICT|INTERRES
   241  121  123 2    
   242  122  242 1    
   243  122  243 1    
   244  124  125 1    
   245  124  244 1    
   246  124  245 1    
   247  125  126 1    
   248  126  246 1    
   249  126  247 1    
@<TRIPOS>SUBSTRUCTURE
     1 UNK         1 GROUP             0       ****    0 ROOT    
