@<TRIPOS>MOLECULE
3R540
247   249    1
SMALL
USER_CHARGES


@<TRIPOS>ATOM
      1 CA          5.1126  -13.0579  -47.3994 C.3       0 UNK        -0.1800 
      2 C           4.1511  -14.2069  -47.6671 C.2       0 UNK         0.5000 
      3 O           4.1548  -15.1916  -46.9298 O.2       0 UNK        -0.5000 
      4 N           3.3319  -14.0847  -48.7186 N.am      1 UNK        -0.5000 
      5 CA          2.3188  -15.0733  -49.1133 C.3       1 UNK         0.1400 
      6 C6          1.8317  -14.8458  -50.5644 C.3       23 UNK        -0.0398 
      7 S7          3.1772  -15.0357  -51.7819 S.3       23 UNK        -0.2404 
      8 C8          2.3241  -15.9249  -53.1316 C.3       23 UNK        -0.0205 
      9 C9          1.8851  -17.3624  -52.8377 C.ar      23 UNK        -0.0193 
     10 C10         1.0755  -18.0047  -53.7789 C.ar      23 UNK        -0.1150 
     11 C11         0.6536  -19.3231  -53.5875 C.ar      23 UNK        -0.0193 
     12 C12         1.0387  -20.0049  -52.4303 C.ar      23 UNK        -0.1150 
     13 C13         1.8497  -19.3826  -51.4780 C.ar      23 UNK        -0.0193 
     14 C14         2.2755  -18.0683  -51.6912 C.ar      23 UNK        -0.1150 
     15 C15         2.3141  -20.1385  -50.2414 C.3       23 UNK        -0.0205 
     16 S16         1.4843  -19.5654  -48.7255 S.3       23 UNK        -0.2404 
     17 C17        -0.0332  -20.5772  -48.7158 C.3       23 UNK        -0.0398 
     18 CA          0.1487  -21.9031  -47.9365 C.3       11 UNK         0.1400 
     19 N           0.5677  -21.6930  -46.5468 N.am      11 UNK        -0.5000 
     20 C           1.0769  -22.6499  -45.7592 C.2       10 UNK         0.5000 
     21 O           1.2774  -23.8054  -46.1330 O.2       10 UNK        -0.5000 
     22 CA          1.3662  -22.2642  -44.2962 C.3       10 UNK         0.1400 
     23 CB          2.7190  -21.5473  -44.1768 C.3       10 UNK        -0.1800 
     24 N           0.3179  -21.4250  -43.7151 N.am      10 UNK        -0.5000 
     25 C          -0.9552  -21.8057  -43.5442 C.2       9 UNK         0.5000 
     26 O          -1.3713  -22.9300  -43.8122 O.2       9 UNK        -0.5000 
     27 CA         -1.9456  -20.7439  -43.0393 C.3       9 UNK         0.1400 
     28 CB         -1.9570  -20.6923  -41.5045 C.3       9 UNK        -0.1800 
     29 N          -1.6735  -19.4131  -43.5817 N.am      9 UNK        -0.5000 
     30 C          -1.7595  -19.0812  -44.8785 C.2       8 UNK         0.5000 
     31 O          -2.0711  -19.8715  -45.7715 O.2       8 UNK        -0.5000 
     32 CA         -1.4170  -17.6231  -45.2323 C.3       8 UNK         0.1400 
     33 CB         -2.6580  -16.7300  -45.0834 C.3       8 UNK        -0.1800 
     34 N          -0.3322  -17.0907  -44.4043 N.am      8 UNK        -0.5000 
     35 C           0.9505  -17.4585  -44.5367 C.2       7 UNK         0.5000 
     36 O           1.3482  -18.2824  -45.3592 O.2       7 UNK        -0.5000 
     37 CA          1.9458  -16.8384  -43.5375 C.3       7 UNK         0.1400 
     38 CB          2.1656  -15.3483  -43.8471 C.3       7 UNK        -0.1800 
     39 N           1.5381  -16.9768  -42.1361 N.am      7 UNK        -0.5000 
     40 C           1.1960  -18.1161  -41.5165 C.2       6 UNK         0.5000 
     41 O           1.1920  -19.2128  -42.0739 O.2       6 UNK        -0.5000 
     42 CA          0.7841  -18.0383  -40.0288 C.3       6 UNK         0.1400 
     43 CB          1.7303  -18.8845  -39.1620 C.3       6 UNK        -0.1800 
     44 N           0.7190  -16.6851  -39.4664 N.am      6 UNK        -0.5000 
     45 C          -0.1814  -15.7482  -39.7883 C.2       5 UNK         0.5000 
     46 O          -1.0530  -15.9124  -40.6465 O.2       5 UNK        -0.5000 
     47 CA         -0.0619  -14.4025  -39.0505 C.3       5 UNK         0.1400 
     48 CB          1.3689  -13.8271  -39.1404 C.3       5 UNK        -0.1800 
     49 N          -1.0075  -13.4633  -39.6398 N.am      5 UNK        -0.5000 
     50 C          -1.4106  -12.2946  -39.1333 C.2       4 UNK         0.5000 
     51 O          -1.0859  -11.8875  -38.0162 O.2       4 UNK        -0.5000 
     52 CA         -2.2735  -11.4183  -40.0699 C.3       4 UNK         0.1400 
     53 CB         -2.7063  -10.0926  -39.4177 C.3       4 UNK        -0.1800 
     54 N          -1.5477  -11.1212  -41.3096 N.am      4 UNK        -0.5000 
     55 C          -1.4106  -11.9695  -42.3352 C.2       3 UNK         0.5000 
     56 O          -1.9947  -13.0568  -42.3987 O.2       3 UNK        -0.5000 
     57 CA         -0.4104  -11.5780  -43.4337 C.3       3 UNK         0.1400 
     58 CB          1.0290  -11.5619  -42.8752 C.3       3 UNK        -0.1800 
     59 N          -0.5366  -12.5690  -44.4952 N.am      3 UNK        -0.5000 
     60 C           0.0384  -12.5534  -45.6979 C.2       2 UNK         0.5000 
     61 O           0.7748  -11.6532  -46.1102 O.2       2 UNK        -0.5000 
     62 CA         -0.2792  -13.7547  -46.5936 C.3       2 UNK         0.1400 
     63 CB         -1.6092  -13.5600  -47.3440 C.3       2 UNK        -0.1800 
     64 N           0.8100  -13.9358  -47.5411 N.am      2 UNK        -0.5000 
     65 C           1.1133  -15.0860  -48.1511 C.2       1 UNK         0.5000 
     66 O           0.4795  -16.1260  -47.9857 O.2       1 UNK        -0.5000 
     67 C          -1.1197  -22.7792  -48.0046 C.2       11 UNK         0.5000 
     68 O          -1.1981  -23.6793  -48.8419 O.2       11 UNK        -0.5000 
     69 N          -2.0740  -22.5413  -47.0922 N.am      12 UNK        -0.5000 
     70 CA         -3.2879  -23.3466  -46.9446 C.3       12 UNK         0.1400 
     71 CB         -4.2503  -22.6617  -45.9648 C.3       12 UNK        -0.1800 
     72 C          -2.9963  -24.7991  -46.5203 C.2       12 UNK         0.5000 
     73 O          -3.5935  -25.7196  -47.0769 O.2       12 UNK        -0.5000 
     74 N          -2.0457  -24.9894  -45.5944 N.am      13 UNK        -0.5000 
     75 CA         -1.5480  -26.2959  -45.1513 C.3       13 UNK         0.1400 
     76 CB         -0.6293  -26.1096  -43.9346 C.3       13 UNK        -0.1800 
     77 C          -0.8217  -27.0788  -46.2627 C.2       13 UNK         0.5000 
     78 O          -0.8777  -28.3087  -46.2740 O.2       13 UNK        -0.5000 
     79 N          -0.1975  -26.3551  -47.2020 N.am      14 UNK        -0.5000 
     80 CA          0.3944  -26.8925  -48.4295 C.3       14 UNK         0.1400 
     81 CB          1.4676  -25.9140  -48.9363 C.3       14 UNK        -0.1800 
     82 C          -0.6492  -27.1977  -49.5292 C.2       14 UNK         0.5000 
     83 O          -0.2636  -27.6571  -50.6049 O.2       14 UNK        -0.5000 
     84 N          -1.9379  -26.9460  -49.2476 N.am      15 UNK        -0.5000 
     85 CA         -3.1088  -27.1576  -50.1034 C.3       15 UNK         0.1400 
     86 CB         -3.2846  -28.6513  -50.4507 C.3       15 UNK        -0.1800 
     87 C          -3.1371  -26.2359  -51.3388 C.2       15 UNK         0.5000 
     88 O          -3.6735  -26.6213  -52.3792 O.2       15 UNK        -0.5000 
     89 N          -2.5791  -25.0275  -51.2012 N.am      16 UNK        -0.5000 
     90 CA         -2.5229  -24.0140  -52.2473 C.3       16 UNK         0.1400 
     91 CB         -1.2848  -24.2458  -53.1361 C.3       16 UNK        -0.1800 
     92 C          -2.5420  -22.6320  -51.5851 C.2       16 UNK         0.5000 
     93 O          -1.5563  -21.9023  -51.6673 O.2       16 UNK        -0.5000 
     94 N          -3.6450  -22.3250  -50.8846 N.am      17 UNK        -0.5000 
     95 CA         -3.8750  -21.0624  -50.1750 C.3       17 UNK         0.1400 
     96 CB         -5.2799  -21.0764  -49.5530 C.3       17 UNK        -0.1800 
     97 C          -3.7058  -19.8376  -51.0924 C.2       17 UNK         0.5000 
     98 O          -4.2726  -19.8300  -52.1875 O.2       17 UNK        -0.5000 
     99 N          -2.9269  -18.8526  -50.6228 N.am      18 UNK        -0.5000 
    100 CA        -2.4717  -17.6729  -51.3612 C.3       18 UNK         0.1400 
    101 CB        -1.6860  -16.7602  -50.4108 C.3       18 UNK        -0.1800 
    102 C         -3.6141  -16.9069  -52.0514 C.2       18 UNK         0.5000 
    103 O         -4.4936  -16.3770  -51.3701 O.2       18 UNK        -0.5000 
    104 N         -3.6017  -16.9293  -53.3906 N.am      19 UNK        -0.5000 
    105 CA        -4.5866  -16.4080  -54.3481 C.3       19 UNK         0.1400 
    106 CB        -4.7783  -14.8883  -54.1850 C.3       19 UNK        -0.1800 
    107 C         -5.9444  -17.1432  -54.3499 C.2       19 UNK         0.5000 
    108 O         -6.5751  -17.2323  -55.4036 O.2       19 UNK        -0.5000 
    109 N         -6.3734  -17.6536  -53.1911 N.am      20 UNK        -0.5000 
    110 CA        -7.6454  -18.3366  -52.9762 C.3       20 UNK         0.1400 
    111 CB        -7.9033  -18.4367  -51.4649 C.3       20 UNK        -0.1800 
    112 C         -7.7260  -19.7285  -53.6282 C.2       20 UNK         0.5000 
    113 O         -8.7989  -20.0980  -54.1084 O.2       20 UNK        -0.5000 
    114 N         -6.6173  -20.4809  -53.6200 N.am      21 UNK        -0.5000 
    115 CA        -6.5709  -21.8739  -54.0714 C.3       21 UNK         0.1400 
    116 CB        -6.8780  -22.8089  -52.8859 C.3       21 UNK        -0.1800 
    117 C         -5.2520  -22.2374  -54.7775 C.2       21 UNK         0.5000 
    118 O         -4.9544  -23.4246  -54.9160 O.2       21 UNK        -0.5000 
    119 N         -4.4853  -21.2349  -55.2242 N.am      22 UNK        -0.5000 
    120 CA        -3.2737  -21.4203  -56.0408 C.3       22 UNK         0.1400 
    121 C         -3.5745  -22.0688  -57.4227 C.2       22 UNK         0.5000 
    122 N         -2.7018  -22.9402  -57.9105 N.am      22 UNK        -0.7600 
    123 O         -4.5674  -21.7544  -58.0758 O.2       22 UNK        -0.5000 
    124 C124       -2.5038  -20.0934  -56.2445 C.3       23 UNK        -0.0398 
    125 S125       -1.8859  -19.3869  -54.6842 S.3       23 UNK        -0.2404 
    126 C126       -0.1800  -20.0136  -54.6563 C.3       23 UNK        -0.0205 
    127 H127        5.0094  -12.2618  -48.1372 H         1 UNK         0.0600 
    128 H128        6.1419  -13.4156  -47.4270 H         1 UNK         0.0600 
    129 H129        4.9237  -12.6341  -46.4131 H         1 UNK         0.0600 
    130 H130        3.3984  -13.2665  -49.3071 H         1 UNK         0.3000 
    131 H131        2.7742  -16.0648  -49.0591 H         1 UNK         0.0600 
    132 H132        1.0385  -15.5533  -50.8085 H         1 UNK         0.0800 
    133 H133        1.3972  -13.8512  -50.6788 H         1 UNK         0.0800 
    134 H134        1.4544  -15.3384  -53.4322 H         1 UNK         0.0800 
    135 H135        2.9923  -15.9449  -53.9936 H         1 UNK         0.0800 
    136 H136        0.7788  -17.4798  -54.6766 H         1 UNK         0.1150 
    137 H137        0.7264  -21.0281  -52.2812 H         1 UNK         0.1150 
    138 H138        2.9187  -17.6111  -50.9548 H         1 UNK         0.1150 
    139 H139        2.1676  -21.2130  -50.3611 H         1 UNK         0.0800 
    140 H140        3.3887  -19.9928  -50.1230 H         1 UNK         0.0800 
    141 H141       -0.3306  -20.7669  -49.7467 H         1 UNK         0.0800 
    142 H142       -0.8296  -19.9786  -48.2713 H         1 UNK         0.0800 
    143 H143        0.9420  -22.4649  -48.4344 H         1 UNK         0.0600 
    144 H144        0.4428  -20.7631  -46.1699 H         1 UNK         0.3000 
    145 H145        1.4163  -23.1859  -43.7132 H         1 UNK         0.0600 
    146 H146        2.9610  -21.3343  -43.1353 H         1 UNK         0.0600 
    147 H147        3.5244  -22.1623  -44.5802 H         1 UNK         0.0600 
    148 H148        2.7227  -20.6016  -44.7199 H         1 UNK         0.0600 
    149 H149        0.5945  -20.4994  -43.3996 H         1 UNK         0.3000 
    150 H150       -2.9438  -21.0340  -43.3724 H         1 UNK         0.0600 
    151 H151       -2.2708  -21.6510  -41.0896 H         1 UNK         0.0600 
    152 H152       -2.6508  -19.9364  -41.1363 H         1 UNK         0.0600 
    153 H153       -0.9700  -20.4733  -41.0988 H         1 UNK         0.0600 
    154 H154       -1.3725  -18.7084  -42.9261 H         1 UNK         0.3000 
    155 H155       -1.1015  -17.5993  -46.2778 H         1 UNK         0.0600 
    156 H156       -3.0097  -16.6952  -44.0515 H         1 UNK         0.0600 
    157 H157       -2.4536  -15.7086  -45.4010 H         1 UNK         0.0600 
    158 H158       -3.4794  -17.1000  -45.6985 H         1 UNK         0.0600 
    159 H159       -0.5836  -16.4469  -43.6681 H         1 UNK         0.3000 
    160 H160        2.8983  -17.3586  -43.6571 H         1 UNK         0.0600 
    161 H161        2.9869  -14.9390  -43.2588 H         1 UNK         0.0600 
    162 H162        1.2747  -14.7573  -43.6349 H         1 UNK         0.0600 
    163 H163        2.4130  -15.1980  -44.8982 H         1 UNK         0.0600 
    164 H164        1.5105  -16.1286  -41.5919 H         1 UNK         0.3000 
    165 H165       -0.2152  -18.4715  -39.9571 H         1 UNK         0.0600 
    166 H166        1.4006  -18.9071  -38.1231 H         1 UNK         0.0600 
    167 H167        1.7652  -19.9180  -39.5097 H         1 UNK         0.0600 
    168 H168        2.7494  -18.4964  -39.1841 H         1 UNK         0.0600 
    169 H169        1.4112  -16.4677  -38.7638 H         1 UNK         0.3000 
    170 H170       -0.3292  -14.5668  -38.0049 H         1 UNK         0.0600 
    171 H171        1.4431  -12.8599  -38.6436 H         1 UNK         0.0600 
    172 H172        1.6810  -13.6907  -40.1765 H         1 UNK         0.0600 
    173 H173        2.0968  -14.4804  -38.6588 H         1 UNK         0.0600 
    174 H174       -1.3629  -13.7473  -40.5495 H         1 UNK         0.3000 
    175 H175       -3.1779  -11.9832  -40.3060 H         1 UNK         0.0600 
    176 H176       -3.3458   -9.5158  -40.0861 H         1 UNK         0.0600 
    177 H177       -1.8486   -9.4718  -39.1559 H         1 UNK         0.0600 
    178 H178       -3.2738  -10.2735  -38.5039 H         1 UNK         0.0600 
    179 H179       -1.0140  -10.2638  -41.3135 H         1 UNK         0.3000 
    180 H180       -0.6782  -10.5944  -43.8241 H         1 UNK         0.0600 
    181 H181        1.3129  -12.5341  -42.4713 H         1 UNK         0.0600 
    182 H182        1.1349  -10.8318  -42.0723 H         1 UNK         0.0600 
    183 H183        1.7569  -11.2946  -43.6407 H         1 UNK         0.0600 
    184 H184       -1.1691  -13.3195  -44.2410 H         1 UNK         0.3000 
    185 H185       -0.3442  -14.6406  -45.9592 H         1 UNK         0.0600 
    186 H186       -2.4327  -13.3935  -46.6487 H         1 UNK         0.0600 
    187 H187       -1.5672  -12.7024  -48.0163 H         1 UNK         0.0600 
    188 H188       -1.8613  -14.4388  -47.9376 H         1 UNK         0.0600 
    189 H189        1.3954  -13.1207  -47.6730 H         1 UNK         0.3000 
    190 H190       -1.9595  -21.7621  -46.4513 H         1 UNK         0.3000 
    191 H191       -3.7737  -23.3873  -47.9211 H         1 UNK         0.0600 
    192 H192       -4.4787  -21.6437  -46.2815 H         1 UNK         0.0600 
    193 H193       -5.1944  -23.2043  -45.9043 H         1 UNK         0.0600 
    194 H194       -3.8354  -22.6148  -44.9586 H         1 UNK         0.0600 
    195 H195       -1.6538  -24.1764  -45.1233 H         1 UNK         0.3000 
    196 H196       -2.4085  -26.8912  -44.8395 H         1 UNK         0.0600 
    197 H197       -0.2567  -27.0691  -43.5741 H         1 UNK         0.0600 
    198 H198       -1.1606  -25.6368  -43.1085 H         1 UNK         0.0600 
    199 H199        0.2350  -25.4901  -44.1751 H         1 UNK         0.0600 
    200 H200       -0.1645  -25.3494  -47.0918 H         1 UNK         0.3000 
    201 H201        0.8902  -27.8352  -48.1899 H         1 UNK         0.0600 
    202 H202        2.2089  -25.7067  -48.1643 H         1 UNK         0.0600 
    203 H203        1.0360  -24.9638  -49.2487 H         1 UNK         0.0600 
    204 H204        2.0002  -26.3268  -49.7937 H         1 UNK         0.0600 
    205 H205       -2.1520  -26.5462  -48.3416 H         1 UNK         0.3000 
    206 H206       -3.9716  -26.8666  -49.5033 H         1 UNK         0.0600 
    207 H207       -3.2612  -29.2699  -49.5536 H         1 UNK         0.0600 
    208 H208       -4.2433  -28.8282  -50.9396 H         1 UNK         0.0600 
    209 H209       -2.5057  -29.0070  -51.1254 H         1 UNK         0.0600 
    210 H210       -2.1527  -24.7659  -50.3161 H         1 UNK         0.3000 
    211 H211       -3.4151  -24.0781  -52.8717 H         1 UNK         0.0600 
    212 H212       -0.3636  -24.2234  -52.5525 H         1 UNK         0.0600 
    213 H213       -1.2077  -23.4783  -53.9066 H         1 UNK         0.0600 
    214 H214       -1.3371  -25.2099  -53.6418 H         1 UNK         0.0600 
    215 H215       -4.3960  -22.9971  -50.8578 H         1 UNK         0.3000 
    216 H216       -3.1430  -21.0032  -49.3684 H         1 UNK         0.0600 
    217 H217       -5.4585  -20.1681  -48.9761 H         1 UNK         0.0600 
    218 H218       -5.4111  -21.9195  -48.8758 H         1 UNK         0.0600 
    219 H219       -6.0575  -21.1366  -50.3149 H         1 UNK         0.0600 
    220 H220       -2.5509  -18.9433  -49.6923 H         1 UNK         0.3000 
    221 H221       -1.7726  -18.0229  -52.1217 H         1 UNK         0.0600 
    222 H222       -2.2816  -16.4649  -49.5462 H         1 UNK         0.0600 
    223 H223       -0.7886  -17.2619  -50.0476 H         1 UNK         0.0600 
    224 H224       -1.3674  -15.8485  -50.9170 H         1 UNK         0.0600 
    225 H225       -2.8684  -17.4789  -53.8221 H         1 UNK         0.3000 
    226 H226       -4.1478  -16.5773  -55.3326 H         1 UNK         0.0600 
    227 H227       -3.8251  -14.3624  -54.2387 H         1 UNK         0.0600 
    228 H228       -5.4141  -14.4907  -54.9769 H         1 UNK         0.0600 
    229 H229       -5.2492  -14.6354  -53.2348 H         1 UNK         0.0600 
    230 H230       -5.7894  -17.5048  -52.3757 H         1 UNK         0.3000 
    231 H231       -8.4347  -17.7220  -53.4142 H         1 UNK         0.0600 
    232 H232       -7.1135  -18.9931  -50.9597 H         1 UNK         0.0600 
    233 H233       -8.8474  -18.9433  -51.2598 H         1 UNK         0.0600 
    234 H234       -7.9590  -17.4481  -51.0089 H         1 UNK         0.0600 
    235 H235       -5.7722  -20.1239  -53.1735 H         1 UNK         0.3000 
    236 H236       -7.3421  -22.0318  -54.8279 H         1 UNK         0.0600 
    237 H237       -7.8358  -22.5651  -52.4260 H         1 UNK         0.0600 
    238 H238       -6.9318  -23.8502  -53.2056 H         1 UNK         0.0600 
    239 H239       -6.1105  -22.7411  -52.1174 H         1 UNK         0.0600 
    240 H240       -4.7907  -20.2853  -55.0770 H         1 UNK         0.3000 
    241 H241       -2.6230  -22.1029  -55.4908 H         1 UNK         0.0600 
    242 H242       -1.8764  -23.2105  -57.3984 H         1 UNK         0.3800 
    243 H243       -2.8787  -23.3552  -58.8124 H         1 UNK         0.3800 
    244 H244       -1.6601  -20.2338  -56.9227 H         1 UNK         0.0800 
    245 H245       -3.1479  -19.3524  -56.7211 H         1 UNK         0.0800 
    246 H246        0.2902  -19.8527  -55.6273 H         1 UNK         0.0800 
    247 H247       -0.1999  -21.0922  -54.4928 H         1 UNK         0.0800 
@<TRIPOS>BOND
     1    1    2 1    
     2    1  127 1    
     3    1  128 1    
     4    1  129 1    
     5    2    3 2    
     6    2    4 am   BACKBONE|DICT|INTERRES
     7    4    5 1    
     8    4  130 1    
     9    5    6 1    
    10    5   65 1    
    11    5  131 1    
    12    6    7 1    
    13    6  132 1    
    14    6  133 1    
    15    7    8 1    
    16    8    9 1    
    17    8  134 1    
    18    8  135 1    
    19    9   10 ar   
    20    9   14 ar   
    21   10   11 ar   
    22   10  136 1    
    23   11   12 ar   
    24   11  126 1    
    25   12   13 ar   
    26   12  137 1    
    27   13   14 ar   
    28   13   15 1    
    29   14  138 1    
    30   15   16 1    
    31   15  139 1    
    32   15  140 1    
    33   16   17 1    
    34   17   18 1    
    35   17  141 1    
    36   17  142 1    
    37   18   19 1    
    38   18   67 1    
    39   18  143 1    
    40   19   20 am   BACKBONE|DICT|INTERRES
    41   19  144 1    
    42   20   21 2    
    43   20   22 1    
    44   22   23 1    
    45   22   24 1    
    46   22  145 1    
    47   23  146 1    
    48   23  147 1    
    49   23  148 1    
    50   24   25 am   BACKBONE|DICT|INTERRES
    51   24  149 1    
    52   25   26 2    
    53   25   27 1    
    54   27   28 1    
    55   27   29 1    
    56   27  150 1    
    57   28  151 1    
    58   28  152 1    
    59   28  153 1    
    60   29   30 am   BACKBONE|DICT|INTERRES
    61   29  154 1    
    62   30   31 2    
    63   30   32 1    
    64   32   33 1    
    65   32   34 1    
    66   32  155 1    
    67   33  156 1    
    68   33  157 1    
    69   33  158 1    
    70   34   35 am   BACKBONE|DICT|INTERRES
    71   34  159 1    
    72   35   36 2    
    73   35   37 1    
    74   37   38 1    
    75   37   39 1    
    76   37  160 1    
    77   38  161 1    
    78   38  162 1    
    79   38  163 1    
    80   39   40 am   BACKBONE|DICT|INTERRES
    81   39  164 1    
    82   40   41 2    
    83   40   42 1    
    84   42   43 1    
    85   42   44 1    
    86   42  165 1    
    87   43  166 1    
    88   43  167 1    
    89   43  168 1    
    90   44   45 am   BACKBONE|DICT|INTERRES
    91   44  169 1    
    92   45   46 2    
    93   45   47 1    
    94   47   48 1    
    95   47   49 1    
    96   47  170 1    
    97   48  171 1    
    98   48  172 1    
    99   48  173 1    
   100   49   50 am   BACKBONE|DICT|INTERRES
   101   49  174 1    
   102   50   51 2    
   103   50   52 1    
   104   52   53 1    
   105   52   54 1    
   106   52  175 1    
   107   53  176 1    
   108   53  177 1    
   109   53  178 1    
   110   54   55 am   BACKBONE|DICT|INTERRES
   111   54  179 1    
   112   55   56 2    
   113   55   57 1    
   114   57   58 1    
   115   57   59 1    
   116   57  180 1    
   117   58  181 1    
   118   58  182 1    
   119   58  183 1    
   120   59   60 am   BACKBONE|DICT|INTERRES
   121   59  184 1    
   122   60   61 2    
   123   60   62 1    
   124   62   63 1    
   125   62   64 1    
   126   62  185 1    
   127   63  186 1    
   128   63  187 1    
   129   63  188 1    
   130   64   65 am   BACKBONE|DICT|INTERRES
   131   64  189 1    
   132   65   66 2    
   133   67   68 2    
   134   67   69 am   BACKBONE|DICT|INTERRES
   135   69   70 1    
   136   69  190 1    
   137   70   71 1    
   138   70   72 1    
   139   70  191 1    
   140   71  192 1    
   141   71  193 1    
   142   71  194 1    
   143   72   73 2    
   144   72   74 am   BACKBONE|DICT|INTERRES
   145   74   75 1    
   146   74  195 1    
   147   75   76 1    
   148   75   77 1    
   149   75  196 1    
   150   76  197 1    
   151   76  198 1    
   152   76  199 1    
   153   77   78 2    
   154   77   79 am   BACKBONE|DICT|INTERRES
   155   79   80 1    
   156   79  200 1    
   157   80   81 1    
   158   80   82 1    
   159   80  201 1    
   160   81  202 1    
   161   81  203 1    
   162   81  204 1    
   163   82   83 2    
   164   82   84 am   BACKBONE|DICT|INTERRES
   165   84   85 1    
   166   84  205 1    
   167   85   86 1    
   168   85   87 1    
   169   85  206 1    
   170   86  207 1    
   171   86  208 1    
   172   86  209 1    
   173   87   88 2    
   174   87   89 am   BACKBONE|DICT|INTERRES
   175   89   90 1    
   176   89  210 1    
   177   90   91 1    
   178   90   92 1    
   179   90  211 1    
   180   91  212 1    
   181   91  213 1    
   182   91  214 1    
   183   92   93 2    
   184   92   94 am   BACKBONE|DICT|INTERRES
   185   94   95 1    
   186   94  215 1    
   187   95   96 1    
   188   95   97 1    
   189   95  216 1    
   190   96  217 1    
   191   96  218 1    
   192   96  219 1    
   193   97   98 2    
   194   97   99 am   BACKBONE|DICT|INTERRES
   195   99  100 1    
   196   99  220 1    
   197  100  101 1    
   198  100  102 1    
   199  100  221 1    
   200  101  222 1    
   201  101  223 1    
   202  101  224 1    
   203  102  103 2    
   204  102  104 am   BACKBONE|DICT|INTERRES
   205  104  105 1    
   206  104  225 1    
   207  105  106 1    
   208  105  107 1    
   209  105  226 1    
   210  106  227 1    
   211  106  228 1    
   212  106  229 1    
   213  107  108 2    
   214  107  109 am   BACKBONE|DICT|INTERRES
   215  109  110 1    
   216  109  230 1    
   217  110  111 1    
   218  110  112 1    
   219  110  231 1    
   220  111  232 1    
   221  111  233 1    
   222  111  234 1    
   223  112  113 2    
   224  112  114 am   BACKBONE|DICT|INTERRES
   225  114  115 1    
   226  114  235 1    
   227  115  116 1    
   228  115  117 1    
   229  115  236 1    
   230  116  237 1    
   231  116  238 1    
   232  116  239 1    
   233  117  118 2    
   234  117  119 am   BACKBONE|DICT|INTERRES
   235  119  120 1    
   236  119  240 1    
   237  120  121 1    
   238  120  124 1    
   239  120  241 1    
   240  121  122 am   BACKBONE|DICT|INTERRES
   241  121  123 2    
   242  122  242 1    
   243  122  243 1    
   244  124  125 1    
   245  124  244 1    
   246  124  245 1    
   247  125  126 1    
   248  126  246 1    
   249  126  247 1    
@<TRIPOS>SUBSTRUCTURE
     1 UNK         1 GROUP             0       ****    0 ROOT    
