@<TRIPOS>MOLECULE
3R540
247   249    1
SMALL
USER_CHARGES


@<TRIPOS>ATOM
      1 CA          1.9531  -15.5227  -47.4432 C.3       0 UNK        -0.1800 
      2 C           1.1052  -14.7029  -46.4829 C.2       0 UNK         0.5000 
      3 O           1.5711  -14.3622  -45.3969 O.2       0 UNK        -0.5000 
      4 N          -0.1251  -14.3658  -46.8934 N.am      1 UNK        -0.5000 
      5 CA         -1.1641  -13.6867  -46.1015 C.3       1 UNK         0.1400 
      6 C6         -2.4652  -13.4707  -46.9167 C.3       23 UNK        -0.0398 
      7 S7         -3.1622  -15.0337  -47.5483 S.3       23 UNK        -0.2404 
      8 C8         -2.7559  -14.9403  -49.3227 C.3       23 UNK        -0.0205 
      9 C9         -2.6204  -16.3394  -49.8975 C.ar      23 UNK        -0.0193 
     10 C10        -3.6767  -16.9406  -50.5872 C.ar      23 UNK        -0.1150 
     11 C11        -3.5683  -18.2610  -51.0360 C.ar      23 UNK        -0.0193 
     12 C12        -2.3953  -18.9792  -50.7827 C.ar      23 UNK        -0.1150 
     13 C13        -1.3280  -18.3850  -50.1029 C.ar      23 UNK        -0.0193 
     14 C14        -1.4396  -17.0541  -49.6911 C.ar      23 UNK        -0.1150 
     15 C15        -0.0813  -19.2025  -49.7745 C.3       23 UNK        -0.0205 
     16 S16         0.5400  -18.9578  -48.0689 S.3       23 UNK        -0.2404 
     17 C17        -0.9591  -19.2402  -47.0641 C.3       23 UNK        -0.0398 
     18 CA         -1.0727  -20.7094  -46.6001 C.3       11 UNK         0.1400 
     19 N          -0.2260  -20.9821  -45.4356 N.am      11 UNK        -0.5000 
     20 C           0.0495  -22.1945  -44.9379 C.2       10 UNK         0.5000 
     21 O          -0.3847  -23.2434  -45.4147 O.2       10 UNK        -0.5000 
     22 CA          0.8954  -22.2273  -43.6511 C.3       10 UNK         0.1400 
     23 CB          2.3878  -22.0410  -43.9638 C.3       10 UNK        -0.1800 
     24 N           0.4597  -21.2159  -42.6843 N.am      10 UNK        -0.5000 
     25 C          -0.7277  -21.2388  -42.0621 C.2       9 UNK         0.5000 
     26 O          -1.5345  -22.1599  -42.1795 O.2       9 UNK        -0.5000 
     27 CA         -1.0992  -20.0234  -41.1931 C.3       9 UNK         0.1400 
     28 CB         -0.5097  -20.1630  -39.7819 C.3       9 UNK        -0.1800 
     29 N          -0.6829  -18.7495  -41.7813 N.am      9 UNK        -0.5000 
     30 C          -1.1762  -18.2347  -42.9177 C.2       8 UNK         0.5000 
     31 O          -2.0737  -18.7616  -43.5744 O.2       8 UNK        -0.5000 
     32 CA         -0.5271  -16.9347  -43.4315 C.3       8 UNK         0.1400 
     33 CB         -1.0948  -15.7111  -42.6969 C.3       8 UNK        -0.1800 
     34 N           0.9295  -16.9457  -43.3041 N.am      8 UNK        -0.5000 
     35 C           1.7441  -17.8241  -43.9046 C.2       7 UNK         0.5000 
     36 O           1.3552  -18.7028  -44.6716 O.2       7 UNK        -0.5000 
     37 CA          3.2323  -17.7617  -43.5228 C.3       7 UNK         0.1400 
     38 CB          3.9615  -16.6343  -44.2674 C.3       7 UNK        -0.1800 
     39 N           3.4091  -17.5991  -42.0803 N.am      7 UNK        -0.5000 
     40 C           3.1224  -18.5446  -41.1744 C.2       6 UNK         0.5000 
     41 O           2.7216  -19.6713  -41.4659 O.2       6 UNK        -0.5000 
     42 CA          3.2758  -18.1508  -39.6938 C.3       6 UNK         0.1400 
     43 CB          4.7294  -18.3347  -39.2333 C.3       6 UNK        -0.1800 
     44 N           2.8558  -16.7728  -39.4335 N.am      6 UNK        -0.5000 
     45 C           1.5901  -16.3381  -39.5165 C.2       5 UNK         0.5000 
     46 O           0.6346  -17.0653  -39.7829 O.2       5 UNK        -0.5000 
     47 CA          1.3658  -14.8261  -39.3220 C.3       5 UNK         0.1400 
     48 CB          1.2353  -14.4841  -37.8304 C.3       5 UNK        -0.1800 
     49 N           2.4304  -14.0140  -39.9200 N.am      5 UNK        -0.5000 
     50 C           2.6985  -13.9811  -41.2312 C.2       4 UNK         0.5000 
     51 O           2.0579  -14.6127  -42.0736 O.2       4 UNK        -0.5000 
     52 CA          3.9228  -13.1686  -41.6650 C.3       4 UNK         0.1400 
     53 CB          5.2088  -13.9793  -41.4001 C.3       4 UNK        -0.1800 
     54 N           3.7942  -12.8582  -43.0858 N.am      4 UNK        -0.5000 
     55 C           4.5752  -12.0230  -43.7798 C.2       3 UNK         0.5000 
     56 O           5.5028  -11.3787  -43.2883 O.2       3 UNK        -0.5000 
     57 CA          4.2563  -11.8701  -45.2748 C.3       3 UNK         0.1400 
     58 CB          4.7292  -13.0993  -46.0669 C.3       3 UNK        -0.1800 
     59 N           2.8286  -11.6471  -45.5070 N.am      3 UNK        -0.5000 
     60 C           2.2311  -10.4525  -45.3806 C.2       2 UNK         0.5000 
     61 O           2.8285   -9.4364  -45.0219 O.2       2 UNK        -0.5000 
     62 CA          0.7341  -10.3455  -45.7352 C.3       2 UNK         0.1400 
     63 CB          0.5132   -9.3162  -46.8573 C.3       2 UNK        -0.1800 
     64 N           0.1675  -11.6231  -46.1692 N.am      2 UNK        -0.5000 
     65 C          -0.7153  -12.3493  -45.4724 C.2       1 UNK         0.5000 
     66 O          -1.1751  -12.0113  -44.3811 O.2       1 UNK        -0.5000 
     67 C          -2.5528  -21.1082  -46.4150 C.2       11 UNK         0.5000 
     68 O          -3.2582  -21.2211  -47.4157 O.2       11 UNK        -0.5000 
     69 N          -3.0015  -21.3376  -45.1726 N.am      12 UNK        -0.5000 
     70 CA         -4.3454  -21.8241  -44.8534 C.3       12 UNK         0.1400 
     71 CB         -4.6448  -21.5587  -43.3700 C.3       12 UNK        -0.1800 
     72 C          -4.5647  -23.3124  -45.2037 C.2       12 UNK         0.5000 
     73 O          -5.7064  -23.7743  -45.1445 O.2       12 UNK        -0.5000 
     74 N          -3.4985  -24.0313  -45.5751 N.am      13 UNK        -0.5000 
     75 CA         -3.5428  -25.3965  -46.0852 C.3       13 UNK         0.1400 
     76 CB         -3.3238  -26.3845  -44.9238 C.3       13 UNK        -0.1800 
     77 C          -2.5047  -25.5324  -47.2112 C.2       13 UNK         0.5000 
     78 O          -1.5490  -26.3008  -47.0833 O.2       13 UNK        -0.5000 
     79 N          -2.6912  -24.7568  -48.2852 N.am      14 UNK        -0.5000 
     80 CA         -1.7981  -24.7001  -49.4400 C.3       14 UNK         0.1400 
     81 CB         -0.6309  -23.7301  -49.1537 C.3       14 UNK        -0.1800 
     82 C          -2.5992  -24.3487  -50.7080 C.2       14 UNK         0.5000 
     83 O          -3.7186  -24.8327  -50.8814 O.2       14 UNK        -0.5000 
     84 N          -2.0067  -23.5328  -51.5849 N.am      15 UNK        -0.5000 
     85 CA         -2.5709  -23.0215  -52.8256 C.3       15 UNK         0.1400 
     86 CB         -2.5974  -24.1275  -53.8959 C.3       15 UNK        -0.1800 
     87 C          -1.7071  -21.8364  -53.2779 C.2       15 UNK         0.5000 
     88 O          -0.5519  -21.7241  -52.8583 O.2       15 UNK        -0.5000 
     89 N          -2.2697  -20.9852  -54.1383 N.am      16 UNK        -0.5000 
     90 CA         -1.5891  -19.8553  -54.7630 C.3       16 UNK         0.1400 
     91 CB         -2.5846  -18.6903  -54.9068 C.3       16 UNK        -0.1800 
     92 C          -1.0308  -20.3196  -56.1167 C.2       16 UNK         0.5000 
     93 O          -1.6317  -20.0458  -57.1551 O.2       16 UNK        -0.5000 
     94 N           0.0704  -21.0841  -56.0725 N.am      17 UNK        -0.5000 
     95 CA          0.7265  -21.7341  -57.2167 C.3       17 UNK         0.1400 
     96 CB          1.3723  -20.6864  -58.1479 C.3       17 UNK        -0.1800 
     97 C          -0.2275  -22.7000  -57.9540 C.2       17 UNK         0.5000 
     98 O          -0.3907  -22.6150  -59.1719 O.2       17 UNK        -0.5000 
     99 N          -0.8695  -23.5721  -57.1630 N.am      18 UNK        -0.5000 
    100 CA        -1.8814  -24.5736  -57.5286 C.3       18 UNK         0.1400 
    101 CB        -1.3907  -25.5069  -58.6551 C.3       18 UNK        -0.1800 
    102 C         -3.2876  -24.0039  -57.8190 C.2       18 UNK         0.5000 
    103 O         -4.2135  -24.7935  -58.0111 O.2       18 UNK        -0.5000 
    104 N         -3.4533  -22.6744  -57.8082 N.am      19 UNK        -0.5000 
    105 CA        -4.7500  -22.0035  -57.9071 C.3       19 UNK         0.1400 
    106 CB        -4.5818  -20.6991  -58.7024 C.3       19 UNK        -0.1800 
    107 C         -5.3162  -21.7102  -56.5065 C.2       19 UNK         0.5000 
    108 O         -4.5801  -21.7448  -55.5155 O.2       19 UNK        -0.5000 
    109 N         -6.6198  -21.4080  -56.4528 N.am      20 UNK        -0.5000 
    110 CA        -7.4243  -20.9927  -55.2926 C.3       20 UNK         0.1400 
    111 CB        -6.8777  -19.6915  -54.6759 C.3       20 UNK        -0.1800 
    112 C         -7.6403  -22.0698  -54.2085 C.2       20 UNK         0.5000 
    113 O         -8.7530  -22.1731  -53.6913 O.2       20 UNK        -0.5000 
    114 N         -6.5959  -22.8514  -53.8990 N.am      21 UNK        -0.5000 
    115 CA        -6.5536  -23.9475  -52.9225 C.3       21 UNK         0.1400 
    116 CB        -7.3881  -25.1451  -53.4218 C.3       21 UNK        -0.1800 
    117 C         -6.9316  -23.4932  -51.4951 C.2       21 UNK         0.5000 
    118 O         -7.7731  -24.1167  -50.8443 O.2       21 UNK        -0.5000 
    119 N         -6.3216  -22.3821  -51.0621 N.am      22 UNK        -0.5000 
    120 CA        -6.5027  -21.7526  -49.7448 C.3       22 UNK         0.1400 
    121 C         -6.2063  -22.6985  -48.5475 C.2       22 UNK         0.5000 
    122 N         -6.9996  -22.6284  -47.4871 N.am      22 UNK        -0.7600 
    123 O         -5.2406  -23.4561  -48.5486 O.2       22 UNK        -0.5000 
    124 C124       -5.6544  -20.4622  -49.6197 C.3       23 UNK        -0.0398 
    125 S125       -6.1955  -19.1606  -50.7787 S.3       23 UNK        -0.2404 
    126 C126       -4.7133  -18.9064  -51.8041 C.3       23 UNK        -0.0205 
    127 H127        2.1241  -16.5162  -47.0297 H         1 UNK         0.0600 
    128 H128        2.9199  -15.0453  -47.5983 H         1 UNK         0.0600 
    129 H129        1.4735  -15.6372  -48.4150 H         1 UNK         0.0600 
    130 H130       -0.4310  -14.6806  -47.8011 H         1 UNK         0.3000 
    131 H131       -1.4011  -14.3551  -45.2728 H         1 UNK         0.0600 
    132 H132       -3.2310  -13.0090  -46.2903 H         1 UNK         0.0800 
    133 H133       -2.2975  -12.7790  -47.7442 H         1 UNK         0.0800 
    134 H134       -1.8233  -14.3957  -49.4758 H         1 UNK         0.0800 
    135 H135       -3.5325  -14.3788  -49.8443 H         1 UNK         0.0800 
    136 H136       -4.5922  -16.3913  -50.7567 H         1 UNK         0.1150 
    137 H137       -2.3162  -20.0068  -51.1047 H         1 UNK         0.1150 
    138 H138       -0.6254  -16.5913  -49.1540 H         1 UNK         0.1150 
    139 H139       -0.2768  -20.2663  -49.9181 H         1 UNK         0.0800 
    140 H140        0.7075  -18.9366  -50.4790 H         1 UNK         0.0800 
    141 H141       -1.8359  -18.9287  -47.6316 H         1 UNK         0.0800 
    142 H142       -0.9328  -18.5695  -46.2053 H         1 UNK         0.0800 
    143 H143       -0.7027  -21.3450  -47.4033 H         1 UNK         0.0600 
    144 H144        0.2202  -20.1711  -45.0127 H         1 UNK         0.3000 
    145 H145        0.7674  -23.2103  -43.1931 H         1 UNK         0.0600 
    146 H146        2.9918  -22.1202  -43.0598 H         1 UNK         0.0600 
    147 H147        2.7382  -22.8052  -44.6585 H         1 UNK         0.0600 
    148 H148        2.5902  -21.0699  -44.4156 H         1 UNK         0.0600 
    149 H149        1.1012  -20.4533  -42.4957 H         1 UNK         0.3000 
    150 H150       -2.1873  -20.0056  -41.1026 H         1 UNK         0.0600 
    151 H151       -0.8238  -21.0990  -39.3182 H         1 UNK         0.0600 
    152 H152       -0.8427  -19.3522  -39.1339 H         1 UNK         0.0600 
    153 H153        0.5800  -20.1537  -39.7974 H         1 UNK         0.0600 
    154 H154        0.0086  -18.2157  -41.2638 H         1 UNK         0.3000 
    155 H155       -0.7626  -16.8334  -44.4926 H         1 UNK         0.0600 
    156 H156       -0.9325  -15.7753  -41.6211 H         1 UNK         0.0600 
    157 H157       -2.1688  -15.6207  -42.8631 H         1 UNK         0.0600 
    158 H158       -0.6293  -14.7889  -43.0456 H         1 UNK         0.0600 
    159 H159        1.3405  -16.2065  -42.7390 H         1 UNK         0.3000 
    160 H160        3.6910  -18.7084  -43.8165 H         1 UNK         0.0600 
    161 H161        3.5511  -15.6561  -44.0210 H         1 UNK         0.0600 
    162 H162        3.8766  -16.7625  -45.3465 H         1 UNK         0.0600 
    163 H163        5.0241  -16.6225  -44.0252 H         1 UNK         0.0600 
    164 H164        3.6827  -16.6849  -41.7557 H         1 UNK         0.3000 
    165 H165        2.6436  -18.8177  -39.1038 H         1 UNK         0.0600 
    166 H166        4.8340  -18.1301  -38.1677 H         1 UNK         0.0600 
    167 H167        5.0645  -19.3593  -39.4007 H         1 UNK         0.0600 
    168 H168        5.4108  -17.6743  -39.7711 H         1 UNK         0.0600 
    169 H169        3.5799  -16.1090  -39.2030 H         1 UNK         0.3000 
    170 H170        0.4270  -14.5653  -39.8150 H         1 UNK         0.0600 
    171 H171        0.4365  -15.0642  -37.3662 H         1 UNK         0.0600 
    172 H172        2.1553  -14.6966  -37.2846 H         1 UNK         0.0600 
    173 H173        0.9950  -13.4304  -37.6872 H         1 UNK         0.0600 
    174 H174        3.0007  -13.4750  -39.2841 H         1 UNK         0.3000 
    175 H175        3.9440  -12.2361  -41.0977 H         1 UNK         0.0600 
    176 H176        5.2407  -14.8890  -42.0003 H         1 UNK         0.0600 
    177 H177        6.1033  -13.4006  -41.6287 H         1 UNK         0.0600 
    178 H178        5.2837  -14.2733  -40.3526 H         1 UNK         0.0600 
    179 H179        3.0302  -13.3403  -43.5487 H         1 UNK         0.3000 
    180 H180        4.8128  -11.0078  -45.6490 H         1 UNK         0.0600 
    181 H181        4.2357  -14.0119  -45.7350 H         1 UNK         0.0600 
    182 H182        5.8029  -13.2486  -45.9469 H         1 UNK         0.0600 
    183 H183        4.5345  -12.9804  -47.1328 H         1 UNK         0.0600 
    184 H184        2.2635  -12.4674  -45.6950 H         1 UNK         0.3000 
    185 H185        0.2246   -9.9823  -44.8405 H         1 UNK         0.0600 
    186 H186        0.8781   -8.3303  -46.5664 H         1 UNK         0.0600 
    187 H187        1.0317   -9.6018  -47.7734 H         1 UNK         0.0600 
    188 H188       -0.5464   -9.2107  -47.0908 H         1 UNK         0.0600 
    189 H189        0.4951  -11.9838  -47.0540 H         1 UNK         0.3000 
    190 H190       -2.3706  -21.1995  -44.3947 H         1 UNK         0.3000 
    191 H191       -5.0586  -21.2467  -45.4455 H         1 UNK         0.0600 
    192 H192       -4.0549  -22.2025  -42.7186 H         1 UNK         0.0600 
    193 H193       -5.6949  -21.7508  -43.1473 H         1 UNK         0.0600 
    194 H194       -4.4390  -20.5225  -43.1002 H         1 UNK         0.0600 
    195 H195       -2.5890  -23.5840  -45.6032 H         1 UNK         0.3000 
    196 H196       -4.5183  -25.5982  -46.5332 H         1 UNK         0.0600 
    197 H197       -3.3392  -27.4155  -45.2790 H         1 UNK         0.0600 
    198 H198       -4.1076  -26.2879  -44.1724 H         1 UNK         0.0600 
    199 H199       -2.3653  -26.2173  -44.4308 H         1 UNK         0.0600 
    200 H200       -3.5459  -24.2027  -48.3602 H         1 UNK         0.3000 
    201 H201       -1.3836  -25.6952  -49.6127 H         1 UNK         0.0600 
    202 H202       -0.1612  -23.9391  -48.1922 H         1 UNK         0.0600 
    203 H203       -0.9740  -22.6963  -49.1410 H         1 UNK         0.0600 
    204 H204        0.1490  -23.8134  -49.9113 H         1 UNK         0.0600 
    205 H205       -1.0859  -23.1617  -51.3826 H         1 UNK         0.3000 
    206 H206       -3.5832  -22.6608  -52.6353 H         1 UNK         0.0600 
    207 H207       -1.5962  -24.5048  -54.1062 H         1 UNK         0.0600 
    208 H208       -3.2117  -24.9726  -53.5862 H         1 UNK         0.0600 
    209 H209       -3.0163  -23.7560  -54.8295 H         1 UNK         0.0600 
    210 H210       -3.1860  -21.2072  -54.5260 H         1 UNK         0.3000 
    211 H211       -0.7561  -19.5117  -54.1457 H         1 UNK         0.0600 
    212 H212       -3.4908  -18.9914  -55.4343 H         1 UNK         0.0600 
    213 H213       -2.1402  -17.8619  -55.4597 H         1 UNK         0.0600 
    214 H214       -2.8750  -18.3037  -53.9315 H         1 UNK         0.0600 
    215 H215        0.4692  -21.2827  -55.1638 H         1 UNK         0.3000 
    216 H216        1.5305  -22.3481  -56.8083 H         1 UNK         0.0600 
    217 H217        1.9481  -21.1702  -58.9376 H         1 UNK         0.0600 
    218 H218        2.0561  -20.0396  -57.5982 H         1 UNK         0.0600 
    219 H219        0.6269  -20.0531  -58.6298 H         1 UNK         0.0600 
    220 H220       -0.6600  -23.5262  -56.1764 H         1 UNK         0.3000 
    221 H221       -1.9997  -25.1954  -56.6404 H         1 UNK         0.0600 
    222 H222       -1.3426  -24.9974  -59.6175 H         1 UNK         0.0600 
    223 H223       -0.4015  -25.9081  -58.4347 H         1 UNK         0.0600 
    224 H224       -2.0640  -26.3563  -58.7760 H         1 UNK         0.0600 
    225 H225       -2.6590  -22.0776  -57.6177 H         1 UNK         0.3000 
    226 H226       -5.4584  -22.6390  -58.4423 H         1 UNK         0.0600 
    227 H227       -4.0844  -20.8775  -59.6560 H         1 UNK         0.0600 
    228 H228       -5.5500  -20.2481  -58.9221 H         1 UNK         0.0600 
    229 H229       -3.9999  -19.9592  -58.1534 H         1 UNK         0.0600 
    230 H230       -7.1369  -21.4431  -57.3204 H         1 UNK         0.3000 
    231 H231       -8.4131  -20.7653  -55.6943 H         1 UNK         0.0600 
    232 H232       -6.8430  -18.8900  -55.4136 H         1 UNK         0.0600 
    233 H233       -5.8722  -19.8228  -54.2796 H         1 UNK         0.0600 
    234 H234       -7.5095  -19.3514  -53.8543 H         1 UNK         0.0600 
    235 H235       -5.7306  -22.6525  -54.3942 H         1 UNK         0.3000 
    236 H236       -5.5160  -24.2770  -52.8723 H         1 UNK         0.0600 
    237 H237       -8.4509  -24.9068  -53.4722 H         1 UNK         0.0600 
    238 H238       -7.0675  -25.4609  -54.4146 H         1 UNK         0.0600 
    239 H239       -7.2754  -26.0024  -52.7571 H         1 UNK         0.0600 
    240 H240       -5.6733  -21.9231  -51.6801 H         1 UNK         0.3000 
    241 H241       -7.5558  -21.4713  -49.6839 H         1 UNK         0.0600 
    242 H242       -7.8019  -22.0194  -47.4567 H         1 UNK         0.3800 
    243 H243       -6.7748  -23.2044  -46.6828 H         1 UNK         0.3800 
    244 H244       -5.7319  -20.0458  -48.6134 H         1 UNK         0.0800 
    245 H245       -4.5969  -20.6872  -49.7671 H         1 UNK         0.0800 
    246 H246       -4.9803  -18.2562  -52.6380 H         1 UNK         0.0800 
    247 H247       -4.4052  -19.8565  -52.2423 H         1 UNK         0.0800 
@<TRIPOS>BOND
     1    1    2 1    
     2    1  127 1    
     3    1  128 1    
     4    1  129 1    
     5    2    3 2    
     6    2    4 am   BACKBONE|DICT|INTERRES
     7    4    5 1    
     8    4  130 1    
     9    5    6 1    
    10    5   65 1    
    11    5  131 1    
    12    6    7 1    
    13    6  132 1    
    14    6  133 1    
    15    7    8 1    
    16    8    9 1    
    17    8  134 1    
    18    8  135 1    
    19    9   10 ar   
    20    9   14 ar   
    21   10   11 ar   
    22   10  136 1    
    23   11   12 ar   
    24   11  126 1    
    25   12   13 ar   
    26   12  137 1    
    27   13   14 ar   
    28   13   15 1    
    29   14  138 1    
    30   15   16 1    
    31   15  139 1    
    32   15  140 1    
    33   16   17 1    
    34   17   18 1    
    35   17  141 1    
    36   17  142 1    
    37   18   19 1    
    38   18   67 1    
    39   18  143 1    
    40   19   20 am   BACKBONE|DICT|INTERRES
    41   19  144 1    
    42   20   21 2    
    43   20   22 1    
    44   22   23 1    
    45   22   24 1    
    46   22  145 1    
    47   23  146 1    
    48   23  147 1    
    49   23  148 1    
    50   24   25 am   BACKBONE|DICT|INTERRES
    51   24  149 1    
    52   25   26 2    
    53   25   27 1    
    54   27   28 1    
    55   27   29 1    
    56   27  150 1    
    57   28  151 1    
    58   28  152 1    
    59   28  153 1    
    60   29   30 am   BACKBONE|DICT|INTERRES
    61   29  154 1    
    62   30   31 2    
    63   30   32 1    
    64   32   33 1    
    65   32   34 1    
    66   32  155 1    
    67   33  156 1    
    68   33  157 1    
    69   33  158 1    
    70   34   35 am   BACKBONE|DICT|INTERRES
    71   34  159 1    
    72   35   36 2    
    73   35   37 1    
    74   37   38 1    
    75   37   39 1    
    76   37  160 1    
    77   38  161 1    
    78   38  162 1    
    79   38  163 1    
    80   39   40 am   BACKBONE|DICT|INTERRES
    81   39  164 1    
    82   40   41 2    
    83   40   42 1    
    84   42   43 1    
    85   42   44 1    
    86   42  165 1    
    87   43  166 1    
    88   43  167 1    
    89   43  168 1    
    90   44   45 am   BACKBONE|DICT|INTERRES
    91   44  169 1    
    92   45   46 2    
    93   45   47 1    
    94   47   48 1    
    95   47   49 1    
    96   47  170 1    
    97   48  171 1    
    98   48  172 1    
    99   48  173 1    
   100   49   50 am   BACKBONE|DICT|INTERRES
   101   49  174 1    
   102   50   51 2    
   103   50   52 1    
   104   52   53 1    
   105   52   54 1    
   106   52  175 1    
   107   53  176 1    
   108   53  177 1    
   109   53  178 1    
   110   54   55 am   BACKBONE|DICT|INTERRES
   111   54  179 1    
   112   55   56 2    
   113   55   57 1    
   114   57   58 1    
   115   57   59 1    
   116   57  180 1    
   117   58  181 1    
   118   58  182 1    
   119   58  183 1    
   120   59   60 am   BACKBONE|DICT|INTERRES
   121   59  184 1    
   122   60   61 2    
   123   60   62 1    
   124   62   63 1    
   125   62   64 1    
   126   62  185 1    
   127   63  186 1    
   128   63  187 1    
   129   63  188 1    
   130   64   65 am   BACKBONE|DICT|INTERRES
   131   64  189 1    
   132   65   66 2    
   133   67   68 2    
   134   67   69 am   BACKBONE|DICT|INTERRES
   135   69   70 1    
   136   69  190 1    
   137   70   71 1    
   138   70   72 1    
   139   70  191 1    
   140   71  192 1    
   141   71  193 1    
   142   71  194 1    
   143   72   73 2    
   144   72   74 am   BACKBONE|DICT|INTERRES
   145   74   75 1    
   146   74  195 1    
   147   75   76 1    
   148   75   77 1    
   149   75  196 1    
   150   76  197 1    
   151   76  198 1    
   152   76  199 1    
   153   77   78 2    
   154   77   79 am   BACKBONE|DICT|INTERRES
   155   79   80 1    
   156   79  200 1    
   157   80   81 1    
   158   80   82 1    
   159   80  201 1    
   160   81  202 1    
   161   81  203 1    
   162   81  204 1    
   163   82   83 2    
   164   82   84 am   BACKBONE|DICT|INTERRES
   165   84   85 1    
   166   84  205 1    
   167   85   86 1    
   168   85   87 1    
   169   85  206 1    
   170   86  207 1    
   171   86  208 1    
   172   86  209 1    
   173   87   88 2    
   174   87   89 am   BACKBONE|DICT|INTERRES
   175   89   90 1    
   176   89  210 1    
   177   90   91 1    
   178   90   92 1    
   179   90  211 1    
   180   91  212 1    
   181   91  213 1    
   182   91  214 1    
   183   92   93 2    
   184   92   94 am   BACKBONE|DICT|INTERRES
   185   94   95 1    
   186   94  215 1    
   187   95   96 1    
   188   95   97 1    
   189   95  216 1    
   190   96  217 1    
   191   96  218 1    
   192   96  219 1    
   193   97   98 2    
   194   97   99 am   BACKBONE|DICT|INTERRES
   195   99  100 1    
   196   99  220 1    
   197  100  101 1    
   198  100  102 1    
   199  100  221 1    
   200  101  222 1    
   201  101  223 1    
   202  101  224 1    
   203  102  103 2    
   204  102  104 am   BACKBONE|DICT|INTERRES
   205  104  105 1    
   206  104  225 1    
   207  105  106 1    
   208  105  107 1    
   209  105  226 1    
   210  106  227 1    
   211  106  228 1    
   212  106  229 1    
   213  107  108 2    
   214  107  109 am   BACKBONE|DICT|INTERRES
   215  109  110 1    
   216  109  230 1    
   217  110  111 1    
   218  110  112 1    
   219  110  231 1    
   220  111  232 1    
   221  111  233 1    
   222  111  234 1    
   223  112  113 2    
   224  112  114 am   BACKBONE|DICT|INTERRES
   225  114  115 1    
   226  114  235 1    
   227  115  116 1    
   228  115  117 1    
   229  115  236 1    
   230  116  237 1    
   231  116  238 1    
   232  116  239 1    
   233  117  118 2    
   234  117  119 am   BACKBONE|DICT|INTERRES
   235  119  120 1    
   236  119  240 1    
   237  120  121 1    
   238  120  124 1    
   239  120  241 1    
   240  121  122 am   BACKBONE|DICT|INTERRES
   241  121  123 2    
   242  122  242 1    
   243  122  243 1    
   244  124  125 1    
   245  124  244 1    
   246  124  245 1    
   247  125  126 1    
   248  126  246 1    
   249  126  247 1    
@<TRIPOS>SUBSTRUCTURE
     1 UNK         1 GROUP             0       ****    0 ROOT    
