@<TRIPOS>MOLECULE
3R540
247   249    1
SMALL
USER_CHARGES


@<TRIPOS>ATOM
      1 CA         -4.1613  -15.2358  -50.0177 C.3       0 UNK        -0.1800 
      2 C          -3.3670  -14.1128  -49.3657 C.2       0 UNK         0.5000 
      3 O          -3.9154  -13.0462  -49.0887 O.2       0 UNK        -0.5000 
      4 N          -2.0799  -14.3549  -49.0943 N.am      1 UNK        -0.5000 
      5 CA         -1.1363  -13.4232  -48.4673 C.3       1 UNK         0.1400 
      6 C6          0.3132  -13.6753  -48.9613 C.3       23 UNK        -0.0398 
      7 S7          0.6184  -13.0857  -50.6655 S.3       23 UNK        -0.2404 
      8 C8         -0.0145  -14.4185  -51.7388 C.3       23 UNK        -0.0205 
      9 C9          0.5975  -15.7772  -51.4325 C.ar      23 UNK        -0.0193 
     10 C10         1.8833  -16.0949  -51.8733 C.ar      23 UNK        -0.1150 
     11 C11         2.4345  -17.3497  -51.5985 C.ar      23 UNK        -0.0193 
     12 C12         1.6994  -18.2753  -50.8516 C.ar      23 UNK        -0.1150 
     13 C13         0.4004  -17.9855  -50.4257 C.ar      23 UNK        -0.0193 
     14 C14        -0.1414  -16.7323  -50.7329 C.ar      23 UNK        -0.1150 
     15 C15        -0.3966  -19.0586  -49.6826 C.3       23 UNK        -0.0205 
     16 S16        -1.7352  -18.4033  -48.6258 S.3       23 UNK        -0.2404 
     17 C17        -2.5871  -19.8525  -47.9041 C.3       23 UNK        -0.0398 
     18 CA         -1.9431  -21.2620  -48.0188 C.3       11 UNK         0.1400 
     19 N          -0.6449  -21.3668  -47.3426 N.am      11 UNK        -0.5000 
     20 C           0.1153  -22.4716  -47.2772 C.2       10 UNK         0.5000 
     21 O          -0.1717  -23.5342  -47.8263 O.2       10 UNK        -0.5000 
     22 CA          1.3832  -22.4004  -46.4085 C.3       10 UNK         0.1400 
     23 CB          2.5404  -21.7360  -47.1704 C.3       10 UNK        -0.1800 
     24 N           1.1505  -21.7149  -45.1361 N.am      10 UNK        -0.5000 
     25 C           0.3420  -22.1759  -44.1699 C.2       9 UNK         0.5000 
     26 O          -0.2593  -23.2478  -44.2368 O.2       9 UNK        -0.5000 
     27 CA          0.1324  -21.2732  -42.9407 C.3       9 UNK         0.1400 
     28 CB          1.3123  -21.3961  -41.9654 C.3       9 UNK        -0.1800 
     29 N          -0.0647  -19.8697  -43.2989 N.am      9 UNK        -0.5000 
     30 C          -1.0899  -19.4074  -44.0290 C.2       8 UNK         0.5000 
     31 O          -2.0229  -20.1093  -44.4220 O.2       8 UNK        -0.5000 
     32 CA         -1.0291  -17.9224  -44.4373 C.3       8 UNK         0.1400 
     33 CB         -1.5074  -17.0272  -43.2844 C.3       8 UNK        -0.1800 
     34 N           0.3071  -17.4975  -44.8634 N.am      8 UNK        -0.5000 
     35 C           1.0115  -18.0613  -45.8556 C.2       7 UNK         0.5000 
     36 O           0.6122  -19.0125  -46.5186 O.2       7 UNK        -0.5000 
     37 CA          2.4300  -17.5321  -46.1033 C.3       7 UNK         0.1400 
     38 CB          2.4015  -16.2140  -46.8877 C.3       7 UNK        -0.1800 
     39 N           3.1534  -17.3684  -44.8446 N.am      7 UNK        -0.5000 
     40 C           3.6035  -18.3955  -44.1086 C.2       6 UNK         0.5000 
     41 O           3.5083  -19.5755  -44.4485 O.2       6 UNK        -0.5000 
     42 CA          4.2326  -18.0468  -42.7475 C.3       6 UNK         0.1400 
     43 CB          5.7135  -17.6744  -42.9136 C.3       6 UNK        -0.1800 
     44 N           3.5317  -16.9579  -42.0655 N.am      6 UNK        -0.5000 
     45 C           2.2808  -17.0441  -41.5917 C.2       5 UNK         0.5000 
     46 O           1.5947  -18.0641  -41.6531 O.2       5 UNK        -0.5000 
     47 CA          1.6826  -15.7610  -40.9844 C.3       5 UNK         0.1400 
     48 CB          2.0502  -15.6461  -39.4976 C.3       5 UNK        -0.1800 
     49 N           2.0822  -14.5332  -41.6808 N.am      5 UNK        -0.5000 
     50 C           1.8171  -14.2696  -42.9668 C.2       4 UNK         0.5000 
     51 O           1.2607  -15.0648  -43.7243 O.2       4 UNK        -0.5000 
     52 CA          2.2443  -12.8964  -43.4977 C.3       4 UNK         0.1400 
     53 CB          3.1646  -13.0329  -44.7212 C.3       4 UNK        -0.1800 
     54 N           1.0426  -12.1663  -43.8833 N.am      4 UNK        -0.5000 
     55 C           0.5184  -11.1421  -43.1966 C.2       3 UNK         0.5000 
     56 O           1.0423  -10.6545  -42.1938 O.2       3 UNK        -0.5000 
     57 CA         -0.8152  -10.5533  -43.7018 C.3       3 UNK         0.1400 
     58 CB         -0.5596   -9.2928  -44.5423 C.3       3 UNK        -0.1800 
     59 N          -1.6124  -11.4918  -44.4916 N.am      3 UNK        -0.5000 
     60 C          -2.1977  -12.5996  -44.0165 C.2       2 UNK         0.5000 
     61 O          -2.1862  -12.9205  -42.8278 O.2       2 UNK        -0.5000 
     62 CA         -2.9133  -13.5068  -45.0381 C.3       2 UNK         0.1400 
     63 CB         -4.4356  -13.3204  -44.9494 C.3       2 UNK        -0.1800 
     64 N          -2.4997  -13.3236  -46.4331 N.am      2 UNK        -0.5000 
     65 C          -1.2694  -13.5147  -46.9301 C.2       1 UNK         0.5000 
     66 O          -0.2879  -13.7604  -46.2293 O.2       1 UNK        -0.5000 
     67 C          -2.9307  -22.3075  -47.4641 C.2       11 UNK         0.5000 
     68 O          -3.5131  -23.0712  -48.2382 O.2       11 UNK        -0.5000 
     69 N          -3.0711  -22.3308  -46.1299 N.am      12 UNK        -0.5000 
     70 CA         -3.9375  -23.2446  -45.3883 C.3       12 UNK         0.1400 
     71 CB         -3.9568  -22.8419  -43.9066 C.3       12 UNK        -0.1800 
     72 C          -3.5436  -24.7220  -45.5502 C.2       12 UNK         0.5000 
     73 O          -4.4247  -25.5652  -45.7197 O.2       12 UNK        -0.5000 
     74 N          -2.2335  -25.0033  -45.5203 N.am      13 UNK        -0.5000 
     75 CA         -1.6690  -26.3343  -45.7420 C.3       13 UNK         0.1400 
     76 CB         -0.1737  -26.3253  -45.3903 C.3       13 UNK        -0.1800 
     77 C          -1.8848  -26.8442  -47.1784 C.2       13 UNK         0.5000 
     78 O          -2.1332  -28.0367  -47.3617 O.2       13 UNK        -0.5000 
     79 N          -1.7913  -25.9397  -48.1635 N.am      14 UNK        -0.5000 
     80 CA         -2.0072  -26.2330  -49.5775 C.3       14 UNK         0.1400 
     81 CB         -1.4935  -25.0710  -50.4398 C.3       14 UNK        -0.1800 
     82 C          -3.4735  -26.5715  -49.8973 C.2       14 UNK         0.5000 
     83 O          -3.7216  -27.6215  -50.4920 O.2       14 UNK        -0.5000 
     84 N          -4.4111  -25.7046  -49.4842 N.am      15 UNK        -0.5000 
     85 CA         -5.8547  -25.9061  -49.6808 C.3       15 UNK         0.1400 
     86 CB         -6.2225  -25.8640  -51.1823 C.3       15 UNK        -0.1800 
     87 C          -6.7423  -24.8945  -48.9348 C.2       15 UNK         0.5000 
     88 O          -7.9326  -25.1664  -48.7785 O.2       15 UNK        -0.5000 
     89 N          -6.1924  -23.7292  -48.5579 N.am      16 UNK        -0.5000 
     90 CA         -6.8831  -22.5319  -48.0493 C.3       16 UNK         0.1400 
     91 CB         -7.7330  -22.8390  -46.7975 C.3       16 UNK        -0.1800 
     92 C          -7.6974  -21.7781  -49.1258 C.2       16 UNK         0.5000 
     93 O          -8.3578  -20.7880  -48.8063 O.2       16 UNK        -0.5000 
     94 N          -7.6217  -22.2276  -50.3855 N.am      17 UNK        -0.5000 
     95 CA         -8.2847  -21.6500  -51.5531 C.3       17 UNK         0.1400 
     96 CB         -8.4600  -22.7566  -52.6091 C.3       17 UNK        -0.1800 
     97 C          -7.4906  -20.4409  -52.0836 C.2       17 UNK         0.5000 
     98 O          -6.9046  -20.5102  -53.1656 O.2       17 UNK        -0.5000 
     99 N          -7.4523  -19.3718  -51.2763 N.am      18 UNK        -0.5000 
    100 CA        -6.6396  -18.1644  -51.4484 C.3       18 UNK         0.1400 
    101 CB        -7.1101  -17.3446  -52.6711 C.3       18 UNK        -0.1800 
    102 C         -5.1360  -18.5120  -51.4492 C.2       18 UNK         0.5000 
    103 O         -4.7043  -19.2912  -50.5977 O.2       18 UNK        -0.5000 
    104 N         -4.3624  -17.9592  -52.3925 N.am      19 UNK        -0.5000 
    105 CA        -2.9182  -18.1579  -52.5497 C.3       19 UNK         0.1400 
    106 CB        -2.3525  -16.9952  -53.3846 C.3       19 UNK        -0.1800 
    107 C         -2.5428  -19.5398  -53.1321 C.2       19 UNK         0.5000 
    108 O         -1.7231  -19.6258  -54.0475 O.2       19 UNK        -0.5000 
    109 N         -3.1476  -20.6033  -52.5907 N.am      20 UNK        -0.5000 
    110 CA        -3.1094  -21.9813  -53.0868 C.3       20 UNK         0.1400 
    111 CB        -3.9886  -22.8495  -52.1731 C.3       20 UNK        -0.1800 
    112 C         -1.7038  -22.5984  -53.2248 C.2       20 UNK         0.5000 
    113 O         -1.5107  -23.4775  -54.0650 O.2       20 UNK        -0.5000 
    114 N         -0.7558  -22.1370  -52.4003 N.am      21 UNK        -0.5000 
    115 CA         0.6249  -22.6164  -52.3858 C.3       21 UNK         0.1400 
    116 CB         1.2389  -22.3235  -51.0097 C.3       21 UNK        -0.1800 
    117 C          1.5042  -22.0279  -53.5068 C.2       21 UNK         0.5000 
    118 O          2.5010  -22.6613  -53.8578 O.2       21 UNK        -0.5000 
    119 N          1.1489  -20.8468  -54.0350 N.am      22 UNK        -0.5000 
    120 CA         1.9430  -20.1182  -55.0456 C.3       22 UNK         0.1400 
    121 C          1.1536  -19.7641  -56.3367 C.2       22 UNK         0.5000 
    122 N         -0.1726  -19.7762  -56.3499 N.am      22 UNK        -0.7600 
    123 O          1.7637  -19.4898  -57.3667 O.2       22 UNK        -0.5000 
    124 C124        2.6308  -18.8541  -54.4616 C.3       23 UNK        -0.0398 
    125 S125        3.8164  -19.2424  -53.1235 S.3       23 UNK        -0.2404 
    126 C126        3.8151  -17.7108  -52.1296 C.3       23 UNK        -0.0205 
    127 H127       -4.4166  -14.9698  -51.0433 H         1 UNK         0.0600 
    128 H128       -3.5990  -16.1693  -50.0361 H         1 UNK         0.0600 
    129 H129       -5.0862  -15.4115  -49.4685 H         1 UNK         0.0600 
    130 H130       -1.7089  -15.2759  -49.2704 H         1 UNK         0.3000 
    131 H131       -1.4061  -12.4001  -48.7382 H         1 UNK         0.0600 
    132 H132        0.5834  -14.7266  -48.8683 H         1 UNK         0.0800 
    133 H133        1.0266  -13.1349  -48.3364 H         1 UNK         0.0800 
    134 H134       -1.1012  -14.4558  -51.6629 H         1 UNK         0.0800 
    135 H135        0.1985  -14.1583  -52.7765 H         1 UNK         0.0800 
    136 H136        2.4478  -15.3664  -52.4383 H         1 UNK         0.1150 
    137 H137        2.1392  -19.2360  -50.6299 H         1 UNK         0.1150 
    138 H138       -1.1506  -16.4956  -50.4424 H         1 UNK         0.1150 
    139 H139       -0.8236  -19.7408  -50.4157 H         1 UNK         0.0800 
    140 H140        0.2925  -19.6359  -49.0680 H         1 UNK         0.0800 
    141 H141       -3.5782  -19.8704  -48.3590 H         1 UNK         0.0800 
    142 H142       -2.7643  -19.6072  -46.8572 H         1 UNK         0.0800 
    143 H143       -1.7884  -21.4940  -49.0737 H         1 UNK         0.0600 
    144 H144       -0.2960  -20.5172  -46.8999 H         1 UNK         0.3000 
    145 H145        1.6828  -23.4249  -46.1790 H         1 UNK         0.0600 
    146 H146        3.4472  -21.7107  -46.5660 H         1 UNK         0.0600 
    147 H147        2.7709  -22.2888  -48.0819 H         1 UNK         0.0600 
    148 H148        2.3066  -20.7132  -47.4634 H         1 UNK         0.0600 
    149 H149        1.5974  -20.8147  -45.0156 H         1 UNK         0.3000 
    150 H150       -0.7692  -21.6154  -42.4284 H         1 UNK         0.0600 
    151 H151        1.4758  -22.4354  -41.6779 H         1 UNK         0.0600 
    152 H152        1.1277  -20.8308  -41.0517 H         1 UNK         0.0600 
    153 H153        2.2390  -21.0256  -42.4050 H         1 UNK         0.0600 
    154 H154        0.6348  -19.2120  -42.9681 H         1 UNK         0.3000 
    155 H155       -1.6989  -17.7779  -45.2872 H         1 UNK         0.0600 
    156 H156       -0.9403  -17.2099  -42.3719 H         1 UNK         0.0600 
    157 H157       -2.5584  -17.2110  -43.0593 H         1 UNK         0.0600 
    158 H158       -1.4016  -15.9711  -43.5288 H         1 UNK         0.0600 
    159 H159        0.7001  -16.6869  -44.3890 H         1 UNK         0.3000 
    160 H160        2.9636  -18.2667  -46.7106 H         1 UNK         0.0600 
    161 H161        3.4028  -15.8037  -47.0177 H         1 UNK         0.0600 
    162 H162        1.7877  -15.4634  -46.3916 H         1 UNK         0.0600 
    163 H163        1.9828  -16.3740  -47.8819 H         1 UNK         0.0600 
    164 H164        3.2040  -16.4345  -44.4658 H         1 UNK         0.3000 
    165 H165        4.1727  -18.9365  -42.1167 H         1 UNK         0.0600 
    166 H166        6.1872  -17.5009  -41.9472 H         1 UNK         0.0600 
    167 H167        6.2645  -18.4775  -43.4048 H         1 UNK         0.0600 
    168 H168        5.8388  -16.7739  -43.5162 H         1 UNK         0.0600 
    169 H169        4.0230  -16.0811  -41.9734 H         1 UNK         0.3000 
    170 H170        0.5964  -15.8402  -41.0585 H         1 UNK         0.0600 
    171 H171        1.7456  -16.5391  -38.9501 H         1 UNK         0.0600 
    172 H172        3.1248  -15.5245  -39.3558 H         1 UNK         0.0600 
    173 H173        1.5510  -14.7960  -39.0322 H         1 UNK         0.0600 
    174 H174        2.5376  -13.8273  -41.1201 H         1 UNK         0.3000 
    175 H175        2.7974  -12.3677  -42.7188 H         1 UNK         0.0600 
    176 H176        2.6448  -13.4743  -45.5711 H         1 UNK         0.0600 
    177 H177        3.5401  -12.0591  -45.0358 H         1 UNK         0.0600 
    178 H178        4.0289  -13.6593  -44.4975 H         1 UNK         0.0600 
    179 H179        0.5164  -12.5704  -44.6515 H         1 UNK         0.3000 
    180 H180       -1.4003  -10.2677  -42.8251 H         1 UNK         0.0600 
    181 H181        0.0073   -9.5202  -45.4460 H         1 UNK         0.0600 
    182 H182        0.0085   -8.5536  -43.9759 H         1 UNK         0.0600 
    183 H183       -1.4956   -8.8207  -44.8416 H         1 UNK         0.0600 
    184 H184       -1.6798  -11.3092  -45.4816 H         1 UNK         0.3000 
    185 H185       -2.6842  -14.5382  -44.7691 H         1 UNK         0.0600 
    186 H186       -4.7929  -13.4863  -43.9321 H         1 UNK         0.0600 
    187 H187       -4.7337  -12.3130  -45.2426 H         1 UNK         0.0600 
    188 H188       -4.9584  -14.0269  -45.5945 H         1 UNK         0.0600 
    189 H189       -3.2366  -13.1163  -47.0981 H         1 UNK         0.3000 
    190 H190       -2.5525  -21.6572  -45.5731 H         1 UNK         0.3000 
    191 H191       -4.9463  -23.1283  -45.7826 H         1 UNK         0.0600 
    192 H192       -2.9623  -22.8955  -43.4621 H         1 UNK         0.0600 
    193 H193       -4.6115  -23.4973  -43.3309 H         1 UNK         0.0600 
    194 H194       -4.3234  -21.8230  -43.7806 H         1 UNK         0.0600 
    195 H195       -1.5735  -24.2581  -45.3182 H         1 UNK         0.3000 
    196 H196       -2.1716  -27.0281  -45.0650 H         1 UNK         0.0600 
    197 H197        0.3810  -25.6220  -46.0120 H         1 UNK         0.0600 
    198 H198        0.2684  -27.3118  -45.5346 H         1 UNK         0.0600 
    199 H199       -0.0157  -26.0476  -44.3481 H         1 UNK         0.0600 
    200 H200       -1.5127  -24.9905  -47.9330 H         1 UNK         0.3000 
    201 H201       -1.4095  -27.1119  -49.8287 H         1 UNK         0.0600 
    202 H202       -1.9445  -24.1213  -50.1552 H         1 UNK         0.0600 
    203 H203       -1.7076  -25.2387  -51.4959 H         1 UNK         0.0600 
    204 H204       -0.4135  -24.9666  -50.3413 H         1 UNK         0.0600 
    205 H205       -4.1144  -24.8931  -48.9538 H         1 UNK         0.3000 
    206 H206       -6.1088  -26.8922  -49.2867 H         1 UNK         0.0600 
    207 H207       -7.2972  -25.9826  -51.3281 H         1 UNK         0.0600 
    208 H208       -5.9387  -24.9166  -51.6375 H         1 UNK         0.0600 
    209 H209       -5.7457  -26.6624  -51.7490 H         1 UNK         0.0600 
    210 H210       -5.1944  -23.5885  -48.6885 H         1 UNK         0.3000 
    211 H211       -6.0907  -21.8474  -47.7439 H         1 UNK         0.0600 
    212 H212       -8.6641  -23.3451  -47.0534 H         1 UNK         0.0600 
    213 H213       -8.0016  -21.9186  -46.2781 H         1 UNK         0.0600 
    214 H214       -7.1984  -23.4697  -46.0883 H         1 UNK         0.0600 
    215 H215       -7.0322  -23.0262  -50.5588 H         1 UNK         0.3000 
    216 H216       -9.2784  -21.2984  -51.2674 H         1 UNK         0.0600 
    217 H217       -8.9701  -22.3740  -53.4940 H         1 UNK         0.0600 
    218 H218       -9.0593  -23.5802  -52.2202 H         1 UNK         0.0600 
    219 H219       -7.5017  -23.1650  -52.9327 H         1 UNK         0.0600 
    220 H220       -7.9065  -19.4683  -50.3745 H         1 UNK         0.3000 
    221 H221       -6.8060  -17.5551  -50.5591 H         1 UNK         0.0600 
    222 H222       -6.9220  -17.8614  -53.6128 H         1 UNK         0.0600 
    223 H223       -8.1800  -17.1439  -52.6148 H         1 UNK         0.0600 
    224 H224       -6.6087  -16.3770  -52.7144 H         1 UNK         0.0600 
    225 H225       -4.8058  -17.3760  -53.0870 H         1 UNK         0.3000 
    226 H226       -2.4680  -18.1090  -51.5594 H         1 UNK         0.0600 
    227 H227       -2.5777  -16.0332  -52.9249 H         1 UNK         0.0600 
    228 H228       -1.2675  -17.0645  -53.4742 H         1 UNK         0.0600 
    229 H229       -2.7641  -16.9895  -54.3945 H         1 UNK         0.0600 
    230 H230       -3.7922  -20.4147  -51.8280 H         1 UNK         0.3000 
    231 H231       -3.5539  -21.9777  -54.0840 H         1 UNK         0.0600 
    232 H232       -5.0314  -22.5373  -52.2229 H         1 UNK         0.0600 
    233 H233       -3.6726  -22.7877  -51.1314 H         1 UNK         0.0600 
    234 H234       -3.9473  -23.8983  -52.4697 H         1 UNK         0.0600 
    235 H235       -1.0010  -21.4089  -51.7494 H         1 UNK         0.3000 
    236 H236        0.6162  -23.7007  -52.5182 H         1 UNK         0.0600 
    237 H237        2.2679  -22.6807  -50.9526 H         1 UNK         0.0600 
    238 H238        1.2486  -21.2583  -50.7932 H         1 UNK         0.0600 
    239 H239        0.6801  -22.8195  -50.2190 H         1 UNK         0.0600 
    240 H240        0.2842  -20.4112  -53.7424 H         1 UNK         0.3000 
    241 H241        2.7438  -20.7682  -55.4026 H         1 UNK         0.0600 
    242 H242       -0.6512  -19.5557  -57.2081 H         1 UNK         0.3800 
    243 H243       -0.7173  -19.8928  -55.4979 H         1 UNK         0.3800 
    244 H244        3.1831  -18.3213  -55.2376 H         1 UNK         0.0800 
    245 H245        1.8714  -18.1606  -54.0989 H         1 UNK         0.0800 
    246 H246        4.4946  -17.8365  -51.2858 H         1 UNK         0.0800 
    247 H247        4.2224  -16.9006  -52.7364 H         1 UNK         0.0800 
@<TRIPOS>BOND
     1    1    2 1    
     2    1  127 1    
     3    1  128 1    
     4    1  129 1    
     5    2    3 2    
     6    2    4 am   BACKBONE|DICT|INTERRES
     7    4    5 1    
     8    4  130 1    
     9    5    6 1    
    10    5   65 1    
    11    5  131 1    
    12    6    7 1    
    13    6  132 1    
    14    6  133 1    
    15    7    8 1    
    16    8    9 1    
    17    8  134 1    
    18    8  135 1    
    19    9   10 ar   
    20    9   14 ar   
    21   10   11 ar   
    22   10  136 1    
    23   11   12 ar   
    24   11  126 1    
    25   12   13 ar   
    26   12  137 1    
    27   13   14 ar   
    28   13   15 1    
    29   14  138 1    
    30   15   16 1    
    31   15  139 1    
    32   15  140 1    
    33   16   17 1    
    34   17   18 1    
    35   17  141 1    
    36   17  142 1    
    37   18   19 1    
    38   18   67 1    
    39   18  143 1    
    40   19   20 am   BACKBONE|DICT|INTERRES
    41   19  144 1    
    42   20   21 2    
    43   20   22 1    
    44   22   23 1    
    45   22   24 1    
    46   22  145 1    
    47   23  146 1    
    48   23  147 1    
    49   23  148 1    
    50   24   25 am   BACKBONE|DICT|INTERRES
    51   24  149 1    
    52   25   26 2    
    53   25   27 1    
    54   27   28 1    
    55   27   29 1    
    56   27  150 1    
    57   28  151 1    
    58   28  152 1    
    59   28  153 1    
    60   29   30 am   BACKBONE|DICT|INTERRES
    61   29  154 1    
    62   30   31 2    
    63   30   32 1    
    64   32   33 1    
    65   32   34 1    
    66   32  155 1    
    67   33  156 1    
    68   33  157 1    
    69   33  158 1    
    70   34   35 am   BACKBONE|DICT|INTERRES
    71   34  159 1    
    72   35   36 2    
    73   35   37 1    
    74   37   38 1    
    75   37   39 1    
    76   37  160 1    
    77   38  161 1    
    78   38  162 1    
    79   38  163 1    
    80   39   40 am   BACKBONE|DICT|INTERRES
    81   39  164 1    
    82   40   41 2    
    83   40   42 1    
    84   42   43 1    
    85   42   44 1    
    86   42  165 1    
    87   43  166 1    
    88   43  167 1    
    89   43  168 1    
    90   44   45 am   BACKBONE|DICT|INTERRES
    91   44  169 1    
    92   45   46 2    
    93   45   47 1    
    94   47   48 1    
    95   47   49 1    
    96   47  170 1    
    97   48  171 1    
    98   48  172 1    
    99   48  173 1    
   100   49   50 am   BACKBONE|DICT|INTERRES
   101   49  174 1    
   102   50   51 2    
   103   50   52 1    
   104   52   53 1    
   105   52   54 1    
   106   52  175 1    
   107   53  176 1    
   108   53  177 1    
   109   53  178 1    
   110   54   55 am   BACKBONE|DICT|INTERRES
   111   54  179 1    
   112   55   56 2    
   113   55   57 1    
   114   57   58 1    
   115   57   59 1    
   116   57  180 1    
   117   58  181 1    
   118   58  182 1    
   119   58  183 1    
   120   59   60 am   BACKBONE|DICT|INTERRES
   121   59  184 1    
   122   60   61 2    
   123   60   62 1    
   124   62   63 1    
   125   62   64 1    
   126   62  185 1    
   127   63  186 1    
   128   63  187 1    
   129   63  188 1    
   130   64   65 am   BACKBONE|DICT|INTERRES
   131   64  189 1    
   132   65   66 2    
   133   67   68 2    
   134   67   69 am   BACKBONE|DICT|INTERRES
   135   69   70 1    
   136   69  190 1    
   137   70   71 1    
   138   70   72 1    
   139   70  191 1    
   140   71  192 1    
   141   71  193 1    
   142   71  194 1    
   143   72   73 2    
   144   72   74 am   BACKBONE|DICT|INTERRES
   145   74   75 1    
   146   74  195 1    
   147   75   76 1    
   148   75   77 1    
   149   75  196 1    
   150   76  197 1    
   151   76  198 1    
   152   76  199 1    
   153   77   78 2    
   154   77   79 am   BACKBONE|DICT|INTERRES
   155   79   80 1    
   156   79  200 1    
   157   80   81 1    
   158   80   82 1    
   159   80  201 1    
   160   81  202 1    
   161   81  203 1    
   162   81  204 1    
   163   82   83 2    
   164   82   84 am   BACKBONE|DICT|INTERRES
   165   84   85 1    
   166   84  205 1    
   167   85   86 1    
   168   85   87 1    
   169   85  206 1    
   170   86  207 1    
   171   86  208 1    
   172   86  209 1    
   173   87   88 2    
   174   87   89 am   BACKBONE|DICT|INTERRES
   175   89   90 1    
   176   89  210 1    
   177   90   91 1    
   178   90   92 1    
   179   90  211 1    
   180   91  212 1    
   181   91  213 1    
   182   91  214 1    
   183   92   93 2    
   184   92   94 am   BACKBONE|DICT|INTERRES
   185   94   95 1    
   186   94  215 1    
   187   95   96 1    
   188   95   97 1    
   189   95  216 1    
   190   96  217 1    
   191   96  218 1    
   192   96  219 1    
   193   97   98 2    
   194   97   99 am   BACKBONE|DICT|INTERRES
   195   99  100 1    
   196   99  220 1    
   197  100  101 1    
   198  100  102 1    
   199  100  221 1    
   200  101  222 1    
   201  101  223 1    
   202  101  224 1    
   203  102  103 2    
   204  102  104 am   BACKBONE|DICT|INTERRES
   205  104  105 1    
   206  104  225 1    
   207  105  106 1    
   208  105  107 1    
   209  105  226 1    
   210  106  227 1    
   211  106  228 1    
   212  106  229 1    
   213  107  108 2    
   214  107  109 am   BACKBONE|DICT|INTERRES
   215  109  110 1    
   216  109  230 1    
   217  110  111 1    
   218  110  112 1    
   219  110  231 1    
   220  111  232 1    
   221  111  233 1    
   222  111  234 1    
   223  112  113 2    
   224  112  114 am   BACKBONE|DICT|INTERRES
   225  114  115 1    
   226  114  235 1    
   227  115  116 1    
   228  115  117 1    
   229  115  236 1    
   230  116  237 1    
   231  116  238 1    
   232  116  239 1    
   233  117  118 2    
   234  117  119 am   BACKBONE|DICT|INTERRES
   235  119  120 1    
   236  119  240 1    
   237  120  121 1    
   238  120  124 1    
   239  120  241 1    
   240  121  122 am   BACKBONE|DICT|INTERRES
   241  121  123 2    
   242  122  242 1    
   243  122  243 1    
   244  124  125 1    
   245  124  244 1    
   246  124  245 1    
   247  125  126 1    
   248  126  246 1    
   249  126  247 1    
@<TRIPOS>SUBSTRUCTURE
     1 UNK         1 GROUP             0       ****    0 ROOT    
