@<TRIPOS>MOLECULE
3R540
247   249    1
SMALL
USER_CHARGES


@<TRIPOS>ATOM
      1 CA          2.9570  -13.8269  -46.5359 C.3       0 UNK        -0.1800 
      2 C           2.1411  -13.7529  -47.8150 C.2       0 UNK         0.5000 
      3 O           0.9358  -13.5271  -47.7562 O.2       0 UNK        -0.5000 
      4 N           2.7957  -13.9188  -48.9719 N.am      1 UNK        -0.5000 
      5 CA          2.1946  -13.9807  -50.3166 C.3       1 UNK         0.1400 
      6 C6          3.2638  -14.3777  -51.3789 C.3       23 UNK        -0.0398 
      7 S7          2.9552  -16.0038  -52.1504 S.3       23 UNK        -0.2404 
      8 C8          3.6927  -17.1610  -50.9470 C.3       23 UNK        -0.0205 
      9 C9          2.6199  -18.0303  -50.3096 C.ar      23 UNK        -0.0193 
     10 C10         1.8055  -17.5031  -49.3066 C.ar      23 UNK        -0.1150 
     11 C11         0.7495  -18.2460  -48.7789 C.ar      23 UNK        -0.0193 
     12 C12         0.5466  -19.5550  -49.2197 C.ar      23 UNK        -0.1150 
     13 C13         1.3951  -20.1228  -50.1758 C.ar      23 UNK        -0.0193 
     14 C14         2.4186  -19.3486  -50.7329 C.ar      23 UNK        -0.1150 
     15 C15         1.1975  -21.5704  -50.6061 C.3       23 UNK        -0.0205 
     16 S16         2.4102  -22.7098  -49.8477 S.3       23 UNK        -0.2404 
     17 C17         2.1941  -22.4252  -48.0524 C.3       23 UNK        -0.0398 
     18 CA          1.2444  -23.4154  -47.3346 C.3       11 UNK         0.1400 
     19 N           1.2578  -23.2178  -45.8837 N.am      11 UNK        -0.5000 
     20 C           0.7864  -24.1006  -44.9907 C.2       10 UNK         0.5000 
     21 O           0.3529  -25.2113  -45.2965 O.2       10 UNK        -0.5000 
     22 CA          0.7509  -23.6528  -43.5154 C.3       10 UNK         0.1400 
     23 CB          2.0759  -23.9908  -42.8172 C.3       10 UNK        -0.1800 
     24 N           0.4730  -22.2236  -43.3592 N.am      10 UNK        -0.5000 
     25 C          -0.6790  -21.6324  -43.7097 C.2       9 UNK         0.5000 
     26 O          -1.6539  -22.2519  -44.1314 O.2       9 UNK        -0.5000 
     27 CA         -0.7448  -20.0935  -43.6354 C.3       9 UNK         0.1400 
     28 CB         -1.4153  -19.6473  -42.3282 C.3       9 UNK        -0.1800 
     29 N           0.5549  -19.4309  -43.7620 N.am      9 UNK        -0.5000 
     30 C           1.3975  -19.5548  -44.7965 C.2       8 UNK         0.5000 
     31 O           1.1465  -20.2346  -45.7907 O.2       8 UNK        -0.5000 
     32 CA          2.7635  -18.8524  -44.6813 C.3       8 UNK         0.1400 
     33 CB          2.7596  -17.5059  -45.4156 C.3       8 UNK        -0.1800 
     34 N           3.1816  -18.6371  -43.2949 N.am      8 UNK        -0.5000 
     35 C           3.6111  -19.6013  -42.4690 C.2       7 UNK         0.5000 
     36 O           3.6623  -20.7921  -42.7769 O.2       7 UNK        -0.5000 
     37 CA          4.0446  -19.1547  -41.0611 C.3       7 UNK         0.1400 
     38 CB          5.4993  -18.6611  -41.0758 C.3       7 UNK        -0.1800 
     39 N           3.1817  -18.0992  -40.5281 N.am      7 UNK        -0.5000 
     40 C           1.9603  -18.3173  -40.0226 C.2       6 UNK         0.5000 
     41 O           1.4576  -19.4350  -39.9060 O.2       6 UNK        -0.5000 
     42 CA          1.1544  -17.0742  -39.5981 C.3       6 UNK         0.1400 
     43 CB          1.5079  -16.6674  -38.1595 C.3       6 UNK        -0.1800 
     44 N           1.3212  -15.9161  -40.4849 N.am      6 UNK        -0.5000 
     45 C           0.9931  -15.9025  -41.7826 C.2       5 UNK         0.5000 
     46 O           0.6056  -16.8975  -42.3996 O.2       5 UNK        -0.5000 
     47 CA          1.1310  -14.5684  -42.5270 C.3       5 UNK         0.1400 
     48 CB          2.5855  -14.3258  -42.9648 C.3       5 UNK        -0.1800 
     49 N           0.2381  -14.6258  -43.6803 N.am      5 UNK        -0.5000 
     50 C          -0.2791  -13.5841  -44.3363 C.2       4 UNK         0.5000 
     51 O           0.0581  -12.4118  -44.1468 O.2       4 UNK        -0.5000 
     52 CA         -1.4042  -13.9089  -45.3318 C.3       4 UNK         0.1400 
     53 CB         -2.7145  -14.2080  -44.5733 C.3       4 UNK        -0.1800 
     54 N          -1.5697  -12.7772  -46.2387 N.am      4 UNK        -0.5000 
     55 C          -2.3493  -12.7234  -47.3245 C.2       3 UNK         0.5000 
     56 O          -3.1150  -13.6212  -47.6792 O.2       3 UNK        -0.5000 
     57 CA         -2.2556  -11.4379  -48.1552 C.3       3 UNK         0.1400 
     58 CB         -2.6593  -10.2047  -47.3183 C.3       3 UNK        -0.1800 
     59 N          -0.9119  -11.2845  -48.7188 N.am      3 UNK        -0.5000 
     60 C          -0.6003  -10.4217  -49.6986 C.2       2 UNK         0.5000 
     61 O          -1.4240   -9.6786  -50.2346 O.2       2 UNK        -0.5000 
     62 CA          0.8677  -10.3496  -50.1692 C.3       2 UNK         0.1400 
     63 CB          1.6140   -9.2362  -49.4180 C.3       2 UNK        -0.1800 
     64 N           1.6025  -11.6014  -50.0064 N.am      2 UNK        -0.5000 
     65 C           1.4067  -12.7120  -50.7301 C.2       1 UNK         0.5000 
     66 O           0.6346  -12.7654  -51.6880 O.2       1 UNK        -0.5000 
     67 C          -0.2001  -23.3422  -47.8649 C.2       11 UNK         0.5000 
     68 O          -0.5957  -24.2026  -48.6493 O.2       11 UNK        -0.5000 
     69 N          -0.9797  -22.3561  -47.3933 N.am      12 UNK        -0.5000 
     70 CA         -2.3950  -22.2002  -47.7424 C.3       12 UNK         0.1400 
     71 CB         -2.9335  -20.8640  -47.2118 C.3       12 UNK        -0.1800 
     72 C          -3.2606  -23.3758  -47.2560 C.2       12 UNK         0.5000 
     73 O          -4.1379  -23.8206  -47.9910 O.2       12 UNK        -0.5000 
     74 N          -2.9743  -23.8952  -46.0555 N.am      13 UNK        -0.5000 
     75 CA         -3.6158  -25.0880  -45.5012 C.3       13 UNK         0.1400 
     76 CB         -3.1774  -25.2716  -44.0405 C.3       13 UNK        -0.1800 
     77 C          -3.3293  -26.3623  -46.3203 C.2       13 UNK         0.5000 
     78 O          -4.2252  -27.1920  -46.4799 O.2       13 UNK        -0.5000 
     79 N          -2.0966  -26.4896  -46.8297 N.am      14 UNK        -0.5000 
     80 CA         -1.6568  -27.6121  -47.6556 C.3       14 UNK         0.1400 
     81 CB         -0.1214  -27.6811  -47.6445 C.3       14 UNK        -0.1800 
     82 C          -2.1906  -27.5334  -49.0976 C.2       14 UNK         0.5000 
     83 O          -2.7156  -28.5249  -49.6059 O.2       14 UNK        -0.5000 
     84 N          -2.0288  -26.3679  -49.7371 N.am      15 UNK        -0.5000 
     85 CA         -2.3502  -26.1459  -51.1489 C.3       15 UNK         0.1400 
     86 CB         -1.5158  -24.9621  -51.6635 C.3       15 UNK        -0.1800 
     87 C          -3.8441  -25.8925  -51.4215 C.2       15 UNK         0.5000 
     88 O          -4.2721  -26.0822  -52.5595 O.2       15 UNK        -0.5000 
     89 N          -4.5824  -25.4663  -50.3869 N.am      16 UNK        -0.5000 
     90 CA         -5.9214  -24.8678  -50.3798 C.3       16 UNK         0.1400 
     91 CB         -6.9333  -25.5759  -51.3019 C.3       16 UNK        -0.1800 
     92 C          -5.8269  -23.3616  -50.6767 C.2       16 UNK         0.5000 
     93 O          -5.1796  -22.9570  -51.6446 O.2       16 UNK        -0.5000 
     94 N          -6.4770  -22.5540  -49.8286 N.am      17 UNK        -0.5000 
     95 CA         -6.3978  -21.0898  -49.8086 C.3       17 UNK         0.1400 
     96 CB         -7.2582  -20.5642  -48.6501 C.3       17 UNK        -0.1800 
     97 C          -6.8025  -20.4111  -51.1292 C.2       17 UNK         0.5000 
     98 O          -6.1893  -19.4154  -51.5146 O.2       17 UNK        -0.5000 
     99 N          -7.8028  -20.9833  -51.8123 N.am      18 UNK        -0.5000 
    100 CA        -8.2927  -20.5202  -53.1107 C.3       18 UNK         0.1400 
    101 CB        -9.6485  -21.1820  -53.4001 C.3       18 UNK        -0.1800 
    102 C         -7.3051  -20.7894  -54.2619 C.2       18 UNK         0.5000 
    103 O         -7.2559  -20.0034  -55.2082 O.2       18 UNK        -0.5000 
    104 N         -6.5357  -21.8821  -54.1615 N.am      19 UNK        -0.5000 
    105 CA        -5.5055  -22.2554  -55.1312 C.3       19 UNK         0.1400 
    106 CB        -5.2851  -23.7735  -55.0856 C.3       19 UNK        -0.1800 
    107 C         -4.1917  -21.5018  -54.8682 C.2       19 UNK         0.5000 
    108 O         -3.5344  -21.0768  -55.8189 O.2       19 UNK        -0.5000 
    109 N         -3.8509  -21.3229  -53.5837 N.am      20 UNK        -0.5000 
    110 CA        -2.7154  -20.5223  -53.1234 C.3       20 UNK         0.1400 
    111 CB        -2.5072  -20.7641  -51.6192 C.3       20 UNK        -0.1800 
    112 C         -2.8948  -19.0159  -53.3917 C.2       20 UNK         0.5000 
    113 O         -1.8984  -18.3142  -53.5647 O.2       20 UNK        -0.5000 
    114 N         -4.1573  -18.5579  -53.3968 N.am      21 UNK        -0.5000 
    115 CA        -4.6048  -17.1627  -53.4522 C.3       21 UNK         0.1400 
    116 CB        -4.2641  -16.5229  -54.8139 C.3       21 UNK        -0.1800 
    117 C         -4.0718  -16.3682  -52.2428 C.2       21 UNK         0.5000 
    118 O         -3.5205  -15.2775  -52.4009 O.2       21 UNK        -0.5000 
    119 N         -4.2041  -16.9726  -51.0575 N.am      22 UNK        -0.5000 
    120 CA        -3.5687  -16.5372  -49.8131 C.3       22 UNK         0.1400 
    121 C         -4.4260  -16.9595  -48.5948 C.2       22 UNK         0.5000 
    122 N         -4.5527  -16.1020  -47.5925 N.am      22 UNK        -0.7600 
    123 O         -4.9507  -18.0686  -48.5406 O.2       22 UNK        -0.5000 
    124 C124       -2.1251  -17.0931  -49.7281 C.3       23 UNK        -0.0398 
    125 S125       -1.1143  -16.2348  -48.4810 S.3       23 UNK        -0.2404 
    126 C126       -0.1823  -17.6148  -47.7562 C.3       23 UNK        -0.0205 
    127 H127        2.5411  -14.5943  -45.8860 H         1 UNK         0.0600 
    128 H128        4.0016  -14.0714  -46.7290 H         1 UNK         0.0600 
    129 H129        2.9165  -12.8736  -46.0092 H         1 UNK         0.0600 
    130 H130        3.7946  -14.0633  -48.9402 H         1 UNK         0.3000 
    131 H131        1.4317  -14.7597  -50.2732 H         1 UNK         0.0600 
    132 H132        3.3131  -13.6531  -52.1943 H         1 UNK         0.0800 
    133 H133        4.2708  -14.3764  -50.9596 H         1 UNK         0.0800 
    134 H134        4.2370  -16.6219  -50.1707 H         1 UNK         0.0800 
    135 H135        4.4286  -17.7818  -51.4602 H         1 UNK         0.0800 
    136 H136        1.9634  -16.4956  -48.9585 H         1 UNK         0.1150 
    137 H137       -0.2633  -20.1372  -48.8080 H         1 UNK         0.1150 
    138 H138        3.0565  -19.7742  -51.4948 H         1 UNK         0.1150 
    139 H139        0.1873  -21.9068  -50.3703 H         1 UNK         0.0800 
    140 H140        1.2863  -21.6375  -51.6913 H         1 UNK         0.0800 
    141 H141        1.8940  -21.3971  -47.8729 H         1 UNK         0.0800 
    142 H142        3.1861  -22.5080  -47.6068 H         1 UNK         0.0800 
    143 H143        1.6119  -24.4248  -47.5331 H         1 UNK         0.0600 
    144 H144        1.5248  -22.2948  -45.5630 H         1 UNK         0.3000 
    145 H145       -0.0481  -24.2072  -43.0189 H         1 UNK         0.0600 
    146 H146        2.0431  -23.7292  -41.7594 H         1 UNK         0.0600 
    147 H147        2.2897  -25.0584  -42.8821 H         1 UNK         0.0600 
    148 H148        2.9152  -23.4596  -43.2679 H         1 UNK         0.0600 
    149 H149        1.2338  -21.6440  -43.0313 H         1 UNK         0.3000 
    150 H150       -1.3631  -19.7541  -44.4682 H         1 UNK         0.0600 
    151 H151       -2.3930  -20.1159  -42.2091 H         1 UNK         0.0600 
    152 H152       -1.5699  -18.5684  -42.3118 H         1 UNK         0.0600 
    153 H153       -0.8140  -19.9135  -41.4583 H         1 UNK         0.0600 
    154 H154        0.7973  -18.7758  -43.0261 H         1 UNK         0.3000 
    155 H155        3.5038  -19.4955  -45.1618 H         1 UNK         0.0600 
    156 H156        2.6271  -17.6540  -46.4868 H         1 UNK         0.0600 
    157 H157        1.9576  -16.8572  -45.0620 H         1 UNK         0.0600 
    158 H158        3.7046  -16.9787  -45.2846 H         1 UNK         0.0600 
    159 H159        3.1264  -17.6928  -42.9462 H         1 UNK         0.3000 
    160 H160        3.9897  -20.0241  -40.4021 H         1 UNK         0.0600 
    161 H161        5.6226  -17.7812  -41.7083 H         1 UNK         0.0600 
    162 H162        6.1693  -19.4342  -41.4545 H         1 UNK         0.0600 
    163 H163        5.8375  -18.4031  -40.0720 H         1 UNK         0.0600 
    164 H164        3.5250  -17.1513  -40.5746 H         1 UNK         0.3000 
    165 H165        0.0985  -17.3524  -39.6204 H         1 UNK         0.0600 
    166 H166        0.8681  -15.8570  -37.8098 H         1 UNK         0.0600 
    167 H167        1.3740  -17.5041  -37.4725 H         1 UNK         0.0600 
    168 H168        2.5442  -16.3376  -38.0769 H         1 UNK         0.0600 
    169 H169        1.6458  -15.0633  -40.0520 H         1 UNK         0.3000 
    170 H170        0.8060  -13.7640  -41.8640 H         1 UNK         0.0600 
    171 H171        3.2460  -14.2547  -42.1001 H         1 UNK         0.0600 
    172 H172        2.9594  -15.1325  -43.5942 H         1 UNK         0.0600 
    173 H173        2.6820  -13.3923  -43.5187 H         1 UNK         0.0600 
    174 H174       -0.1091  -15.5605  -43.8602 H         1 UNK         0.3000 
    175 H175       -1.1059  -14.7814  -45.9145 H         1 UNK         0.0600 
    176 H176       -3.0676  -13.3324  -44.0274 H         1 UNK         0.0600 
    177 H177       -3.5098  -14.5247  -45.2465 H         1 UNK         0.0600 
    178 H178       -2.5773  -15.0125  -43.8500 H         1 UNK         0.0600 
    179 H179       -0.9630  -11.9975  -46.0184 H         1 UNK         0.3000 
    180 H180       -2.9634  -11.5397  -48.9807 H         1 UNK         0.0600 
    181 H181       -1.9154   -9.9705  -46.5562 H         1 UNK         0.0600 
    182 H182       -3.6101  -10.3715  -46.8103 H         1 UNK         0.0600 
    183 H183       -2.7839   -9.3202  -47.9424 H         1 UNK         0.0600 
    184 H184       -0.2079  -11.9321  -48.3736 H         1 UNK         0.3000 
    185 H185        0.8605  -10.0959  -51.2314 H         1 UNK         0.0600 
    186 H186        1.1099   -8.2766  -49.5403 H         1 UNK         0.0600 
    187 H187        1.6725   -9.4420  -48.3483 H         1 UNK         0.0600 
    188 H188        2.6303   -9.1180  -49.7944 H         1 UNK         0.0600 
    189 H189        2.2464  -11.6521  -49.2309 H         1 UNK         0.3000 
    190 H190       -0.5890  -21.7010  -46.7299 H         1 UNK         0.3000 
    191 H191       -2.4665  -22.1782  -48.8320 H         1 UNK         0.0600 
    192 H192       -3.9936  -20.7513  -47.4433 H         1 UNK         0.0600 
    193 H193       -2.4197  -20.0209  -47.6696 H         1 UNK         0.0600 
    194 H194       -2.8269  -20.7833  -46.1306 H         1 UNK         0.0600 
    195 H195       -2.2971  -23.4210  -45.4640 H         1 UNK         0.3000 
    196 H196       -4.6949  -24.9218  -45.5135 H         1 UNK         0.0600 
    197 H197       -3.6664  -26.1369  -43.5916 H         1 UNK         0.0600 
    198 H198       -3.4382  -24.4012  -43.4381 H         1 UNK         0.0600 
    199 H199       -2.1009  -25.4239  -43.9599 H         1 UNK         0.0600 
    200 H200       -1.4084  -25.7754  -46.6273 H         1 UNK         0.3000 
    201 H201       -2.0335  -28.5359  -47.2111 H         1 UNK         0.0600 
    202 H202        0.2578  -27.8231  -46.6322 H         1 UNK         0.0600 
    203 H203        0.3287  -26.7712  -48.0428 H         1 UNK         0.0600 
    204 H204        0.2372  -28.5168  -48.2467 H         1 UNK         0.0600 
    205 H205       -1.5632  -25.5994  -49.2561 H         1 UNK         0.3000 
    206 H206       -2.0598  -27.0328  -51.7162 H         1 UNK         0.0600 
    207 H207       -0.4481  -25.1502  -51.5492 H         1 UNK         0.0600 
    208 H208       -1.7043  -24.7759  -52.7217 H         1 UNK         0.0600 
    209 H209       -1.7525  -24.0465  -51.1221 H         1 UNK         0.0600 
    210 H210       -4.0849  -25.3216  -49.5159 H         1 UNK         0.3000 
    211 H211       -6.2779  -24.9906  -49.3560 H         1 UNK         0.0600 
    212 H212       -6.7369  -25.3779  -52.3561 H         1 UNK         0.0600 
    213 H213       -7.9466  -25.2295  -51.0967 H         1 UNK         0.0600 
    214 H214       -6.9207  -26.6553  -51.1508 H         1 UNK         0.0600 
    215 H215       -6.9776  -22.9749  -49.0596 H         1 UNK         0.3000 
    216 H216       -5.3588  -20.8198  -49.6111 H         1 UNK         0.0600 
    217 H217       -7.2494  -19.4741  -48.6166 H         1 UNK         0.0600 
    218 H218       -6.8833  -20.9187  -47.6898 H         1 UNK         0.0600 
    219 H219       -8.2981  -20.8789  -48.7444 H         1 UNK         0.0600 
    220 H220       -8.2453  -21.8014  -51.4203 H         1 UNK         0.3000 
    221 H221       -8.4460  -19.4404  -53.0522 H         1 UNK         0.0600 
    222 H222       -9.5643  -22.2683  -53.4509 H         1 UNK         0.0600 
    223 H223      -10.3797  -20.9369  -52.6295 H         1 UNK         0.0600 
    224 H224      -10.0548  -20.8392  -54.3526 H         1 UNK         0.0600 
    225 H225       -6.5840  -22.4395  -53.3194 H         1 UNK         0.3000 
    226 H226       -5.8480  -21.9971  -56.1356 H         1 UNK         0.0600 
    227 H227       -6.2062  -24.3145  -55.3022 H         1 UNK         0.0600 
    228 H228       -4.5425  -24.0831  -55.8219 H         1 UNK         0.0600 
    229 H229       -4.9298  -24.0951  -54.1075 H         1 UNK         0.0600 
    230 H230       -4.4096  -21.7791  -52.8661 H         1 UNK         0.3000 
    231 H231       -1.8224  -20.8566  -53.6553 H         1 UNK         0.0600 
    232 H232       -2.3365  -21.8185  -51.4086 H         1 UNK         0.0600 
    233 H233       -3.3713  -20.4431  -51.0367 H         1 UNK         0.0600 
    234 H234       -1.6414  -20.2121  -51.2519 H         1 UNK         0.0600 
    235 H235       -4.8860  -19.2218  -53.1646 H         1 UNK         0.3000 
    236 H236       -5.6915  -17.1822  -53.3576 H         1 UNK         0.0600 
    237 H237       -4.6996  -15.5265  -54.8944 H         1 UNK         0.0600 
    238 H238       -3.1884  -16.4213  -54.9598 H         1 UNK         0.0600 
    239 H239       -4.6595  -17.1184  -55.6369 H         1 UNK         0.0600 
    240 H240       -4.7309  -17.8379  -50.9961 H         1 UNK         0.3000 
    241 H241       -3.5237  -15.4459  -49.8228 H         1 UNK         0.0600 
    242 H242       -4.0719  -15.2033  -47.6130 H         1 UNK         0.3800 
    243 H243       -5.0986  -16.3611  -46.7876 H         1 UNK         0.3800 
    244 H244       -2.1389  -18.1671  -49.5357 H         1 UNK         0.0800 
    245 H245       -1.6130  -16.9687  -50.6836 H         1 UNK         0.0800 
    246 H246       -0.8703  -18.3479  -47.3361 H         1 UNK         0.0800 
    247 H247        0.3971  -17.2291  -46.9199 H         1 UNK         0.0800 
@<TRIPOS>BOND
     1    1    2 1    
     2    1  127 1    
     3    1  128 1    
     4    1  129 1    
     5    2    3 2    
     6    2    4 am   BACKBONE|DICT|INTERRES
     7    4    5 1    
     8    4  130 1    
     9    5    6 1    
    10    5   65 1    
    11    5  131 1    
    12    6    7 1    
    13    6  132 1    
    14    6  133 1    
    15    7    8 1    
    16    8    9 1    
    17    8  134 1    
    18    8  135 1    
    19    9   10 ar   
    20    9   14 ar   
    21   10   11 ar   
    22   10  136 1    
    23   11   12 ar   
    24   11  126 1    
    25   12   13 ar   
    26   12  137 1    
    27   13   14 ar   
    28   13   15 1    
    29   14  138 1    
    30   15   16 1    
    31   15  139 1    
    32   15  140 1    
    33   16   17 1    
    34   17   18 1    
    35   17  141 1    
    36   17  142 1    
    37   18   19 1    
    38   18   67 1    
    39   18  143 1    
    40   19   20 am   BACKBONE|DICT|INTERRES
    41   19  144 1    
    42   20   21 2    
    43   20   22 1    
    44   22   23 1    
    45   22   24 1    
    46   22  145 1    
    47   23  146 1    
    48   23  147 1    
    49   23  148 1    
    50   24   25 am   BACKBONE|DICT|INTERRES
    51   24  149 1    
    52   25   26 2    
    53   25   27 1    
    54   27   28 1    
    55   27   29 1    
    56   27  150 1    
    57   28  151 1    
    58   28  152 1    
    59   28  153 1    
    60   29   30 am   BACKBONE|DICT|INTERRES
    61   29  154 1    
    62   30   31 2    
    63   30   32 1    
    64   32   33 1    
    65   32   34 1    
    66   32  155 1    
    67   33  156 1    
    68   33  157 1    
    69   33  158 1    
    70   34   35 am   BACKBONE|DICT|INTERRES
    71   34  159 1    
    72   35   36 2    
    73   35   37 1    
    74   37   38 1    
    75   37   39 1    
    76   37  160 1    
    77   38  161 1    
    78   38  162 1    
    79   38  163 1    
    80   39   40 am   BACKBONE|DICT|INTERRES
    81   39  164 1    
    82   40   41 2    
    83   40   42 1    
    84   42   43 1    
    85   42   44 1    
    86   42  165 1    
    87   43  166 1    
    88   43  167 1    
    89   43  168 1    
    90   44   45 am   BACKBONE|DICT|INTERRES
    91   44  169 1    
    92   45   46 2    
    93   45   47 1    
    94   47   48 1    
    95   47   49 1    
    96   47  170 1    
    97   48  171 1    
    98   48  172 1    
    99   48  173 1    
   100   49   50 am   BACKBONE|DICT|INTERRES
   101   49  174 1    
   102   50   51 2    
   103   50   52 1    
   104   52   53 1    
   105   52   54 1    
   106   52  175 1    
   107   53  176 1    
   108   53  177 1    
   109   53  178 1    
   110   54   55 am   BACKBONE|DICT|INTERRES
   111   54  179 1    
   112   55   56 2    
   113   55   57 1    
   114   57   58 1    
   115   57   59 1    
   116   57  180 1    
   117   58  181 1    
   118   58  182 1    
   119   58  183 1    
   120   59   60 am   BACKBONE|DICT|INTERRES
   121   59  184 1    
   122   60   61 2    
   123   60   62 1    
   124   62   63 1    
   125   62   64 1    
   126   62  185 1    
   127   63  186 1    
   128   63  187 1    
   129   63  188 1    
   130   64   65 am   BACKBONE|DICT|INTERRES
   131   64  189 1    
   132   65   66 2    
   133   67   68 2    
   134   67   69 am   BACKBONE|DICT|INTERRES
   135   69   70 1    
   136   69  190 1    
   137   70   71 1    
   138   70   72 1    
   139   70  191 1    
   140   71  192 1    
   141   71  193 1    
   142   71  194 1    
   143   72   73 2    
   144   72   74 am   BACKBONE|DICT|INTERRES
   145   74   75 1    
   146   74  195 1    
   147   75   76 1    
   148   75   77 1    
   149   75  196 1    
   150   76  197 1    
   151   76  198 1    
   152   76  199 1    
   153   77   78 2    
   154   77   79 am   BACKBONE|DICT|INTERRES
   155   79   80 1    
   156   79  200 1    
   157   80   81 1    
   158   80   82 1    
   159   80  201 1    
   160   81  202 1    
   161   81  203 1    
   162   81  204 1    
   163   82   83 2    
   164   82   84 am   BACKBONE|DICT|INTERRES
   165   84   85 1    
   166   84  205 1    
   167   85   86 1    
   168   85   87 1    
   169   85  206 1    
   170   86  207 1    
   171   86  208 1    
   172   86  209 1    
   173   87   88 2    
   174   87   89 am   BACKBONE|DICT|INTERRES
   175   89   90 1    
   176   89  210 1    
   177   90   91 1    
   178   90   92 1    
   179   90  211 1    
   180   91  212 1    
   181   91  213 1    
   182   91  214 1    
   183   92   93 2    
   184   92   94 am   BACKBONE|DICT|INTERRES
   185   94   95 1    
   186   94  215 1    
   187   95   96 1    
   188   95   97 1    
   189   95  216 1    
   190   96  217 1    
   191   96  218 1    
   192   96  219 1    
   193   97   98 2    
   194   97   99 am   BACKBONE|DICT|INTERRES
   195   99  100 1    
   196   99  220 1    
   197  100  101 1    
   198  100  102 1    
   199  100  221 1    
   200  101  222 1    
   201  101  223 1    
   202  101  224 1    
   203  102  103 2    
   204  102  104 am   BACKBONE|DICT|INTERRES
   205  104  105 1    
   206  104  225 1    
   207  105  106 1    
   208  105  107 1    
   209  105  226 1    
   210  106  227 1    
   211  106  228 1    
   212  106  229 1    
   213  107  108 2    
   214  107  109 am   BACKBONE|DICT|INTERRES
   215  109  110 1    
   216  109  230 1    
   217  110  111 1    
   218  110  112 1    
   219  110  231 1    
   220  111  232 1    
   221  111  233 1    
   222  111  234 1    
   223  112  113 2    
   224  112  114 am   BACKBONE|DICT|INTERRES
   225  114  115 1    
   226  114  235 1    
   227  115  116 1    
   228  115  117 1    
   229  115  236 1    
   230  116  237 1    
   231  116  238 1    
   232  116  239 1    
   233  117  118 2    
   234  117  119 am   BACKBONE|DICT|INTERRES
   235  119  120 1    
   236  119  240 1    
   237  120  121 1    
   238  120  124 1    
   239  120  241 1    
   240  121  122 am   BACKBONE|DICT|INTERRES
   241  121  123 2    
   242  122  242 1    
   243  122  243 1    
   244  124  125 1    
   245  124  244 1    
   246  124  245 1    
   247  125  126 1    
   248  126  246 1    
   249  126  247 1    
@<TRIPOS>SUBSTRUCTURE
     1 UNK         1 GROUP             0       ****    0 ROOT    
