@<TRIPOS>MOLECULE
3R540
247   249    1
SMALL
USER_CHARGES


@<TRIPOS>ATOM
      1 CA          5.2861  -12.3137  -47.5770 C.3       0 UNK        -0.1800 
      2 C           5.1986  -12.7207  -49.0413 C.2       0 UNK         0.5000 
      3 O           6.2081  -13.1061  -49.6309 O.2       0 UNK        -0.5000 
      4 N           3.9979  -12.6333  -49.6285 N.am      1 UNK        -0.5000 
      5 CA          3.6945  -13.0186  -51.0139 C.3       1 UNK         0.1400 
      6 C6          2.3082  -12.4950  -51.4754 C.3       23 UNK        -0.0398 
      7 S7          0.9459  -12.8401  -50.3041 S.3       23 UNK        -0.2404 
      8 C8          0.0688  -14.1847  -51.1570 C.3       23 UNK        -0.0205 
      9 C9         -0.8758  -14.9026  -50.2074 C.ar      23 UNK        -0.0193 
     10 C10        -2.2562  -14.7036  -50.2724 C.ar      23 UNK        -0.1150 
     11 C11        -3.1099  -15.3928  -49.4054 C.ar      23 UNK        -0.0193 
     12 C12        -2.5741  -16.2726  -48.4580 C.ar      23 UNK        -0.1150 
     13 C13        -1.1902  -16.4733  -48.3768 C.ar      23 UNK        -0.0193 
     14 C14        -0.3571  -15.7864  -49.2617 C.ar      23 UNK        -0.1150 
     15 C15        -0.5385  -17.4342  -47.3857 C.3       23 UNK        -0.0205 
     16 S16        -1.4896  -17.7861  -45.8702 S.3       23 UNK        -0.2404 
     17 C17        -2.3306  -19.3440  -46.3118 C.3       23 UNK        -0.0398 
     18 CA         -1.3971  -20.5752  -46.2188 C.3       11 UNK         0.1400 
     19 N          -0.7886  -20.7416  -44.8973 N.am      11 UNK        -0.5000 
     20 C           0.2091  -21.5951  -44.6288 C.2       10 UNK         0.5000 
     21 O           0.7452  -22.3103  -45.4739 O.2       10 UNK        -0.5000 
     22 CA          0.6506  -21.6978  -43.1618 C.3       10 UNK         0.1400 
     23 CB          1.6070  -20.5518  -42.7971 C.3       10 UNK        -0.1800 
     24 N          -0.5006  -21.6945  -42.2600 N.am      10 UNK        -0.5000 
     25 C          -1.3538  -22.7198  -42.1270 C.2       9 UNK         0.5000 
     26 O          -1.2383  -23.7875  -42.7298 O.2       9 UNK        -0.5000 
     27 CA         -2.5570  -22.5032  -41.1898 C.3       9 UNK         0.1400 
     28 CB         -2.1649  -22.7873  -39.7323 C.3       9 UNK        -0.1800 
     29 N          -3.1233  -21.1562  -41.2858 N.am      9 UNK        -0.5000 
     30 C          -3.7355  -20.6722  -42.3750 C.2       8 UNK         0.5000 
     31 O          -3.8954  -21.3140  -43.4116 O.2       8 UNK        -0.5000 
     32 CA         -4.2078  -19.2085  -42.3198 C.3       8 UNK         0.1400 
     33 CB         -5.5916  -19.1139  -41.6601 C.3       8 UNK        -0.1800 
     34 N          -3.2869  -18.2828  -41.6519 N.am      8 UNK        -0.5000 
     35 C          -1.9902  -18.1297  -41.9488 C.2       7 UNK         0.5000 
     36 O          -1.3664  -18.8618  -42.7189 O.2       7 UNK        -0.5000 
     37 CA         -1.2731  -16.9288  -41.3179 C.3       7 UNK         0.1400 
     38 CB          0.0145  -17.3595  -40.5985 C.3       7 UNK        -0.1800 
     39 N          -0.9565  -15.9884  -42.3908 N.am      7 UNK        -0.5000 
     40 C          -1.8247  -15.0921  -42.8772 C.2       6 UNK         0.5000 
     41 O          -2.9141  -14.8613  -42.3493 O.2       6 UNK        -0.5000 
     42 CA         -1.4671  -14.3636  -44.1899 C.3       6 UNK         0.1400 
     43 CB         -1.6276  -12.8342  -44.0668 C.3       6 UNK        -0.1800 
     44 N          -0.1725  -14.7156  -44.7893 N.am      6 UNK        -0.5000 
     45 C           1.0571  -14.3907  -44.3682 C.2       5 UNK         0.5000 
     46 O           1.2976  -13.8233  -43.3011 O.2       5 UNK        -0.5000 
     47 CA          2.1987  -14.7514  -45.3378 C.3       5 UNK         0.1400 
     48 CB          2.0731  -13.8994  -46.6146 C.3       5 UNK        -0.1800 
     49 N           3.5161  -14.4831  -44.7596 N.am      5 UNK        -0.5000 
     50 C           4.3046  -15.2543  -43.9946 C.2       4 UNK         0.5000 
     51 O           5.3318  -14.7865  -43.5048 O.2       4 UNK        -0.5000 
     52 CA          3.9842  -16.7420  -43.7058 C.3       4 UNK         0.1400 
     53 CB          2.8416  -16.9155  -42.6948 C.3       4 UNK        -0.1800 
     54 N           3.7508  -17.5989  -44.8683 N.am      4 UNK        -0.5000 
     55 C           4.6100  -17.8299  -45.8700 C.2       3 UNK         0.5000 
     56 O           5.7231  -17.3085  -45.9557 O.2       3 UNK        -0.5000 
     57 CA          4.1734  -18.8491  -46.9503 C.3       3 UNK         0.1400 
     58 CB          2.7872  -19.4876  -46.6943 C.3       3 UNK        -0.1800 
     59 N           4.2311  -18.2847  -48.3035 N.am      3 UNK        -0.5000 
     60 C           3.5561  -17.2112  -48.7297 C.2       2 UNK         0.5000 
     61 O           2.7835  -16.5666  -48.0209 O.2       2 UNK        -0.5000 
     62 CA          3.7468  -16.7928  -50.1923 C.3       2 UNK         0.1400 
     63 CB          2.7528  -17.5347  -51.1070 C.3       2 UNK        -0.1800 
     64 N           3.5405  -15.3505  -50.2564 N.am      2 UNK        -0.5000 
     65 C           3.8599  -14.5351  -51.2666 C.2       1 UNK         0.5000 
     66 O           4.3022  -14.9252  -52.3481 O.2       1 UNK        -0.5000 
     67 C          -2.1139  -21.8590  -46.6818 C.2       11 UNK         0.5000 
     68 O          -1.9577  -22.2477  -47.8389 O.2       11 UNK        -0.5000 
     69 N          -2.8391  -22.5232  -45.7689 N.am      12 UNK        -0.5000 
     70 CA         -3.4722  -23.8237  -45.9931 C.3       12 UNK         0.1400 
     71 CB         -4.3135  -24.2199  -44.7706 C.3       12 UNK        -0.1800 
     72 C          -2.4521  -24.9220  -46.3375 C.2       12 UNK         0.5000 
     73 O          -2.6445  -25.6320  -47.3263 O.2       12 UNK        -0.5000 
     74 N          -1.3692  -25.0015  -45.5479 N.am      13 UNK        -0.5000 
     75 CA         -0.2477  -25.9214  -45.7541 C.3       13 UNK         0.1400 
     76 CB          0.7315  -25.8159  -44.5758 C.3       13 UNK        -0.1800 
     77 C           0.4802  -25.6985  -47.0930 C.2       13 UNK         0.5000 
     78 O           0.8526  -26.6712  -47.7500 O.2       13 UNK        -0.5000 
     79 N           0.6085  -24.4329  -47.5126 N.am      14 UNK        -0.5000 
     80 CA          1.1349  -24.0025  -48.8103 C.3       14 UNK         0.1400 
     81 CB          1.6353  -22.5545  -48.6835 C.3       14 UNK        -0.1800 
     82 C           0.1172  -24.1776  -49.9613 C.2       14 UNK         0.5000 
     83 O          -0.0555  -23.2706  -50.7785 O.2       14 UNK        -0.5000 
     84 N          -0.5348  -25.3482  -50.0053 N.am      15 UNK        -0.5000 
     85 CA         -1.4953  -25.8094  -51.0110 C.3       15 UNK         0.1400 
     86 CB         -0.7585  -26.1401  -52.3259 C.3       15 UNK        -0.1800 
     87 C          -2.6777  -24.8416  -51.2192 C.2       15 UNK         0.5000 
     88 O          -3.0319  -24.5488  -52.3613 O.2       15 UNK        -0.5000 
     89 N          -3.2481  -24.3422  -50.1123 N.am      16 UNK        -0.5000 
     90 CA         -4.3332  -23.3530  -50.0668 C.3       16 UNK         0.1400 
     91 CB         -5.6512  -23.9695  -50.5799 C.3       16 UNK        -0.1800 
     92 C          -3.9553  -22.0431  -50.7903 C.2       16 UNK         0.5000 
     93 O          -4.6646  -21.6013  -51.6971 O.2       16 UNK        -0.5000 
     94 N          -2.8130  -21.4743  -50.3823 N.am      17 UNK        -0.5000 
     95 CA         -2.1632  -20.2801  -50.9273 C.3       17 UNK         0.1400 
     96 CB         -3.0052  -19.0260  -50.6199 C.3       17 UNK        -0.1800 
     97 C          -1.8320  -20.4341  -52.4253 C.2       17 UNK         0.5000 
     98 O          -2.1727  -19.5648  -53.2274 O.2       17 UNK        -0.5000 
     99 N          -1.2081  -21.5686  -52.7760 N.am      18 UNK        -0.5000 
    100 CA        -0.8829  -22.0073  -54.1381 C.3       18 UNK         0.1400 
    101 CB         0.2402  -21.1345  -54.7355 C.3       18 UNK        -0.1800 
    102 C         -2.1335  -22.0966  -55.0418 C.2       18 UNK         0.5000 
    103 O         -2.1366  -21.5830  -56.1620 O.2       18 UNK        -0.5000 
    104 N         -3.1805  -22.7393  -54.5077 N.am      19 UNK        -0.5000 
    105 CA        -4.5018  -22.9753  -55.0936 C.3       19 UNK         0.1400 
    106 CB        -4.3945  -23.8462  -56.3629 C.3       19 UNK        -0.1800 
    107 C         -5.3543  -21.7063  -55.3117 C.2       19 UNK         0.5000 
    108 O         -6.3467  -21.7700  -56.0400 O.2       19 UNK        -0.5000 
    109 N         -4.9960  -20.5857  -54.6674 N.am      20 UNK        -0.5000 
    110 CA        -5.7891  -19.3531  -54.6751 C.3       20 UNK         0.1400 
    111 CB        -4.9127  -18.1667  -54.2502 C.3       20 UNK        -0.1800 
    112 C         -7.0375  -19.4497  -53.7772 C.2       20 UNK         0.5000 
    113 O         -8.0351  -18.7866  -54.0631 O.2       20 UNK        -0.5000 
    114 N         -6.9585  -20.2719  -52.7182 N.am      21 UNK        -0.5000 
    115 CA        -8.0095  -20.5806  -51.7407 C.3       21 UNK         0.1400 
    116 CB        -9.1817  -21.3230  -52.4147 C.3       21 UNK        -0.1800 
    117 C         -8.4693  -19.3715  -50.8965 C.2       21 UNK         0.5000 
    118 O         -9.5728  -19.3886  -50.3484 O.2       21 UNK        -0.5000 
    119 N         -7.6098  -18.3520  -50.7883 N.am      22 UNK        -0.5000 
    120 CA        -7.8333  -17.1243  -50.0089 C.3       22 UNK         0.1400 
    121 C         -7.5569  -17.2587  -48.4816 C.2       22 UNK         0.5000 
    122 N         -7.0235  -18.3725  -47.9939 N.am      22 UNK        -0.7600 
    123 O         -7.8457  -16.3380  -47.7223 O.2       22 UNK        -0.5000 
    124 C124       -7.0900  -15.9160  -50.6361 C.3       23 UNK        -0.0398 
    125 S125       -5.2993  -16.1921  -50.8661 S.3       23 UNK        -0.2404 
    126 C126       -4.6129  -15.1985  -49.5070 C.3       23 UNK        -0.0205 
    127 H127        5.4828  -13.1884  -46.9567 H         1 UNK         0.0600 
    128 H128        4.3635  -11.8480  -47.2302 H         1 UNK         0.0600 
    129 H129        6.0984  -11.6014  -47.4320 H         1 UNK         0.0600 
    130 H130        3.2045  -12.3032  -49.0969 H         1 UNK         0.3000 
    131 H131        4.4407  -12.5290  -51.6435 H         1 UNK         0.0600 
    132 H132        2.3628  -11.4113  -51.5864 H         1 UNK         0.0800 
    133 H133        2.0564  -12.8708  -52.4689 H         1 UNK         0.0800 
    134 H134        0.7870  -14.9028  -51.5553 H         1 UNK         0.0800 
    135 H135       -0.4738  -13.7793  -52.0123 H         1 UNK         0.0800 
    136 H136       -2.6698  -14.0267  -51.0067 H         1 UNK         0.1150 
    137 H137       -3.2425  -16.8072  -47.7994 H         1 UNK         0.1150 
    138 H138        0.7103  -15.9333  -49.2170 H         1 UNK         0.1150 
    139 H139       -0.2908  -18.3584  -47.9071 H         1 UNK         0.0800 
    140 H140        0.4106  -17.0078  -47.0632 H         1 UNK         0.0800 
    141 H141       -2.7421  -19.2458  -47.3163 H         1 UNK         0.0800 
    142 H142       -3.1839  -19.4643  -45.6425 H         1 UNK         0.0800 
    143 H143       -0.5754  -20.4189  -46.9198 H         1 UNK         0.0600 
    144 H144       -1.1379  -20.1458  -44.1512 H         1 UNK         0.3000 
    145 H145        1.1856  -22.6410  -43.0324 H         1 UNK         0.0600 
    146 H146        1.8845  -20.5862  -41.7436 H         1 UNK         0.0600 
    147 H147        1.1650  -19.5760  -42.9970 H         1 UNK         0.0600 
    148 H148        2.5280  -20.6168  -43.3770 H         1 UNK         0.0600 
    149 H149       -0.7216  -20.8148  -41.8139 H         1 UNK         0.3000 
    150 H150       -3.3326  -23.2160  -41.4782 H         1 UNK         0.0600 
    151 H151       -1.7559  -23.7931  -39.6275 H         1 UNK         0.0600 
    152 H152       -3.0289  -22.7187  -39.0710 H         1 UNK         0.0600 
    153 H153       -1.4100  -22.0866  -39.3733 H         1 UNK         0.0600 
    154 H154       -3.0208  -20.5544  -40.4820 H         1 UNK         0.3000 
    155 H155       -4.3037  -18.8662  -43.3522 H         1 UNK         0.0600 
    156 H156       -6.3047  -19.7792  -42.1491 H         1 UNK         0.0600 
    157 H157       -5.9939  -18.1030  -41.7294 H         1 UNK         0.0600 
    158 H158       -5.5545  -19.3898  -40.6055 H         1 UNK         0.0600 
    159 H159       -3.7117  -17.6226  -41.0166 H         1 UNK         0.3000 
    160 H160       -1.9245  -16.4501  -40.5835 H         1 UNK         0.0600 
    161 H161        0.6701  -17.9402  -41.2453 H         1 UNK         0.0600 
    162 H162       -0.2175  -17.9817  -39.7336 H         1 UNK         0.0600 
    163 H163        0.5748  -16.4964  -40.2386 H         1 UNK         0.0600 
    164 H164       -0.1066  -16.1558  -42.9055 H         1 UNK         0.3000 
    165 H165       -2.2110  -14.7023  -44.9127 H         1 UNK         0.0600 
    166 H166       -0.9639  -12.4148  -43.3106 H         1 UNK         0.0600 
    167 H167       -1.4162  -12.3377  -45.0139 H         1 UNK         0.0600 
    168 H168       -2.6472  -12.5692  -43.7847 H         1 UNK         0.0600 
    169 H169       -0.2525  -15.2111  -45.6664 H         1 UNK         0.3000 
    170 H170        2.1021  -15.8007  -45.6071 H         1 UNK         0.0600 
    171 H171        2.0414  -12.8325  -46.3898 H         1 UNK         0.0600 
    172 H172        2.9134  -14.0716  -47.2848 H         1 UNK         0.0600 
    173 H173        1.1681  -14.1450  -47.1713 H         1 UNK         0.0600 
    174 H174        3.8048  -13.5223  -44.8568 H         1 UNK         0.3000 
    175 H175        4.8785  -17.1403  -43.2215 H         1 UNK         0.0600 
    176 H176        1.8638  -16.8641  -43.1704 H         1 UNK         0.0600 
    177 H177        2.9151  -17.8826  -42.1978 H         1 UNK         0.0600 
    178 H178        2.8751  -16.1517  -41.9164 H         1 UNK         0.0600 
    179 H179        2.8632  -18.0759  -44.8991 H         1 UNK         0.3000 
    180 H180        4.9114  -19.6520  -46.9251 H         1 UNK         0.0600 
    181 H181        1.9958  -18.7455  -46.5980 H         1 UNK         0.0600 
    182 H182        2.7927  -20.0923  -45.7873 H         1 UNK         0.0600 
    183 H183        2.5087  -20.1461  -47.5144 H         1 UNK         0.0600 
    184 H184        4.8677  -18.7427  -48.9402 H         1 UNK         0.3000 
    185 H185        4.7711  -17.0175  -50.4962 H         1 UNK         0.0600 
    186 H186        1.7183  -17.3157  -50.8430 H         1 UNK         0.0600 
    187 H187        2.8931  -17.2655  -52.1535 H         1 UNK         0.0600 
    188 H188        2.8864  -18.6145  -51.0327 H         1 UNK         0.0600 
    189 H189        3.1857  -14.9561  -49.3940 H         1 UNK         0.3000 
    190 H190       -2.9751  -22.1111  -44.8491 H         1 UNK         0.3000 
    191 H191       -4.1502  -23.7221  -46.8408 H         1 UNK         0.0600 
    192 H192       -5.1103  -23.4980  -44.5916 H         1 UNK         0.0600 
    193 H193       -3.7091  -24.2815  -43.8656 H         1 UNK         0.0600 
    194 H194       -4.7849  -25.1923  -44.9184 H         1 UNK         0.0600 
    195 H195       -1.3063  -24.3896  -44.7413 H         1 UNK         0.3000 
    196 H196       -0.6539  -26.9347  -45.7667 H         1 UNK         0.0600 
    197 H197        0.2403  -26.0555  -43.6325 H         1 UNK         0.0600 
    198 H198        1.1516  -24.8139  -44.4886 H         1 UNK         0.0600 
    199 H199        1.5631  -26.5115  -44.6951 H         1 UNK         0.0600 
    200 H200        0.3072  -23.6906  -46.8894 H         1 UNK         0.3000 
    201 H201        1.9963  -24.6262  -49.0565 H         1 UNK         0.0600 
    202 H202        2.3838  -22.4721  -47.8956 H         1 UNK         0.0600 
    203 H203        0.8206  -21.8691  -48.4480 H         1 UNK         0.0600 
    204 H204        2.0996  -22.2118  -49.6090 H         1 UNK         0.0600 
    205 H205       -0.3132  -26.0151  -49.2739 H         1 UNK         0.3000 
    206 H206       -1.9242  -26.7360  -50.6274 H         1 UNK         0.0600 
    207 H207        0.0446  -26.8575  -52.1576 H         1 UNK         0.0600 
    208 H208       -0.3220  -25.2495  -52.7789 H         1 UNK         0.0600 
    209 H209       -1.4373  -26.5811  -53.0569 H         1 UNK         0.0600 
    210 H210       -2.8733  -24.6328  -49.2157 H         1 UNK         0.3000 
    211 H211       -4.4786  -23.0916  -49.0194 H         1 UNK         0.0600 
    212 H212       -5.6100  -24.1944  -51.6461 H         1 UNK         0.0600 
    213 H213       -6.4867  -23.2883  -50.4222 H         1 UNK         0.0600 
    214 H214       -5.8849  -24.8938  -50.0517 H         1 UNK         0.0600 
    215 H215       -2.3227  -21.9191  -49.6085 H         1 UNK         0.3000 
    216 H216       -1.2100  -20.1783  -50.4065 H         1 UNK         0.0600 
    217 H217       -2.4973  -18.1194  -50.9516 H         1 UNK         0.0600 
    218 H218       -3.1859  -18.9228  -49.5521 H         1 UNK         0.0600 
    219 H219       -3.9757  -19.0573  -51.1133 H         1 UNK         0.0600 
    220 H220       -0.9485  -22.2181  -52.0351 H         1 UNK         0.3000 
    221 H221       -0.4975  -23.0237  -54.0473 H         1 UNK         0.0600 
    222 H222       -0.0833  -20.1045  -54.8883 H         1 UNK         0.0600 
    223 H223        1.1140  -21.1183  -54.0841 H         1 UNK         0.0600 
    224 H224        0.5632  -21.5227  -55.7021 H         1 UNK         0.0600 
    225 H225       -3.0597  -23.1592  -53.5877 H         1 UNK         0.3000 
    226 H226       -5.0420  -23.5592  -54.3470 H         1 UNK         0.0600 
    227 H227       -3.8070  -24.7450  -56.1752 H         1 UNK         0.0600 
    228 H228       -5.3793  -24.1706  -56.7009 H         1 UNK         0.0600 
    229 H229       -3.9294  -23.3057  -57.1876 H         1 UNK         0.0600 
    230 H230       -4.1729  -20.6010  -54.0781 H         1 UNK         0.3000 
    231 H231       -6.1286  -19.1668  -55.6962 H         1 UNK         0.0600 
    232 H232       -5.4684  -17.2299  -54.3068 H         1 UNK         0.0600 
    233 H233       -4.0398  -18.0684  -54.8957 H         1 UNK         0.0600 
    234 H234       -4.5601  -18.2731  -53.2252 H         1 UNK         0.0600 
    235 H235       -6.0728  -20.7469  -52.5497 H         1 UNK         0.3000 
    236 H236       -7.5547  -21.2711  -51.0309 H         1 UNK         0.0600 
    237 H237       -9.7354  -20.6739  -53.0935 H         1 UNK         0.0600 
    238 H238       -8.8272  -22.1815  -52.9853 H         1 UNK         0.0600 
    239 H239       -9.8877  -21.6981  -51.6730 H         1 UNK         0.0600 
    240 H240       -6.7211  -18.4143  -51.2631 H         1 UNK         0.3000 
    241 H241       -8.8978  -16.8915  -50.0755 H         1 UNK         0.0600 
    242 H242       -6.8623  -18.4498  -47.0028 H         1 UNK         0.3800 
    243 H243       -6.7867  -19.1357  -48.6051 H         1 UNK         0.3800 
    244 H244       -7.2591  -15.0065  -50.0569 H         1 UNK         0.0800 
    245 H245       -7.5133  -15.7124  -51.6205 H         1 UNK         0.0800 
    246 H246       -4.8405  -14.1446  -49.6733 H         1 UNK         0.0800 
    247 H247       -5.0936  -15.4771  -48.5681 H         1 UNK         0.0800 
@<TRIPOS>BOND
     1    1    2 1    
     2    1  127 1    
     3    1  128 1    
     4    1  129 1    
     5    2    3 2    
     6    2    4 am   BACKBONE|DICT|INTERRES
     7    4    5 1    
     8    4  130 1    
     9    5    6 1    
    10    5   65 1    
    11    5  131 1    
    12    6    7 1    
    13    6  132 1    
    14    6  133 1    
    15    7    8 1    
    16    8    9 1    
    17    8  134 1    
    18    8  135 1    
    19    9   10 ar   
    20    9   14 ar   
    21   10   11 ar   
    22   10  136 1    
    23   11   12 ar   
    24   11  126 1    
    25   12   13 ar   
    26   12  137 1    
    27   13   14 ar   
    28   13   15 1    
    29   14  138 1    
    30   15   16 1    
    31   15  139 1    
    32   15  140 1    
    33   16   17 1    
    34   17   18 1    
    35   17  141 1    
    36   17  142 1    
    37   18   19 1    
    38   18   67 1    
    39   18  143 1    
    40   19   20 am   BACKBONE|DICT|INTERRES
    41   19  144 1    
    42   20   21 2    
    43   20   22 1    
    44   22   23 1    
    45   22   24 1    
    46   22  145 1    
    47   23  146 1    
    48   23  147 1    
    49   23  148 1    
    50   24   25 am   BACKBONE|DICT|INTERRES
    51   24  149 1    
    52   25   26 2    
    53   25   27 1    
    54   27   28 1    
    55   27   29 1    
    56   27  150 1    
    57   28  151 1    
    58   28  152 1    
    59   28  153 1    
    60   29   30 am   BACKBONE|DICT|INTERRES
    61   29  154 1    
    62   30   31 2    
    63   30   32 1    
    64   32   33 1    
    65   32   34 1    
    66   32  155 1    
    67   33  156 1    
    68   33  157 1    
    69   33  158 1    
    70   34   35 am   BACKBONE|DICT|INTERRES
    71   34  159 1    
    72   35   36 2    
    73   35   37 1    
    74   37   38 1    
    75   37   39 1    
    76   37  160 1    
    77   38  161 1    
    78   38  162 1    
    79   38  163 1    
    80   39   40 am   BACKBONE|DICT|INTERRES
    81   39  164 1    
    82   40   41 2    
    83   40   42 1    
    84   42   43 1    
    85   42   44 1    
    86   42  165 1    
    87   43  166 1    
    88   43  167 1    
    89   43  168 1    
    90   44   45 am   BACKBONE|DICT|INTERRES
    91   44  169 1    
    92   45   46 2    
    93   45   47 1    
    94   47   48 1    
    95   47   49 1    
    96   47  170 1    
    97   48  171 1    
    98   48  172 1    
    99   48  173 1    
   100   49   50 am   BACKBONE|DICT|INTERRES
   101   49  174 1    
   102   50   51 2    
   103   50   52 1    
   104   52   53 1    
   105   52   54 1    
   106   52  175 1    
   107   53  176 1    
   108   53  177 1    
   109   53  178 1    
   110   54   55 am   BACKBONE|DICT|INTERRES
   111   54  179 1    
   112   55   56 2    
   113   55   57 1    
   114   57   58 1    
   115   57   59 1    
   116   57  180 1    
   117   58  181 1    
   118   58  182 1    
   119   58  183 1    
   120   59   60 am   BACKBONE|DICT|INTERRES
   121   59  184 1    
   122   60   61 2    
   123   60   62 1    
   124   62   63 1    
   125   62   64 1    
   126   62  185 1    
   127   63  186 1    
   128   63  187 1    
   129   63  188 1    
   130   64   65 am   BACKBONE|DICT|INTERRES
   131   64  189 1    
   132   65   66 2    
   133   67   68 2    
   134   67   69 am   BACKBONE|DICT|INTERRES
   135   69   70 1    
   136   69  190 1    
   137   70   71 1    
   138   70   72 1    
   139   70  191 1    
   140   71  192 1    
   141   71  193 1    
   142   71  194 1    
   143   72   73 2    
   144   72   74 am   BACKBONE|DICT|INTERRES
   145   74   75 1    
   146   74  195 1    
   147   75   76 1    
   148   75   77 1    
   149   75  196 1    
   150   76  197 1    
   151   76  198 1    
   152   76  199 1    
   153   77   78 2    
   154   77   79 am   BACKBONE|DICT|INTERRES
   155   79   80 1    
   156   79  200 1    
   157   80   81 1    
   158   80   82 1    
   159   80  201 1    
   160   81  202 1    
   161   81  203 1    
   162   81  204 1    
   163   82   83 2    
   164   82   84 am   BACKBONE|DICT|INTERRES
   165   84   85 1    
   166   84  205 1    
   167   85   86 1    
   168   85   87 1    
   169   85  206 1    
   170   86  207 1    
   171   86  208 1    
   172   86  209 1    
   173   87   88 2    
   174   87   89 am   BACKBONE|DICT|INTERRES
   175   89   90 1    
   176   89  210 1    
   177   90   91 1    
   178   90   92 1    
   179   90  211 1    
   180   91  212 1    
   181   91  213 1    
   182   91  214 1    
   183   92   93 2    
   184   92   94 am   BACKBONE|DICT|INTERRES
   185   94   95 1    
   186   94  215 1    
   187   95   96 1    
   188   95   97 1    
   189   95  216 1    
   190   96  217 1    
   191   96  218 1    
   192   96  219 1    
   193   97   98 2    
   194   97   99 am   BACKBONE|DICT|INTERRES
   195   99  100 1    
   196   99  220 1    
   197  100  101 1    
   198  100  102 1    
   199  100  221 1    
   200  101  222 1    
   201  101  223 1    
   202  101  224 1    
   203  102  103 2    
   204  102  104 am   BACKBONE|DICT|INTERRES
   205  104  105 1    
   206  104  225 1    
   207  105  106 1    
   208  105  107 1    
   209  105  226 1    
   210  106  227 1    
   211  106  228 1    
   212  106  229 1    
   213  107  108 2    
   214  107  109 am   BACKBONE|DICT|INTERRES
   215  109  110 1    
   216  109  230 1    
   217  110  111 1    
   218  110  112 1    
   219  110  231 1    
   220  111  232 1    
   221  111  233 1    
   222  111  234 1    
   223  112  113 2    
   224  112  114 am   BACKBONE|DICT|INTERRES
   225  114  115 1    
   226  114  235 1    
   227  115  116 1    
   228  115  117 1    
   229  115  236 1    
   230  116  237 1    
   231  116  238 1    
   232  116  239 1    
   233  117  118 2    
   234  117  119 am   BACKBONE|DICT|INTERRES
   235  119  120 1    
   236  119  240 1    
   237  120  121 1    
   238  120  124 1    
   239  120  241 1    
   240  121  122 am   BACKBONE|DICT|INTERRES
   241  121  123 2    
   242  122  242 1    
   243  122  243 1    
   244  124  125 1    
   245  124  244 1    
   246  124  245 1    
   247  125  126 1    
   248  126  246 1    
   249  126  247 1    
@<TRIPOS>SUBSTRUCTURE
     1 UNK         1 GROUP             0       ****    0 ROOT    
