@<TRIPOS>MOLECULE
3R540
247   249    1
SMALL
USER_CHARGES


@<TRIPOS>ATOM
      1 CA          4.3791  -12.8474  -48.5850 C.3       0 UNK        -0.1800 
      2 C           2.8590  -12.9168  -48.6214 C.2       0 UNK         0.5000 
      3 O           2.1993  -11.8993  -48.4096 O.2       0 UNK        -0.5000 
      4 N           2.3094  -14.1070  -48.9014 N.am      1 UNK        -0.5000 
      5 CA          0.8756  -14.3973  -49.0246 C.3       1 UNK         0.1400 
      6 C6          0.2125  -13.6782  -50.2366 C.3       23 UNK        -0.0398 
      7 S7          0.7689  -14.4044  -51.8153 S.3       23 UNK        -0.2404 
      8 C8         -0.7052  -15.3487  -52.3261 C.3       23 UNK        -0.0205 
      9 C9         -1.1447  -16.3562  -51.2715 C.ar      23 UNK        -0.0193 
     10 C10        -2.2662  -16.1017  -50.4765 C.ar      23 UNK        -0.1150 
     11 C11        -2.6648  -17.0089  -49.4919 C.ar      23 UNK        -0.0193 
     12 C12        -1.9412  -18.1956  -49.3242 C.ar      23 UNK        -0.1150 
     13 C13        -0.8237  -18.4677  -50.1190 C.ar      23 UNK        -0.0193 
     14 C14        -0.4253  -17.5385  -51.0836 C.ar      23 UNK        -0.1150 
     15 C15        -0.0763  -19.7853  -49.9796 C.3       23 UNK        -0.0205 
     16 S16         1.2754  -19.7361  -48.7549 S.3       23 UNK        -0.2404 
     17 C17         0.4230  -19.8648  -47.1440 C.3       23 UNK        -0.0398 
     18 CA          0.0729  -21.3259  -46.7434 C.3       11 UNK         0.1400 
     19 N           0.1642  -21.5527  -45.2976 N.am      11 UNK        -0.5000 
     20 C          -0.0502  -22.7239  -44.6764 C.2       10 UNK         0.5000 
     21 O          -0.2779  -23.7844  -45.2579 O.2       10 UNK        -0.5000 
     22 CA         -0.0845  -22.6878  -43.1407 C.3       10 UNK         0.1400 
     23 CB          1.3336  -22.7398  -42.5524 C.3       10 UNK        -0.1800 
     24 N          -0.7852  -21.4970  -42.6603 N.am      10 UNK        -0.5000 
     25 C          -2.1141  -21.3343  -42.7247 C.2       9 UNK         0.5000 
     26 O          -2.8885  -22.2030  -43.1286 O.2       9 UNK        -0.5000 
     27 CA         -2.6678  -19.9621  -42.2944 C.3       9 UNK         0.1400 
     28 CB         -2.8972  -19.9248  -40.7762 C.3       9 UNK        -0.1800 
     29 N          -1.8062  -18.8415  -42.6808 N.am      9 UNK        -0.5000 
     30 C          -1.5871  -18.4601  -43.9470 C.2       8 UNK         0.5000 
     31 O          -2.0826  -19.0185  -44.9226 O.2       8 UNK        -0.5000 
     32 CA         -0.6232  -17.2804  -44.1701 C.3       8 UNK         0.1400 
     33 CB         -1.3718  -15.9597  -43.9456 C.3       8 UNK        -0.1800 
     34 N           0.5910  -17.2937  -43.3454 N.am      8 UNK        -0.5000 
     35 C           1.4043  -18.3416  -43.1426 C.2       7 UNK         0.5000 
     36 O           1.1942  -19.4708  -43.5875 O.2       7 UNK        -0.5000 
     37 CA          2.6712  -18.0596  -42.3137 C.3       7 UNK         0.1400 
     38 CB          3.5301  -19.3163  -42.0631 C.3       7 UNK        -0.1800 
     39 N           3.4710  -16.9871  -42.9059 N.am      7 UNK        -0.5000 
     40 C           4.0258  -16.9553  -44.1286 C.2       6 UNK         0.5000 
     41 O           3.9986  -17.8950  -44.9237 O.2       6 UNK        -0.5000 
     42 CA          4.7249  -15.6472  -44.5480 C.3       6 UNK         0.1400 
     43 CB          3.9589  -14.9758  -45.6970 C.3       6 UNK        -0.1800 
     44 N           4.8409  -14.6916  -43.4457 N.am      6 UNK        -0.5000 
     45 C           5.8349  -14.6725  -42.5473 C.2       5 UNK         0.5000 
     46 O           6.8132  -15.4185  -42.5923 O.2       5 UNK        -0.5000 
     47 CA          5.7017  -13.6620  -41.3903 C.3       5 UNK         0.1400 
     48 CB          6.4738  -12.3735  -41.7125 C.3       5 UNK        -0.1800 
     49 N           4.3113  -13.3178  -41.0787 N.am      5 UNK        -0.5000 
     50 C           3.4100  -14.1590  -40.5508 C.2       4 UNK         0.5000 
     51 O           3.6561  -15.3267  -40.2510 O.2       4 UNK        -0.5000 
     52 CA          1.9764  -13.6196  -40.3966 C.3       4 UNK         0.1400 
     53 CB          1.8199  -12.8639  -39.0687 C.3       4 UNK        -0.1800 
     54 N           1.5840  -12.7459  -41.5060 N.am      4 UNK        -0.5000 
     55 C           1.4212  -13.1590  -42.7691 C.2       3 UNK         0.5000 
     56 O           1.5730  -14.3298  -43.1296 O.2       3 UNK        -0.5000 
     57 CA          1.0823  -12.0759  -43.8010 C.3       3 UNK         0.1400 
     58 CB          2.3637  -11.5024  -44.4277 C.3       3 UNK        -0.1800 
     59 N           0.2523  -12.6545  -44.8503 N.am      3 UNK        -0.5000 
     60 C          -0.8227  -12.0799  -45.3979 C.2       2 UNK         0.5000 
     61 O          -1.1987  -10.9388  -45.1220 O.2       2 UNK        -0.5000 
     62 CA         -1.5983  -12.9237  -46.4324 C.3       2 UNK         0.1400 
     63 CB         -2.8976  -12.2466  -46.9044 C.3       2 UNK        -0.1800 
     64 N          -0.7849  -13.2339  -47.6063 N.am      2 UNK        -0.5000 
     65 C           0.1542  -14.1866  -47.6748 C.2       1 UNK         0.5000 
     66 O           0.4563  -14.9037  -46.7190 O.2       1 UNK        -0.5000 
     67 C          -1.3130  -21.7355  -47.2774 C.2       11 UNK         0.5000 
     68 O          -1.3902  -22.5252  -48.2176 O.2       11 UNK        -0.5000 
     69 N          -2.3722  -21.2296  -46.6290 N.am      12 UNK        -0.5000 
     70 CA         -3.7719  -21.4798  -46.9625 C.3       12 UNK         0.1400 
     71 CB         -4.6818  -20.7297  -45.9767 C.3       12 UNK        -0.1800 
     72 C          -4.1423  -22.9701  -46.9783 C.2       12 UNK         0.5000 
     73 O          -4.8135  -23.4200  -47.9089 O.2       12 UNK        -0.5000 
     74 N          -3.6822  -23.6978  -45.9521 N.am      13 UNK        -0.5000 
     75 CA         -3.8771  -25.1363  -45.8003 C.3       13 UNK         0.1400 
     76 CB         -3.4993  -25.5466  -44.3688 C.3       13 UNK        -0.1800 
     77 C          -3.0791  -25.9538  -46.8308 C.2       13 UNK         0.5000 
     78 O          -3.6078  -26.9270  -47.3689 O.2       13 UNK        -0.5000 
     79 N          -1.8265  -25.5497  -47.0830 N.am      14 UNK        -0.5000 
     80 CA         -0.9168  -26.2135  -48.0144 C.3       14 UNK         0.1400 
     81 CB          0.5151  -25.7041  -47.7858 C.3       14 UNK        -0.1800 
     82 C          -1.3280  -26.0337  -49.4852 C.2       14 UNK         0.5000 
     83 O          -1.3454  -27.0129  -50.2324 O.2       14 UNK        -0.5000 
     84 N          -1.6344  -24.7905  -49.8784 N.am      15 UNK        -0.5000 
     85 CA         -1.9656  -24.4325  -51.2568 C.3       15 UNK         0.1400 
     86 CB         -1.6389  -22.9544  -51.4918 C.3       15 UNK        -0.1800 
     87 C          -3.4245  -24.7341  -51.6362 C.2       15 UNK         0.5000 
     88 O          -3.7045  -24.9215  -52.8235 O.2       15 UNK        -0.5000 
     89 N          -4.3181  -24.7679  -50.6346 N.am      16 UNK        -0.5000 
     90 CA         -5.7238  -25.1904  -50.6961 C.3       16 UNK         0.1400 
     91 CB         -5.7916  -26.7183  -50.8952 C.3       16 UNK        -0.1800 
     92 C          -6.5893  -24.4289  -51.7256 C.2       16 UNK         0.5000 
     93 O          -7.5796  -24.9758  -52.2136 O.2       16 UNK        -0.5000 
     94 N          -6.1846  -23.1937  -52.0575 N.am      17 UNK        -0.5000 
     95 CA         -6.7388  -22.3153  -53.0954 C.3       17 UNK         0.1400 
     96 CB         -8.1786  -21.8863  -52.7456 C.3       17 UNK        -0.1800 
     97 C          -6.6135  -22.8848  -54.5267 C.2       17 UNK         0.5000 
     98 O          -7.3239  -22.4321  -55.4263 O.2       17 UNK        -0.5000 
     99 N          -5.7154  -23.8607  -54.7142 N.am      18 UNK        -0.5000 
    100 CA        -5.4370  -24.5192  -55.9861 C.3       18 UNK         0.1400 
    101 CB        -5.5341  -26.0417  -55.7965 C.3       18 UNK        -0.1800 
    102 C         -4.0465  -24.1206  -56.4972 C.2       18 UNK         0.5000 
    103 O         -3.9122  -23.7543  -57.6653 O.2       18 UNK        -0.5000 
    104 N         -3.0392  -24.1847  -55.6150 N.am      19 UNK        -0.5000 
    105 CA        -1.6472  -23.8587  -55.9366 C.3       19 UNK         0.1400 
    106 CB        -0.7221  -24.7462  -55.0907 C.3       19 UNK        -0.1800 
    107 C         -1.3095  -22.3708  -55.7200 C.2       19 UNK         0.5000 
    108 O         -0.2365  -21.9338  -56.1386 O.2       19 UNK        -0.5000 
    109 N         -2.2056  -21.6219  -55.0673 N.am      20 UNK        -0.5000 
    110 CA        -2.0596  -20.2045  -54.7522 C.3       20 UNK         0.1400 
    111 CB        -1.1749  -20.0211  -53.5045 C.3       20 UNK        -0.1800 
    112 C         -3.4490  -19.5749  -54.5680 C.2       20 UNK         0.5000 
    113 O         -4.4632  -20.2429  -54.7821 O.2       20 UNK        -0.5000 
    114 N         -3.4652  -18.2918  -54.1862 N.am      21 UNK        -0.5000 
    115 CA        -4.6636  -17.4593  -54.0628 C.3       21 UNK         0.1400 
    116 CB        -4.2309  -15.9913  -53.9249 C.3       21 UNK        -0.1800 
    117 C         -5.6151  -17.8451  -52.9124 C.2       21 UNK         0.5000 
    118 O         -6.7772  -17.4373  -52.9472 O.2       21 UNK        -0.5000 
    119 N         -5.1337  -18.6037  -51.9209 N.am      22 UNK        -0.5000 
    120 CA        -5.9321  -19.0891  -50.7892 C.3       22 UNK         0.1400 
    121 C         -5.4642  -20.4883  -50.3031 C.2       22 UNK         0.5000 
    122 N         -6.1921  -21.1138  -49.3867 N.am      22 UNK        -0.7600 
    123 O         -4.4703  -21.0372  -50.7732 O.2       22 UNK        -0.5000 
    124 C124       -6.1149  -18.0011  -49.6852 C.3       23 UNK        -0.0398 
    125 S125       -4.9702  -18.0427  -48.2598 S.3       23 UNK        -0.2404 
    126 C126       -3.8315  -16.6572  -48.5752 C.3       23 UNK        -0.0205 
    127 H127        4.8309  -13.8397  -48.5945 H         1 UNK         0.0600 
    128 H128        4.7120  -12.3296  -47.6855 H         1 UNK         0.0600 
    129 H129        4.7478  -12.2960  -49.4499 H         1 UNK         0.0600 
    130 H130        2.9150  -14.9019  -49.0459 H         1 UNK         0.3000 
    131 H131        0.8042  -15.4717  -49.2021 H         1 UNK         0.0600 
    132 H132       -0.8746  -13.7385  -50.1970 H         1 UNK         0.0800 
    133 H133        0.4464  -12.6133  -50.2454 H         1 UNK         0.0800 
    134 H134       -1.5122  -14.6506  -52.5533 H         1 UNK         0.0800 
    135 H135       -0.4848  -15.8719  -53.2575 H         1 UNK         0.0800 
    136 H136       -2.8182  -15.1819  -50.6096 H         1 UNK         0.1150 
    137 H137       -2.2505  -18.9089  -48.5738 H         1 UNK         0.1150 
    138 H138        0.4426  -17.7383  -51.6964 H         1 UNK         0.1150 
    139 H139       -0.7787  -20.5834  -49.7543 H         1 UNK         0.0800 
    140 H140        0.3598  -20.0540  -50.9425 H         1 UNK         0.0800 
    141 H141       -0.4418  -19.2015  -47.1185 H         1 UNK         0.0800 
    142 H142        1.1178  -19.4456  -46.4144 H         1 UNK         0.0800 
    143 H143        0.8079  -21.9959  -47.1945 H         1 UNK         0.0600 
    144 H144        0.3847  -20.7444  -44.7213 H         1 UNK         0.3000 
    145 H145       -0.6253  -23.5712  -42.7942 H         1 UNK         0.0600 
    146 H146        1.3113  -22.7076  -41.4631 H         1 UNK         0.0600 
    147 H147        1.8371  -23.6632  -42.8408 H         1 UNK         0.0600 
    148 H148        1.9506  -21.9119  -42.9010 H         1 UNK         0.0600 
    149 H149       -0.2085  -20.7057  -42.4080 H         1 UNK         0.3000 
    150 H150       -3.6334  -19.8289  -42.7870 H         1 UNK         0.0600 
    151 H151       -3.5536  -20.7371  -40.4609 H         1 UNK         0.0600 
    152 H152       -3.3693  -18.9905  -40.4715 H         1 UNK         0.0600 
    153 H153       -1.9619  -20.0252  -40.2242 H         1 UNK         0.0600 
    154 H154       -1.3502  -18.3340  -41.9370 H         1 UNK         0.3000 
    155 H155       -0.2989  -17.3149  -45.2120 H         1 UNK         0.0600 
    156 H156       -0.7476  -15.1111  -44.2123 H         1 UNK         0.0600 
    157 H157       -1.6740  -15.8370  -42.9050 H         1 UNK         0.0600 
    158 H158       -2.2711  -15.9086  -44.5609 H         1 UNK         0.0600 
    159 H159        0.8955  -16.3873  -43.0083 H         1 UNK         0.3000 
    160 H160        2.3335  -17.6940  -41.3430 H         1 UNK         0.0600 
    161 H161        3.8654  -19.7756  -42.9935 H         1 UNK         0.0600 
    162 H162        2.9641  -20.0688  -41.5132 H         1 UNK         0.0600 
    163 H163        4.4128  -19.0773  -41.4701 H         1 UNK         0.0600 
    164 H164        3.5639  -16.1601  -42.3312 H         1 UNK         0.3000 
    165 H165        5.7222  -15.9058  -44.9098 H         1 UNK         0.0600 
    166 H166        2.9278  -14.7531  -45.4217 H         1 UNK         0.0600 
    167 H167        4.4388  -14.0434  -45.9891 H         1 UNK         0.0600 
    168 H168        3.9280  -15.6190  -46.5771 H         1 UNK         0.0600 
    169 H169        4.0606  -14.0647  -43.3159 H         1 UNK         0.3000 
    170 H170        6.1465  -14.1166  -40.5025 H         1 UNK         0.0600 
    171 H171        7.5219  -12.5888  -41.9249 H         1 UNK         0.0600 
    172 H172        6.0605  -11.8633  -42.5835 H         1 UNK         0.0600 
    173 H173        6.4505  -11.6787  -40.8727 H         1 UNK         0.0600 
    174 H174        4.0191  -12.3761  -41.2947 H         1 UNK         0.3000 
    175 H175        1.2990  -14.4764  -40.3834 H         1 UNK         0.0600 
    176 H176        2.4561  -11.9788  -39.0292 H         1 UNK         0.0600 
    177 H177        0.7889  -12.5436  -38.9168 H         1 UNK         0.0600 
    178 H178        2.0889  -13.4996  -38.2240 H         1 UNK         0.0600 
    179 H179        1.4439  -11.7705  -41.2837 H         1 UNK         0.3000 
    180 H180        0.5425  -11.2757  -43.2905 H         1 UNK         0.0600 
    181 H181        2.9307  -12.2670  -44.9588 H         1 UNK         0.0600 
    182 H182        3.0176  -11.0726  -43.6680 H         1 UNK         0.0600 
    183 H183        2.1299  -10.7115  -45.1407 H         1 UNK         0.0600 
    184 H184        0.4995  -13.5985  -45.1344 H         1 UNK         0.3000 
    185 H185       -1.8812  -13.8580  -45.9456 H         1 UNK         0.0600 
    186 H186       -3.4542  -12.8934  -47.5832 H         1 UNK         0.0600 
    187 H187       -3.5523  -12.0254  -46.0605 H         1 UNK         0.0600 
    188 H188       -2.6991  -11.3077  -47.4228 H         1 UNK         0.0600 
    189 H189       -0.9256  -12.6342  -48.4052 H         1 UNK         0.3000 
    190 H190       -2.2109  -20.5523  -45.8859 H         1 UNK         0.3000 
    191 H191       -3.9236  -21.0755  -47.9618 H         1 UNK         0.0600 
    192 H192       -4.4434  -19.6681  -45.9396 H         1 UNK         0.0600 
    193 H193       -4.5914  -21.1203  -44.9631 H         1 UNK         0.0600 
    194 H194       -5.7282  -20.8166  -46.2712 H         1 UNK         0.0600 
    195 H195       -3.1524  -23.2302  -45.2274 H         1 UNK         0.3000 
    196 H196       -4.9371  -25.3530  -45.9492 H         1 UNK         0.0600 
    197 H197       -3.6509  -26.6157  -44.2152 H         1 UNK         0.0600 
    198 H198       -4.1106  -25.0215  -43.6345 H         1 UNK         0.0600 
    199 H199       -2.4536  -25.3268  -44.1493 H         1 UNK         0.0600 
    200 H200       -1.4523  -24.7538  -46.5756 H         1 UNK         0.3000 
    201 H201       -0.9299  -27.2831  -47.7945 H         1 UNK         0.0600 
    202 H202        0.8511  -25.9185  -46.7712 H         1 UNK         0.0600 
    203 H203        0.5894  -24.6269  -47.9407 H         1 UNK         0.0600 
    204 H204        1.2162  -26.1848  -48.4692 H         1 UNK         0.0600 
    205 H205       -1.5833  -24.0255  -49.2061 H         1 UNK         0.3000 
    206 H206       -1.3343  -25.0241  -51.9210 H         1 UNK         0.0600 
    207 H207       -0.5780  -22.7540  -51.3427 H         1 UNK         0.0600 
    208 H208       -1.8877  -22.6634  -52.5110 H         1 UNK         0.0600 
    209 H209       -2.2004  -22.3081  -50.8181 H         1 UNK         0.0600 
    210 H210       -3.9922  -24.5219  -49.7079 H         1 UNK         0.3000 
    211 H211       -6.1530  -24.9656  -49.7192 H         1 UNK         0.0600 
    212 H212       -5.4263  -27.0115  -51.8802 H         1 UNK         0.0600 
    213 H213       -6.8143  -27.0850  -50.8005 H         1 UNK         0.0600 
    214 H214       -5.1928  -27.2385  -50.1470 H         1 UNK         0.0600 
    215 H215       -5.3700  -22.8223  -51.5805 H         1 UNK         0.3000 
    216 H216       -6.1226  -21.4168  -53.0827 H         1 UNK         0.0600 
    217 H217       -8.2415  -21.5063  -51.7261 H         1 UNK         0.0600 
    218 H218       -8.8822  -22.7137  -52.8392 H         1 UNK         0.0600 
    219 H219       -8.5201  -21.0907  -53.4086 H         1 UNK         0.0600 
    220 H220       -5.1702  -24.1748  -53.9177 H         1 UNK         0.3000 
    221 H221       -6.1683  -24.2266  -56.7424 H         1 UNK         0.0600 
    222 H222       -4.8331  -26.4040  -55.0433 H         1 UNK         0.0600 
    223 H223       -6.5368  -26.3329  -55.4830 H         1 UNK         0.0600 
    224 H224       -5.3183  -26.5664  -56.7280 H         1 UNK         0.0600 
    225 H225       -3.2276  -24.5010  -54.6683 H         1 UNK         0.3000 
    226 H226       -1.4548  -24.0874  -56.9871 H         1 UNK         0.0600 
    227 H227       -0.9696  -25.8019  -55.2031 H         1 UNK         0.0600 
    228 H228        0.3187  -24.6221  -55.3922 H         1 UNK         0.0600 
    229 H229       -0.7850  -24.4936  -54.0344 H         1 UNK         0.0600 
    230 H230       -3.1058  -22.0177  -54.8312 H         1 UNK         0.3000 
    231 H231       -1.5882  -19.7063  -55.6018 H         1 UNK         0.0600 
    232 H232       -0.8480  -18.9860  -53.4174 H         1 UNK         0.0600 
    233 H233       -0.2740  -20.6330  -53.5498 H         1 UNK         0.0600 
    234 H234       -1.7097  -20.2759  -52.5890 H         1 UNK         0.0600 
    235 H235       -2.5862  -17.8272  -54.0144 H         1 UNK         0.3000 
    236 H236       -5.2299  -17.5582  -54.9913 H         1 UNK         0.0600 
    237 H237       -3.6040  -15.6804  -54.7607 H         1 UNK         0.0600 
    238 H238       -5.0969  -15.3283  -53.9064 H         1 UNK         0.0600 
    239 H239       -3.6740  -15.8246  -53.0037 H         1 UNK         0.0600 
    240 H240       -4.1848  -18.9492  -51.9600 H         1 UNK         0.3000 
    241 H241       -6.9253  -19.2926  -51.1949 H         1 UNK         0.0600 
    242 H242       -5.8800  -22.0157  -49.0510 H         1 UNK         0.3800 
    243 H243       -7.0177  -20.6956  -48.9893 H         1 UNK         0.3800 
    244 H244       -6.1134  -17.0020  -50.1221 H         1 UNK         0.0800 
    245 H245       -7.1141  -18.1121  -49.2624 H         1 UNK         0.0800 
    246 H246       -3.4158  -16.3369  -47.6189 H         1 UNK         0.0800 
    247 H247       -4.3950  -15.8066  -48.9611 H         1 UNK         0.0800 
@<TRIPOS>BOND
     1    1    2 1    
     2    1  127 1    
     3    1  128 1    
     4    1  129 1    
     5    2    3 2    
     6    2    4 am   BACKBONE|DICT|INTERRES
     7    4    5 1    
     8    4  130 1    
     9    5    6 1    
    10    5   65 1    
    11    5  131 1    
    12    6    7 1    
    13    6  132 1    
    14    6  133 1    
    15    7    8 1    
    16    8    9 1    
    17    8  134 1    
    18    8  135 1    
    19    9   10 ar   
    20    9   14 ar   
    21   10   11 ar   
    22   10  136 1    
    23   11   12 ar   
    24   11  126 1    
    25   12   13 ar   
    26   12  137 1    
    27   13   14 ar   
    28   13   15 1    
    29   14  138 1    
    30   15   16 1    
    31   15  139 1    
    32   15  140 1    
    33   16   17 1    
    34   17   18 1    
    35   17  141 1    
    36   17  142 1    
    37   18   19 1    
    38   18   67 1    
    39   18  143 1    
    40   19   20 am   BACKBONE|DICT|INTERRES
    41   19  144 1    
    42   20   21 2    
    43   20   22 1    
    44   22   23 1    
    45   22   24 1    
    46   22  145 1    
    47   23  146 1    
    48   23  147 1    
    49   23  148 1    
    50   24   25 am   BACKBONE|DICT|INTERRES
    51   24  149 1    
    52   25   26 2    
    53   25   27 1    
    54   27   28 1    
    55   27   29 1    
    56   27  150 1    
    57   28  151 1    
    58   28  152 1    
    59   28  153 1    
    60   29   30 am   BACKBONE|DICT|INTERRES
    61   29  154 1    
    62   30   31 2    
    63   30   32 1    
    64   32   33 1    
    65   32   34 1    
    66   32  155 1    
    67   33  156 1    
    68   33  157 1    
    69   33  158 1    
    70   34   35 am   BACKBONE|DICT|INTERRES
    71   34  159 1    
    72   35   36 2    
    73   35   37 1    
    74   37   38 1    
    75   37   39 1    
    76   37  160 1    
    77   38  161 1    
    78   38  162 1    
    79   38  163 1    
    80   39   40 am   BACKBONE|DICT|INTERRES
    81   39  164 1    
    82   40   41 2    
    83   40   42 1    
    84   42   43 1    
    85   42   44 1    
    86   42  165 1    
    87   43  166 1    
    88   43  167 1    
    89   43  168 1    
    90   44   45 am   BACKBONE|DICT|INTERRES
    91   44  169 1    
    92   45   46 2    
    93   45   47 1    
    94   47   48 1    
    95   47   49 1    
    96   47  170 1    
    97   48  171 1    
    98   48  172 1    
    99   48  173 1    
   100   49   50 am   BACKBONE|DICT|INTERRES
   101   49  174 1    
   102   50   51 2    
   103   50   52 1    
   104   52   53 1    
   105   52   54 1    
   106   52  175 1    
   107   53  176 1    
   108   53  177 1    
   109   53  178 1    
   110   54   55 am   BACKBONE|DICT|INTERRES
   111   54  179 1    
   112   55   56 2    
   113   55   57 1    
   114   57   58 1    
   115   57   59 1    
   116   57  180 1    
   117   58  181 1    
   118   58  182 1    
   119   58  183 1    
   120   59   60 am   BACKBONE|DICT|INTERRES
   121   59  184 1    
   122   60   61 2    
   123   60   62 1    
   124   62   63 1    
   125   62   64 1    
   126   62  185 1    
   127   63  186 1    
   128   63  187 1    
   129   63  188 1    
   130   64   65 am   BACKBONE|DICT|INTERRES
   131   64  189 1    
   132   65   66 2    
   133   67   68 2    
   134   67   69 am   BACKBONE|DICT|INTERRES
   135   69   70 1    
   136   69  190 1    
   137   70   71 1    
   138   70   72 1    
   139   70  191 1    
   140   71  192 1    
   141   71  193 1    
   142   71  194 1    
   143   72   73 2    
   144   72   74 am   BACKBONE|DICT|INTERRES
   145   74   75 1    
   146   74  195 1    
   147   75   76 1    
   148   75   77 1    
   149   75  196 1    
   150   76  197 1    
   151   76  198 1    
   152   76  199 1    
   153   77   78 2    
   154   77   79 am   BACKBONE|DICT|INTERRES
   155   79   80 1    
   156   79  200 1    
   157   80   81 1    
   158   80   82 1    
   159   80  201 1    
   160   81  202 1    
   161   81  203 1    
   162   81  204 1    
   163   82   83 2    
   164   82   84 am   BACKBONE|DICT|INTERRES
   165   84   85 1    
   166   84  205 1    
   167   85   86 1    
   168   85   87 1    
   169   85  206 1    
   170   86  207 1    
   171   86  208 1    
   172   86  209 1    
   173   87   88 2    
   174   87   89 am   BACKBONE|DICT|INTERRES
   175   89   90 1    
   176   89  210 1    
   177   90   91 1    
   178   90   92 1    
   179   90  211 1    
   180   91  212 1    
   181   91  213 1    
   182   91  214 1    
   183   92   93 2    
   184   92   94 am   BACKBONE|DICT|INTERRES
   185   94   95 1    
   186   94  215 1    
   187   95   96 1    
   188   95   97 1    
   189   95  216 1    
   190   96  217 1    
   191   96  218 1    
   192   96  219 1    
   193   97   98 2    
   194   97   99 am   BACKBONE|DICT|INTERRES
   195   99  100 1    
   196   99  220 1    
   197  100  101 1    
   198  100  102 1    
   199  100  221 1    
   200  101  222 1    
   201  101  223 1    
   202  101  224 1    
   203  102  103 2    
   204  102  104 am   BACKBONE|DICT|INTERRES
   205  104  105 1    
   206  104  225 1    
   207  105  106 1    
   208  105  107 1    
   209  105  226 1    
   210  106  227 1    
   211  106  228 1    
   212  106  229 1    
   213  107  108 2    
   214  107  109 am   BACKBONE|DICT|INTERRES
   215  109  110 1    
   216  109  230 1    
   217  110  111 1    
   218  110  112 1    
   219  110  231 1    
   220  111  232 1    
   221  111  233 1    
   222  111  234 1    
   223  112  113 2    
   224  112  114 am   BACKBONE|DICT|INTERRES
   225  114  115 1    
   226  114  235 1    
   227  115  116 1    
   228  115  117 1    
   229  115  236 1    
   230  116  237 1    
   231  116  238 1    
   232  116  239 1    
   233  117  118 2    
   234  117  119 am   BACKBONE|DICT|INTERRES
   235  119  120 1    
   236  119  240 1    
   237  120  121 1    
   238  120  124 1    
   239  120  241 1    
   240  121  122 am   BACKBONE|DICT|INTERRES
   241  121  123 2    
   242  122  242 1    
   243  122  243 1    
   244  124  125 1    
   245  124  244 1    
   246  124  245 1    
   247  125  126 1    
   248  126  246 1    
   249  126  247 1    
@<TRIPOS>SUBSTRUCTURE
     1 UNK         1 GROUP             0       ****    0 ROOT    
