@<TRIPOS>MOLECULE
3R540
247   249    1
SMALL
USER_CHARGES


@<TRIPOS>ATOM
      1 CA          3.5565  -12.6772  -50.0425 C.3       0 UNK        -0.1800 
      2 C           2.5737  -13.3926  -49.1273 C.2       0 UNK         0.5000 
      3 O           2.3213  -12.9234  -48.0177 O.2       0 UNK        -0.5000 
      4 N           2.0358  -14.5341  -49.5811 N.am      1 UNK        -0.5000 
      5 CA          1.0346  -15.3663  -48.8913 C.3       1 UNK         0.1400 
      6 C6         -0.3687  -14.7018  -48.8117 C.3       23 UNK        -0.0398 
      7 S7         -1.0093  -14.2672  -50.4692 S.3       23 UNK        -0.2404 
      8 C8         -2.6511  -15.0715  -50.5042 C.3       23 UNK        -0.0205 
      9 C9         -2.6612  -16.5972  -50.3866 C.ar      23 UNK        -0.0193 
     10 C10        -3.8326  -17.2243  -49.9508 C.ar      23 UNK        -0.1150 
     11 C11        -3.8974  -18.6139  -49.8034 C.ar      23 UNK        -0.0193 
     12 C12        -2.7629  -19.3803  -50.0776 C.ar      23 UNK        -0.1150 
     13 C13        -1.5802  -18.7710  -50.5046 C.ar      23 UNK        -0.0193 
     14 C14        -1.5467  -17.3872  -50.6930 C.ar      23 UNK        -0.1150 
     15 C15        -0.3250  -19.6047  -50.7167 C.3       23 UNK        -0.0205 
     16 S16         0.9841  -19.2218  -49.5014 S.3       23 UNK        -0.2404 
     17 C17         0.1202  -19.3444  -47.8953 C.3       23 UNK        -0.0398 
     18 CA          0.2794  -20.7258  -47.2239 C.3       11 UNK         0.1400 
     19 N           0.1363  -20.6425  -45.7701 N.am      11 UNK        -0.5000 
     20 C           0.3829  -21.6481  -44.9193 C.2       10 UNK         0.5000 
     21 O           0.8309  -22.7432  -45.2587 O.2       10 UNK        -0.5000 
     22 CA          0.0089  -21.3996  -43.4499 C.3       10 UNK         0.1400 
     23 CB          1.1397  -20.6621  -42.7217 C.3       10 UNK        -0.1800 
     24 N          -1.2358  -20.6370  -43.3370 N.am      10 UNK        -0.5000 
     25 C          -2.4454  -21.1468  -43.6144 C.2       9 UNK         0.5000 
     26 O          -2.6280  -22.3209  -43.9382 O.2       9 UNK        -0.5000 
     27 CA         -3.6455  -20.1801  -43.5649 C.3       9 UNK         0.1400 
     28 CB         -4.1913  -20.0711  -42.1337 C.3       9 UNK        -0.1800 
     29 N          -3.3273  -18.8406  -44.0621 N.am      9 UNK        -0.5000 
     30 C          -2.9584  -18.5595  -45.3197 C.2       8 UNK         0.5000 
     31 O          -2.9132  -19.3990  -46.2149 O.2       8 UNK        -0.5000 
     32 CA         -2.5198  -17.1160  -45.6299 C.3       8 UNK         0.1400 
     33 CB         -3.6652  -16.3360  -46.2908 C.3       8 UNK        -0.1800 
     34 N          -2.0353  -16.3672  -44.4673 N.am      8 UNK        -0.5000 
     35 C          -0.9887  -16.7120  -43.7042 C.2       7 UNK         0.5000 
     36 O          -0.3449  -17.7522  -43.8665 O.2       7 UNK        -0.5000 
     37 CA         -0.6464  -15.7219  -42.5739 C.3       7 UNK         0.1400 
     38 CB         -1.7809  -15.6182  -41.5330 C.3       7 UNK        -0.1800 
     39 N           0.6417  -15.9910  -41.9334 N.am      7 UNK        -0.5000 
     40 C           0.9914  -17.0062  -41.1297 C.2       6 UNK         0.5000 
     41 O           0.2190  -17.8801  -40.7343 O.2       6 UNK        -0.5000 
     42 CA          2.4574  -17.0359  -40.6622 C.3       6 UNK         0.1400 
     43 CB          3.3280  -17.8021  -41.6682 C.3       6 UNK        -0.1800 
     44 N           2.9999  -15.6842  -40.4996 N.am      6 UNK        -0.5000 
     45 C           3.2851  -15.1163  -39.3195 C.2       5 UNK         0.5000 
     46 O           3.1379  -15.6793  -38.2337 O.2       5 UNK        -0.5000 
     47 CA          3.8331  -13.6747  -39.3439 C.3       5 UNK         0.1400 
     48 CB          5.3688  -13.6861  -39.3915 C.3       5 UNK        -0.1800 
     49 N           3.3305  -12.8792  -40.4635 N.am      5 UNK        -0.5000 
     50 C           2.0607  -12.4774  -40.6110 C.2       4 UNK         0.5000 
     51 O           1.1805  -12.6762  -39.7733 O.2       4 UNK        -0.5000 
     52 CA          1.7051  -11.7412  -41.9199 C.3       4 UNK         0.1400 
     53 CB          1.6163  -10.2271  -41.6749 C.3       4 UNK        -0.1800 
     54 N           2.6216  -11.9863  -43.0417 N.am      4 UNK        -0.5000 
     55 C           2.8650  -13.1807  -43.5972 C.2       3 UNK         0.5000 
     56 O           2.4049  -14.2327  -43.1501 O.2       3 UNK        -0.5000 
     57 CA          3.7817  -13.1760  -44.8363 C.3       3 UNK         0.1400 
     58 CB          5.2509  -12.9101  -44.4504 C.3       3 UNK        -0.1800 
     59 N           3.6461  -14.3865  -45.6548 N.am      3 UNK        -0.5000 
     60 C           4.0066  -15.6461  -45.3595 C.2       2 UNK         0.5000 
     61 O           4.6523  -15.9565  -44.3579 O.2       2 UNK        -0.5000 
     62 CA          3.6308  -16.7531  -46.3715 C.3       2 UNK         0.1400 
     63 CB          2.9959  -17.9814  -45.6847 C.3       2 UNK        -0.1800 
     64 N           2.8240  -16.2987  -47.5137 N.am      2 UNK        -0.5000 
     65 C           1.5516  -15.8682  -47.5233 C.2       1 UNK         0.5000 
     66 O           0.8286  -15.8217  -46.5290 O.2       1 UNK        -0.5000 
     67 C          -0.6909  -21.7638  -47.8210 C.2       11 UNK         0.5000 
     68 O          -0.2676  -22.5949  -48.6218 O.2       11 UNK        -0.5000 
     69 N          -1.9580  -21.7329  -47.3815 N.am      12 UNK        -0.5000 
     70 CA         -3.0036  -22.6842  -47.7531 C.3       12 UNK         0.1400 
     71 CB         -4.3350  -22.2935  -47.0938 C.3       12 UNK        -0.1800 
     72 C          -2.6381  -24.1310  -47.3939 C.2       12 UNK         0.5000 
     73 O          -2.7972  -25.0120  -48.2366 O.2       12 UNK        -0.5000 
     74 N          -2.1188  -24.3396  -46.1765 N.am      13 UNK        -0.5000 
     75 CA         -1.6386  -25.6349  -45.6966 C.3       13 UNK         0.1400 
     76 CB         -1.2991  -25.5324  -44.2019 C.3       13 UNK        -0.1800 
     77 C          -0.4345  -26.1646  -46.4988 C.2       13 UNK         0.5000 
     78 O          -0.3936  -27.3550  -46.8111 O.2       13 UNK        -0.5000 
     79 N           0.5104  -25.2741  -46.8299 N.am      14 UNK        -0.5000 
     80 CA          1.7087  -25.5892  -47.6067 C.3       14 UNK         0.1400 
     81 CB          2.7156  -24.4350  -47.4805 C.3       14 UNK        -0.1800 
     82 C           1.4062  -25.8881  -49.0868 C.2       14 UNK         0.5000 
     83 O           1.9146  -26.8727  -49.6245 O.2       14 UNK        -0.5000 
     84 N           0.5960  -25.0308  -49.7203 N.am      15 UNK        -0.5000 
     85 CA          0.2763  -25.0926  -51.1476 C.3       15 UNK         0.1400 
     86 CB         -0.0959  -23.6798  -51.6315 C.3       15 UNK        -0.1800 
     87 C          -0.8606  -26.0722  -51.4878 C.2       15 UNK         0.5000 
     88 O          -1.0654  -26.3494  -52.6682 O.2       15 UNK        -0.5000 
     89 N          -1.6171  -26.5255  -50.4772 N.am      16 UNK        -0.5000 
     90 CA         -2.8986  -27.2364  -50.5932 C.3       16 UNK         0.1400 
     91 CB         -2.7243  -28.6197  -51.2547 C.3       16 UNK        -0.1800 
     92 C          -3.9648  -26.3514  -51.2783 C.2       16 UNK         0.5000 
     93 O          -4.6903  -26.8078  -52.1629 O.2       16 UNK        -0.5000 
     94 N          -3.9917  -25.0761  -50.8613 N.am      17 UNK        -0.5000 
     95 CA         -4.8340  -23.9693  -51.3326 C.3       17 UNK         0.1400 
     96 CB         -6.3191  -24.2455  -51.0229 C.3       17 UNK        -0.1800 
     97 C          -4.6098  -23.5520  -52.8041 C.2       17 UNK         0.5000 
     98 O          -5.4117  -22.7840  -53.3368 O.2       17 UNK        -0.5000 
     99 N          -3.5277  -24.0271  -53.4378 N.am      18 UNK        -0.5000 
    100 CA        -3.1705  -23.7394  -54.8280 C.3       18 UNK         0.1400 
    101 CB        -2.2503  -24.8554  -55.3520 C.3       18 UNK        -0.1800 
    102 C         -2.5442  -22.3383  -54.9846 C.2       18 UNK         0.5000 
    103 O         -1.3413  -22.2143  -55.2232 O.2       18 UNK        -0.5000 
    104 N         -3.3781  -21.3066  -54.8419 N.am      19 UNK        -0.5000 
    105 CA        -3.0504  -19.9025  -55.0565 C.3       19 UNK         0.1400 
    106 CB        -2.6617  -19.2599  -53.7176 C.3       19 UNK        -0.1800 
    107 C         -4.2797  -19.2096  -55.6522 C.2       19 UNK         0.5000 
    108 O         -5.4048  -19.6384  -55.3875 O.2       19 UNK        -0.5000 
    109 N         -4.0630  -18.1275  -56.4098 N.am      20 UNK        -0.5000 
    110 CA        -5.1142  -17.3657  -57.0981 C.3       20 UNK         0.1400 
    111 CB        -4.4584  -16.2762  -57.9604 C.3       20 UNK        -0.1800 
    112 C         -6.1728  -16.7463  -56.1612 C.2       20 UNK         0.5000 
    113 O         -7.3108  -16.5375  -56.5830 O.2       20 UNK        -0.5000 
    114 N         -5.7823  -16.4796  -54.9088 N.am      21 UNK        -0.5000 
    115 CA        -6.6523  -15.9620  -53.8554 C.3       21 UNK         0.1400 
    116 CB        -5.7724  -15.3000  -52.7839 C.3       21 UNK        -0.1800 
    117 C         -7.5469  -17.0377  -53.2069 C.2       21 UNK         0.5000 
    118 O         -8.5569  -16.6740  -52.6021 O.2       21 UNK        -0.5000 
    119 N         -7.1586  -18.3172  -53.3070 N.am      22 UNK        -0.5000 
    120 CA        -7.7748  -19.4376  -52.5723 C.3       22 UNK         0.1400 
    121 C         -8.2799  -20.5999  -53.4724 C.2       22 UNK         0.5000 
    122 N         -7.8740  -20.7112  -54.7292 N.am      22 UNK        -0.7600 
    123 O         -9.0941  -21.4043  -53.0266 O.2       22 UNK        -0.5000 
    124 C124       -6.8379  -19.9563  -51.4490 C.3       23 UNK        -0.0398 
    125 S125       -6.6874  -18.7487  -50.0882 S.3       23 UNK        -0.2404 
    126 C126       -5.1550  -19.2851  -49.2640 C.3       23 UNK        -0.0205 
    127 H127        3.6945  -13.2080  -50.9847 H         1 UNK         0.0600 
    128 H128        4.5275  -12.5902  -49.5549 H         1 UNK         0.0600 
    129 H129        3.1955  -11.6736  -50.2674 H         1 UNK         0.0600 
    130 H130        2.2924  -14.8547  -50.5044 H         1 UNK         0.3000 
    131 H131        0.9325  -16.2641  -49.4990 H         1 UNK         0.0600 
    132 H132       -1.0784  -15.3697  -48.3207 H         1 UNK         0.0800 
    133 H133       -0.3327  -13.7963  -48.2043 H         1 UNK         0.0800 
    134 H134       -3.2559  -14.6391  -49.7055 H         1 UNK         0.0800 
    135 H135       -3.1379  -14.7986  -51.4405 H         1 UNK         0.0800 
    136 H136       -4.6996  -16.6251  -49.7104 H         1 UNK         0.1150 
    137 H137       -2.7899  -20.4499  -49.9300 H         1 UNK         0.1150 
    138 H138       -0.6344  -16.9324  -51.0474 H         1 UNK         0.1150 
    139 H139       -0.5545  -20.6701  -50.6720 H         1 UNK         0.0800 
    140 H140        0.0640  -19.4199  -51.7186 H         1 UNK         0.0800 
    141 H141        0.5645  -18.5832  -47.2558 H         1 UNK         0.0800 
    142 H142       -0.9261  -19.0538  -47.9798 H         1 UNK         0.0800 
    143 H143        1.2950  -21.0817  -47.4115 H         1 UNK         0.0600 
    144 H144       -0.2366  -19.7824  -45.3923 H         1 UNK         0.3000 
    145 H145       -0.1315  -22.3692  -42.9671 H         1 UNK         0.0600 
    146 H146        0.8932  -20.4988  -41.6725 H         1 UNK         0.0600 
    147 H147        2.0654  -21.2378  -42.7542 H         1 UNK         0.0600 
    148 H148        1.3419  -19.6910  -43.1742 H         1 UNK         0.0600 
    149 H149       -1.1442  -19.6478  -43.1368 H         1 UNK         0.3000 
    150 H150       -4.4307  -20.5950  -44.2003 H         1 UNK         0.0600 
    151 H151       -4.4552  -21.0541  -41.7409 H         1 UNK         0.0600 
    152 H152       -5.0913  -19.4568  -42.1002 H         1 UNK         0.0600 
    153 H153       -3.4585  -19.6319  -41.4553 H         1 UNK         0.0600 
    154 H154       -3.3309  -18.0907  -43.3873 H         1 UNK         0.3000 
    155 H155       -1.6965  -17.1797  -46.3442 H         1 UNK         0.0600 
    156 H156       -3.3243  -15.3669  -46.6556 H         1 UNK         0.0600 
    157 H157       -4.4897  -16.1666  -45.5974 H         1 UNK         0.0600 
    158 H158       -4.0659  -16.8801  -47.1461 H         1 UNK         0.0600 
    159 H159       -2.5145  -15.5013  -44.2690 H         1 UNK         0.3000 
    160 H160       -0.5314  -14.7432  -43.0423 H         1 UNK         0.0600 
    161 H161       -2.0333  -16.5887  -41.1050 H         1 UNK         0.0600 
    162 H162       -2.6909  -15.2158  -41.9786 H         1 UNK         0.0600 
    163 H163       -1.5038  -14.9529  -40.7150 H         1 UNK         0.0600 
    164 H164        1.3830  -15.3731  -42.2574 H         1 UNK         0.3000 
    165 H165        2.4911  -17.5772  -39.7146 H         1 UNK         0.0600 
    166 H166        3.2089  -17.4108  -42.6782 H         1 UNK         0.0600 
    167 H167        4.3847  -17.7432  -41.4072 H         1 UNK         0.0600 
    168 H168        3.0596  -18.8574  -41.6885 H         1 UNK         0.0600 
    169 H169        3.1180  -15.1396  -41.3456 H         1 UNK         0.3000 
    170 H170        3.5237  -13.1877  -38.4166 H         1 UNK         0.0600 
    171 H171        5.7812  -14.2516  -38.5548 H         1 UNK         0.0600 
    172 H172        5.7395  -14.1420  -40.3105 H         1 UNK         0.0600 
    173 H173        5.7734  -12.6757  -39.3299 H         1 UNK         0.0600 
    174 H174        3.9857  -12.6644  -41.2001 H         1 UNK         0.3000 
    175 H175        0.7177  -12.0952  -42.2234 H         1 UNK         0.0600 
    176 H176        2.5847   -9.8076  -41.3993 H         1 UNK         0.0600 
    177 H177        1.2622   -9.7027  -42.5626 H         1 UNK         0.0600 
    178 H178        0.9188  -10.0005  -40.8673 H         1 UNK         0.0600 
    179 H179        3.0471  -11.1665  -43.4503 H         1 UNK         0.3000 
    180 H180        3.4498  -12.3564  -45.4753 H         1 UNK         0.0600 
    181 H181        5.6206  -13.6295  -43.7194 H         1 UNK         0.0600 
    182 H182        5.3664  -11.9187  -44.0113 H         1 UNK         0.0600 
    183 H183        5.9020  -12.9533  -45.3235 H         1 UNK         0.0600 
    184 H184        3.1060  -14.2488  -46.5004 H         1 UNK         0.3000 
    185 H185        4.5780  -17.0830  -46.8003 H         1 UNK         0.0600 
    186 H186        2.7964  -18.7761  -46.4028 H         1 UNK         0.0600 
    187 H187        3.6636  -18.3969  -44.9296 H         1 UNK         0.0600 
    188 H188        2.0604  -17.7313  -45.1842 H         1 UNK         0.0600 
    189 H189        3.3225  -16.2622  -48.3921 H         1 UNK         0.3000 
    190 H190       -2.2450  -20.9677  -46.7738 H         1 UNK         0.3000 
    191 H191       -3.1237  -22.6242  -48.8355 H         1 UNK         0.0600 
    192 H192       -4.5808  -21.2488  -47.2696 H         1 UNK         0.0600 
    193 H193       -5.1545  -22.8948  -47.4893 H         1 UNK         0.0600 
    194 H194       -4.3127  -22.4429  -46.0146 H         1 UNK         0.0600 
    195 H195       -2.0602  -23.5609  -45.5293 H         1 UNK         0.3000 
    196 H196       -2.4533  -26.3531  -45.8101 H         1 UNK         0.0600 
    197 H197       -0.9654  -26.4940  -43.8101 H         1 UNK         0.0600 
    198 H198       -2.1696  -25.2279  -43.6204 H         1 UNK         0.0600 
    199 H199       -0.5051  -24.8085  -44.0170 H         1 UNK         0.0600 
    200 H200        0.4224  -24.3198  -46.4961 H         1 UNK         0.3000 
    201 H201        2.1668  -26.4815  -47.1748 H         1 UNK         0.0600 
    202 H202        3.0029  -24.2762  -46.4409 H         1 UNK         0.0600 
    203 H203        2.3056  -23.4980  -47.8589 H         1 UNK         0.0600 
    204 H204        3.6266  -24.6466  -48.0416 H         1 UNK         0.0600 
    205 H205        0.2411  -24.2199  -49.2146 H         1 UNK         0.3000 
    206 H206        1.1637  -25.4149  -51.6963 H         1 UNK         0.0600 
    207 H207        0.6982  -22.9653  -51.4136 H         1 UNK         0.0600 
    208 H208       -0.2593  -23.6623  -52.7099 H         1 UNK         0.0600 
    209 H209       -1.0095  -23.3192  -51.1569 H         1 UNK         0.0600 
    210 H210       -1.3911  -26.2014  -49.5451 H         1 UNK         0.3000 
    211 H211       -3.2488  -27.4050  -49.5739 H         1 UNK         0.0600 
    212 H212       -2.4523  -28.5410  -52.3074 H         1 UNK         0.0600 
    213 H213       -3.6506  -29.1927  -51.2021 H         1 UNK         0.0600 
    214 H214       -1.9530  -29.2021  -50.7510 H         1 UNK         0.0600 
    215 H215       -3.3816  -24.8593  -50.0787 H         1 UNK         0.3000 
    216 H216       -4.5400  -23.1012  -50.7420 H         1 UNK         0.0600 
    217 H217       -6.4637  -24.4845  -49.9693 H         1 UNK         0.0600 
    218 H218       -6.7072  -25.0761  -51.6128 H         1 UNK         0.0600 
    219 H219       -6.9377  -23.3750  -51.2437 H         1 UNK         0.0600 
    220 H220       -2.9146  -24.6580  -52.9414 H         1 UNK         0.3000 
    221 H221       -4.0807  -23.7613  -55.4314 H         1 UNK         0.0600 
    222 H222       -1.2926  -24.8688  -54.8313 H         1 UNK         0.0600 
    223 H223       -2.7100  -25.8368  -55.2330 H         1 UNK         0.0600 
    224 H224       -2.0414  -24.7199  -56.4138 H         1 UNK         0.0600 
    225 H225       -4.3545  -21.4920  -54.6294 H         1 UNK         0.3000 
    226 H226       -2.2231  -19.8143  -55.7638 H         1 UNK         0.0600 
    227 H227       -2.3938  -18.2102  -53.8425 H         1 UNK         0.0600 
    228 H228       -3.4779  -19.3085  -52.9952 H         1 UNK         0.0600 
    229 H229       -1.8008  -19.7659  -53.2830 H         1 UNK         0.0600 
    230 H230       -3.1135  -17.8214  -56.5675 H         1 UNK         0.3000 
    231 H231       -5.6384  -18.0561  -57.7623 H         1 UNK         0.0600 
    232 H232       -5.2095  -15.7062  -58.5090 H         1 UNK         0.0600 
    233 H233       -3.7809  -16.7091  -58.6966 H         1 UNK         0.0600 
    234 H234       -3.8902  -15.5708  -57.3529 H         1 UNK         0.0600 
    235 H235       -4.8260  -16.6759  -54.6541 H         1 UNK         0.3000 
    236 H236       -7.3062  -15.1977  -54.2807 H         1 UNK         0.0600 
    237 H237       -5.1727  -14.4931  -53.2054 H         1 UNK         0.0600 
    238 H238       -6.3799  -14.8710  -51.9859 H         1 UNK         0.0600 
    239 H239       -5.0953  -16.0223  -52.3272 H         1 UNK         0.0600 
    240 H240       -6.3619  -18.5499  -53.8855 H         1 UNK         0.3000 
    241 H241       -8.6854  -19.0836  -52.0855 H         1 UNK         0.0600 
    242 H242       -8.2259  -21.4699  -55.2895 H         1 UNK         0.3800 
    243 H243       -7.0968  -20.1548  -55.0765 H         1 UNK         0.3800 
    244 H244       -5.8498  -20.1864  -51.8520 H         1 UNK         0.0800 
    245 H245       -7.2188  -20.8830  -51.0165 H         1 UNK         0.0800 
    246 H246       -5.2322  -19.0527  -48.2012 H         1 UNK         0.0800 
    247 H247       -5.0787  -20.3700  -49.3409 H         1 UNK         0.0800 
@<TRIPOS>BOND
     1    1    2 1    
     2    1  127 1    
     3    1  128 1    
     4    1  129 1    
     5    2    3 2    
     6    2    4 am   BACKBONE|DICT|INTERRES
     7    4    5 1    
     8    4  130 1    
     9    5    6 1    
    10    5   65 1    
    11    5  131 1    
    12    6    7 1    
    13    6  132 1    
    14    6  133 1    
    15    7    8 1    
    16    8    9 1    
    17    8  134 1    
    18    8  135 1    
    19    9   10 ar   
    20    9   14 ar   
    21   10   11 ar   
    22   10  136 1    
    23   11   12 ar   
    24   11  126 1    
    25   12   13 ar   
    26   12  137 1    
    27   13   14 ar   
    28   13   15 1    
    29   14  138 1    
    30   15   16 1    
    31   15  139 1    
    32   15  140 1    
    33   16   17 1    
    34   17   18 1    
    35   17  141 1    
    36   17  142 1    
    37   18   19 1    
    38   18   67 1    
    39   18  143 1    
    40   19   20 am   BACKBONE|DICT|INTERRES
    41   19  144 1    
    42   20   21 2    
    43   20   22 1    
    44   22   23 1    
    45   22   24 1    
    46   22  145 1    
    47   23  146 1    
    48   23  147 1    
    49   23  148 1    
    50   24   25 am   BACKBONE|DICT|INTERRES
    51   24  149 1    
    52   25   26 2    
    53   25   27 1    
    54   27   28 1    
    55   27   29 1    
    56   27  150 1    
    57   28  151 1    
    58   28  152 1    
    59   28  153 1    
    60   29   30 am   BACKBONE|DICT|INTERRES
    61   29  154 1    
    62   30   31 2    
    63   30   32 1    
    64   32   33 1    
    65   32   34 1    
    66   32  155 1    
    67   33  156 1    
    68   33  157 1    
    69   33  158 1    
    70   34   35 am   BACKBONE|DICT|INTERRES
    71   34  159 1    
    72   35   36 2    
    73   35   37 1    
    74   37   38 1    
    75   37   39 1    
    76   37  160 1    
    77   38  161 1    
    78   38  162 1    
    79   38  163 1    
    80   39   40 am   BACKBONE|DICT|INTERRES
    81   39  164 1    
    82   40   41 2    
    83   40   42 1    
    84   42   43 1    
    85   42   44 1    
    86   42  165 1    
    87   43  166 1    
    88   43  167 1    
    89   43  168 1    
    90   44   45 am   BACKBONE|DICT|INTERRES
    91   44  169 1    
    92   45   46 2    
    93   45   47 1    
    94   47   48 1    
    95   47   49 1    
    96   47  170 1    
    97   48  171 1    
    98   48  172 1    
    99   48  173 1    
   100   49   50 am   BACKBONE|DICT|INTERRES
   101   49  174 1    
   102   50   51 2    
   103   50   52 1    
   104   52   53 1    
   105   52   54 1    
   106   52  175 1    
   107   53  176 1    
   108   53  177 1    
   109   53  178 1    
   110   54   55 am   BACKBONE|DICT|INTERRES
   111   54  179 1    
   112   55   56 2    
   113   55   57 1    
   114   57   58 1    
   115   57   59 1    
   116   57  180 1    
   117   58  181 1    
   118   58  182 1    
   119   58  183 1    
   120   59   60 am   BACKBONE|DICT|INTERRES
   121   59  184 1    
   122   60   61 2    
   123   60   62 1    
   124   62   63 1    
   125   62   64 1    
   126   62  185 1    
   127   63  186 1    
   128   63  187 1    
   129   63  188 1    
   130   64   65 am   BACKBONE|DICT|INTERRES
   131   64  189 1    
   132   65   66 2    
   133   67   68 2    
   134   67   69 am   BACKBONE|DICT|INTERRES
   135   69   70 1    
   136   69  190 1    
   137   70   71 1    
   138   70   72 1    
   139   70  191 1    
   140   71  192 1    
   141   71  193 1    
   142   71  194 1    
   143   72   73 2    
   144   72   74 am   BACKBONE|DICT|INTERRES
   145   74   75 1    
   146   74  195 1    
   147   75   76 1    
   148   75   77 1    
   149   75  196 1    
   150   76  197 1    
   151   76  198 1    
   152   76  199 1    
   153   77   78 2    
   154   77   79 am   BACKBONE|DICT|INTERRES
   155   79   80 1    
   156   79  200 1    
   157   80   81 1    
   158   80   82 1    
   159   80  201 1    
   160   81  202 1    
   161   81  203 1    
   162   81  204 1    
   163   82   83 2    
   164   82   84 am   BACKBONE|DICT|INTERRES
   165   84   85 1    
   166   84  205 1    
   167   85   86 1    
   168   85   87 1    
   169   85  206 1    
   170   86  207 1    
   171   86  208 1    
   172   86  209 1    
   173   87   88 2    
   174   87   89 am   BACKBONE|DICT|INTERRES
   175   89   90 1    
   176   89  210 1    
   177   90   91 1    
   178   90   92 1    
   179   90  211 1    
   180   91  212 1    
   181   91  213 1    
   182   91  214 1    
   183   92   93 2    
   184   92   94 am   BACKBONE|DICT|INTERRES
   185   94   95 1    
   186   94  215 1    
   187   95   96 1    
   188   95   97 1    
   189   95  216 1    
   190   96  217 1    
   191   96  218 1    
   192   96  219 1    
   193   97   98 2    
   194   97   99 am   BACKBONE|DICT|INTERRES
   195   99  100 1    
   196   99  220 1    
   197  100  101 1    
   198  100  102 1    
   199  100  221 1    
   200  101  222 1    
   201  101  223 1    
   202  101  224 1    
   203  102  103 2    
   204  102  104 am   BACKBONE|DICT|INTERRES
   205  104  105 1    
   206  104  225 1    
   207  105  106 1    
   208  105  107 1    
   209  105  226 1    
   210  106  227 1    
   211  106  228 1    
   212  106  229 1    
   213  107  108 2    
   214  107  109 am   BACKBONE|DICT|INTERRES
   215  109  110 1    
   216  109  230 1    
   217  110  111 1    
   218  110  112 1    
   219  110  231 1    
   220  111  232 1    
   221  111  233 1    
   222  111  234 1    
   223  112  113 2    
   224  112  114 am   BACKBONE|DICT|INTERRES
   225  114  115 1    
   226  114  235 1    
   227  115  116 1    
   228  115  117 1    
   229  115  236 1    
   230  116  237 1    
   231  116  238 1    
   232  116  239 1    
   233  117  118 2    
   234  117  119 am   BACKBONE|DICT|INTERRES
   235  119  120 1    
   236  119  240 1    
   237  120  121 1    
   238  120  124 1    
   239  120  241 1    
   240  121  122 am   BACKBONE|DICT|INTERRES
   241  121  123 2    
   242  122  242 1    
   243  122  243 1    
   244  124  125 1    
   245  124  244 1    
   246  124  245 1    
   247  125  126 1    
   248  126  246 1    
   249  126  247 1    
@<TRIPOS>SUBSTRUCTURE
     1 UNK         1 GROUP             0       ****    0 ROOT    
