@<TRIPOS>MOLECULE
3R540
247   249    1
SMALL
USER_CHARGES


@<TRIPOS>ATOM
      1 CA          1.6952   -8.9829  -46.3029 C.3       0 UNK        -0.1800 
      2 C           1.3947  -10.4271  -45.9317 C.2       0 UNK         0.5000 
      3 O           2.0092  -10.9605  -45.0087 O.2       0 UNK        -0.5000 
      4 N           0.4407  -11.0568  -46.6316 N.am      1 UNK        -0.5000 
      5 CA          0.0166  -12.4514  -46.4389 C.3       1 UNK         0.1400 
      6 C6         -1.0245  -12.8701  -47.5075 C.3       23 UNK        -0.0398 
      7 S7         -1.1486  -14.6754  -47.7516 S.3       23 UNK        -0.2404 
      8 C8         -0.0367  -14.9183  -49.1720 C.3       23 UNK        -0.0205 
      9 C9         -0.2101  -16.2957  -49.7948 C.ar      23 UNK        -0.0193 
     10 C10        -1.3018  -16.5395  -50.6341 C.ar      23 UNK        -0.1150 
     11 C11        -1.4541  -17.7783  -51.2603 C.ar      23 UNK        -0.0193 
     12 C12        -0.4946  -18.7694  -51.0516 C.ar      23 UNK        -0.1150 
     13 C13         0.5833  -18.5591  -50.1876 C.ar      23 UNK        -0.0193 
     14 C14         0.7229  -17.3141  -49.5631 C.ar      23 UNK        -0.1150 
     15 C15         1.6087  -19.6660  -49.9624 C.3       23 UNK        -0.0205 
     16 S16         1.1225  -20.8429  -48.6502 S.3       23 UNK        -0.2404 
     17 C17        -0.2325  -21.7901  -49.4423 C.3       23 UNK        -0.0398 
     18 CA         -1.6407  -21.5334  -48.8371 C.3       11 UNK         0.1400 
     19 N          -1.8364  -20.1309  -48.4514 N.am      11 UNK        -0.5000 
     20 C          -2.7580  -19.6568  -47.6058 C.2       10 UNK         0.5000 
     21 O          -3.7262  -20.3127  -47.2191 O.2       10 UNK        -0.5000 
     22 CA         -2.5240  -18.2162  -47.1108 C.3       10 UNK         0.1400 
     23 CB         -3.4390  -17.8262  -45.9324 C.3       10 UNK        -0.1800 
     24 N          -1.1121  -17.9748  -46.7836 N.am      10 UNK        -0.5000 
     25 C          -0.3717  -18.6237  -45.8715 C.2       9 UNK         0.5000 
     26 O          -0.8082  -19.5066  -45.1269 O.2       9 UNK        -0.5000 
     27 CA          1.1107  -18.2222  -45.7769 C.3       9 UNK         0.1400 
     28 CB          1.2803  -16.6943  -45.6651 C.3       9 UNK        -0.1800 
     29 N           1.6881  -18.9168  -44.6281 N.am      9 UNK        -0.5000 
     30 C           2.9770  -18.9705  -44.2822 C.2       8 UNK         0.5000 
     31 O           3.8804  -18.3851  -44.8828 O.2       8 UNK        -0.5000 
     32 CA          3.3244  -19.8432  -43.0686 C.3       8 UNK         0.1400 
     33 CB          4.1430  -21.0712  -43.5201 C.3       8 UNK        -0.1800 
     34 N           4.0606  -19.0196  -42.1129 N.am      8 UNK        -0.5000 
     35 C           4.5025  -19.3903  -40.9045 C.2       7 UNK         0.5000 
     36 O           4.3448  -20.5129  -40.4236 O.2       7 UNK        -0.5000 
     37 CA          5.2052  -18.3056  -40.0732 C.3       7 UNK         0.1400 
     38 CB          6.3929  -17.6790  -40.8251 C.3       7 UNK        -0.1800 
     39 N           4.2367  -17.2689  -39.7328 N.am      7 UNK        -0.5000 
     40 C           3.5700  -17.1930  -38.5722 C.2       6 UNK         0.5000 
     41 O           3.8055  -17.9090  -37.5979 O.2       6 UNK        -0.5000 
     42 CA          2.4300  -16.1559  -38.4844 C.3       6 UNK         0.1400 
     43 CB          2.9365  -14.8511  -37.8525 C.3       6 UNK        -0.1800 
     44 N           1.8263  -15.8600  -39.7853 N.am      6 UNK        -0.5000 
     45 C           1.1306  -16.7446  -40.5166 C.2       5 UNK         0.5000 
     46 O           0.8142  -17.8620  -40.1073 O.2       5 UNK        -0.5000 
     47 CA          0.7521  -16.3455  -41.9569 C.3       5 UNK         0.1400 
     48 CB         -0.7433  -16.0045  -42.0474 C.3       5 UNK        -0.1800 
     49 N           1.5349  -15.2401  -42.5172 N.am      5 UNK        -0.5000 
     50 C           2.8664  -15.2122  -42.6772 C.2       4 UNK         0.5000 
     51 O           3.6098  -16.1454  -42.3732 O.2       4 UNK        -0.5000 
     52 CA          3.4794  -13.9024  -43.2071 C.3       4 UNK         0.1400 
     53 CB          3.6328  -13.9491  -44.7334 C.3       4 UNK        -0.1800 
     54 N           2.7186  -12.7074  -42.8359 N.am      4 UNK        -0.5000 
     55 C           2.5034  -12.2868  -41.5808 C.2       3 UNK         0.5000 
     56 O           2.9235  -12.8705  -40.5816 O.2       3 UNK        -0.5000 
     57 CA          1.6375  -11.0274  -41.4186 C.3       3 UNK         0.1400 
     58 CB          2.4446   -9.7563  -41.7260 C.3       3 UNK        -0.1800 
     59 N           0.4615  -11.0880  -42.2855 N.am      3 UNK        -0.5000 
     60 C          -0.6584  -11.7606  -41.9851 C.2       2 UNK         0.5000 
     61 O          -0.8447  -12.3295  -40.9093 O.2       2 UNK        -0.5000 
     62 CA         -1.7545  -11.8205  -43.0677 C.3       2 UNK         0.1400 
     63 CB         -2.7672  -10.6823  -42.8708 C.3       2 UNK        -0.1800 
     64 N          -1.2333  -11.7649  -44.4353 N.am      2 UNK        -0.5000 
     65 C          -0.4887  -12.7241  -45.0043 C.2       1 UNK         0.5000 
     66 O          -0.1512  -13.7538  -44.4234 O.2       1 UNK        -0.5000 
     67 C          -2.7627  -22.1095  -49.7346 C.2       11 UNK         0.5000 
     68 O          -2.7182  -23.2892  -50.0821 O.2       11 UNK        -0.5000 
     69 N          -3.7461  -21.2803  -50.1082 N.am      12 UNK        -0.5000 
     70 CA         -4.9993  -21.7034  -50.7340 C.3       12 UNK         0.1400 
     71 CB         -5.5527  -20.5557  -51.5879 C.3       12 UNK        -0.1800 
     72 C          -6.0466  -22.1623  -49.7013 C.2       12 UNK         0.5000 
     73 O          -6.9400  -22.9281  -50.0614 O.2       12 UNK        -0.5000 
     74 N          -5.9165  -21.7073  -48.4483 N.am      13 UNK        -0.5000 
     75 CA         -6.7477  -22.1162  -47.3180 C.3       13 UNK         0.1400 
     76 CB         -7.1845  -20.8706  -46.5301 C.3       13 UNK        -0.1800 
     77 C          -5.9705  -23.0868  -46.4163 C.2       13 UNK         0.5000 
     78 O          -6.5091  -24.1253  -46.0327 O.2       13 UNK        -0.5000 
     79 N          -4.7090  -22.7484  -46.1153 N.am      14 UNK        -0.5000 
     80 CA         -3.7789  -23.5739  -45.3506 C.3       14 UNK         0.1400 
     81 CB         -2.6274  -22.6942  -44.8354 C.3       14 UNK        -0.1800 
     82 C          -3.2723  -24.7345  -46.2234 C.2       14 UNK         0.5000 
     83 O          -2.4269  -24.5212  -47.0921 O.2       14 UNK        -0.5000 
     84 N          -3.8548  -25.9237  -46.0198 N.am      15 UNK        -0.5000 
     85 CA         -3.6116  -27.1968  -46.7176 C.3       15 UNK         0.1400 
     86 CB         -2.1336  -27.6236  -46.6041 C.3       15 UNK        -0.1800 
     87 C          -4.0988  -27.2523  -48.1830 C.2       15 UNK         0.5000 
     88 O          -4.1334  -28.3432  -48.7533 O.2       15 UNK        -0.5000 
     89 N          -4.4785  -26.1026  -48.7601 N.am      16 UNK        -0.5000 
     90 CA         -4.9710  -25.9052  -50.1292 C.3       16 UNK         0.1400 
     91 CB         -6.3382  -26.5907  -50.3284 C.3       16 UNK        -0.1800 
     92 C          -3.9437  -26.2723  -51.2204 C.2       16 UNK         0.5000 
     93 O          -4.3243  -26.6254  -52.3375 O.2       16 UNK        -0.5000 
     94 N          -2.6530  -26.1529  -50.8848 N.am      17 UNK        -0.5000 
     95 CA         -1.5174  -26.4463  -51.7568 C.3       17 UNK         0.1400 
     96 CB         -0.2335  -26.4297  -50.9133 C.3       17 UNK        -0.1800 
     97 C          -1.3910  -25.4772  -52.9472 C.2       17 UNK         0.5000 
     98 O          -0.9109  -25.8845  -54.0055 O.2       17 UNK        -0.5000 
     99 N          -1.8249  -24.2244  -52.7562 N.am      18 UNK        -0.5000 
    100 CA        -1.7555  -23.1544  -53.7536 C.3       18 UNK         0.1400 
    101 CB        -0.9774  -21.9733  -53.1616 C.3       18 UNK        -0.1800 
    102 C         -3.1481  -22.7002  -54.2194 C.2       18 UNK         0.5000 
    103 O         -3.2602  -21.6201  -54.7996 O.2       18 UNK        -0.5000 
    104 N         -4.1910  -23.5085  -53.9807 N.am      19 UNK        -0.5000 
    105 CA        -5.5749  -23.1944  -54.3553 C.3       19 UNK         0.1400 
    106 CB        -6.5126  -24.2770  -53.8038 C.3       19 UNK        -0.1800 
    107 C         -5.7709  -23.0028  -55.8723 C.2       19 UNK         0.5000 
    108 O         -6.5099  -22.1091  -56.2854 O.2       19 UNK        -0.5000 
    109 N         -5.0566  -23.8057  -56.6714 N.am      20 UNK        -0.5000 
    110 CA        -5.0274  -23.7075  -58.1315 C.3       20 UNK         0.1400 
    111 CB        -4.5175  -25.0392  -58.7041 C.3       20 UNK        -0.1800 
    112 C         -4.1670  -22.5363  -58.6503 C.2       20 UNK         0.5000 
    113 O         -4.3578  -22.1149  -59.7917 O.2       20 UNK        -0.5000 
    114 N         -3.2305  -22.0458  -57.8263 N.am      21 UNK        -0.5000 
    115 CA        -2.3150  -20.9578  -58.1663 C.3       21 UNK         0.1400 
    116 CB        -0.9780  -21.1601  -57.4339 C.3       21 UNK        -0.1800 
    117 C         -2.9277  -19.5891  -57.8329 C.2       21 UNK         0.5000 
    118 O         -2.9515  -18.7095  -58.6951 O.2       21 UNK        -0.5000 
    119 N         -3.4158  -19.4362  -56.5955 N.am      22 UNK        -0.5000 
    120 CA        -4.0671  -18.2097  -56.1104 C.3       22 UNK         0.1400 
    121 C         -5.5329  -18.0394  -56.6044 C.2       22 UNK         0.5000 
    122 N         -6.2351  -19.0952  -56.9983 N.am      22 UNK        -0.7600 
    123 O         -6.0416  -16.9223  -56.6365 O.2       22 UNK        -0.5000 
    124 C124       -4.0038  -18.0896  -54.5679 C.3       23 UNK        -0.0398 
    125 S125       -2.3065  -17.9575  -53.9073 S.3       23 UNK        -0.2404 
    126 C126       -2.6706  -18.0641  -52.1281 C.3       23 UNK        -0.0205 
    127 H127        2.7366   -8.8851  -46.6091 H         1 UNK         0.0600 
    128 H128        1.5294   -8.3336  -45.4432 H         1 UNK         0.0600 
    129 H129        1.0647   -8.6339  -47.1209 H         1 UNK         0.0600 
    130 H130       -0.0288  -10.5540  -47.3713 H         1 UNK         0.3000 
    131 H131        0.9103  -13.0611  -46.5853 H         1 UNK         0.0600 
    132 H132       -2.0151  -12.4851  -47.2586 H         1 UNK         0.0800 
    133 H133       -0.7754  -12.4175  -48.4681 H         1 UNK         0.0800 
    134 H134        0.9956  -14.7652  -48.8535 H         1 UNK         0.0800 
    135 H135       -0.2391  -14.1630  -49.9329 H         1 UNK         0.0800 
    136 H136       -2.0320  -15.7597  -50.8007 H         1 UNK         0.1150 
    137 H137       -0.5960  -19.7091  -51.5656 H         1 UNK         0.1150 
    138 H138        1.5695  -17.1315  -48.9163 H         1 UNK         0.1150 
    139 H139        1.7860  -20.2079  -50.8928 H         1 UNK         0.0800 
    140 H140        2.5683  -19.2245  -49.6891 H         1 UNK         0.0800 
    141 H141        0.0092  -22.8506  -49.3518 H         1 UNK         0.0800 
    142 H142       -0.2148  -21.5886  -50.5084 H         1 UNK         0.0800 
    143 H143       -1.6869  -22.1066  -47.9113 H         1 UNK         0.0600 
    144 H144       -1.0807  -19.5135  -48.7147 H         1 UNK         0.3000 
    145 H145       -2.7647  -17.5600  -47.9484 H         1 UNK         0.0600 
    146 H146       -4.4898  -17.8875  -46.2180 H         1 UNK         0.0600 
    147 H147       -3.2970  -18.4812  -45.0723 H         1 UNK         0.0600 
    148 H148       -3.2486  -16.8024  -45.6099 H         1 UNK         0.0600 
    149 H149       -0.6721  -17.2418  -47.3231 H         1 UNK         0.3000 
    150 H150        1.6187  -18.5761  -46.6753 H         1 UNK         0.0600 
    151 H151        1.0503  -16.2044  -46.6088 H         1 UNK         0.0600 
    152 H152        2.3005  -16.4121  -45.4164 H         1 UNK         0.0600 
    153 H153        0.6192  -16.2727  -44.9099 H         1 UNK         0.0600 
    154 H154        1.0007  -19.4649  -44.1229 H         1 UNK         0.3000 
    155 H155        2.4030  -20.1816  -42.5903 H         1 UNK         0.0600 
    156 H156        5.1241  -20.7812  -43.8982 H         1 UNK         0.0600 
    157 H157        3.6299  -21.6088  -44.3186 H         1 UNK         0.0600 
    158 H158        4.2932  -21.7815  -42.7078 H         1 UNK         0.0600 
    159 H159        4.1839  -18.0524  -42.4028 H         1 UNK         0.3000 
    160 H160        5.5971  -18.7750  -39.1683 H         1 UNK         0.0600 
    161 H161        6.0806  -17.1451  -41.7230 H         1 UNK         0.0600 
    162 H162        7.1081  -18.4442  -41.1293 H         1 UNK         0.0600 
    163 H163        6.9254  -16.9713  -40.1896 H         1 UNK         0.0600 
    164 H164        3.9427  -16.6744  -40.5011 H         1 UNK         0.3000 
    165 H165        1.6532  -16.5697  -37.8382 H         1 UNK         0.0600 
    166 H166        2.1347  -14.1182  -37.7602 H         1 UNK         0.0600 
    167 H167        3.3315  -15.0302  -36.8517 H         1 UNK         0.0600 
    168 H168        3.7351  -14.4023  -38.4443 H         1 UNK         0.0600 
    169 H169        2.0456  -14.9582  -40.1907 H         1 UNK         0.3000 
    170 H170        0.9358  -17.2213  -42.5791 H         1 UNK         0.0600 
    171 H171       -1.3557  -16.7997  -41.6202 H         1 UNK         0.0600 
    172 H172       -0.9773  -15.0843  -41.5114 H         1 UNK         0.0600 
    173 H173       -1.0596  -15.8811  -43.0830 H         1 UNK         0.0600 
    174 H174        1.0008  -14.4553  -42.8748 H         1 UNK         0.3000 
    175 H175        4.4746  -13.8097  -42.7679 H         1 UNK         0.0600 
    176 H176        4.1517  -13.0651  -45.1046 H         1 UNK         0.0600 
    177 H177        2.6641  -13.9994  -45.2301 H         1 UNK         0.0600 
    178 H178        4.2107  -14.8209  -45.0431 H         1 UNK         0.0600 
    179 H179        2.3605  -12.1454  -43.6046 H         1 UNK         0.3000 
    180 H180        1.3136  -10.9725  -40.3770 H         1 UNK         0.0600 
    181 H181        1.8417   -8.8613  -41.5720 H         1 UNK         0.0600 
    182 H182        2.8090   -9.7411  -42.7534 H         1 UNK         0.0600 
    183 H183        3.3128   -9.6801  -41.0703 H         1 UNK         0.0600 
    184 H184        0.5600  -10.6953  -43.2112 H         1 UNK         0.3000 
    185 H185       -2.2804  -12.7702  -42.9475 H         1 UNK         0.0600 
    186 H186       -3.5932  -10.7621  -43.5777 H         1 UNK         0.0600 
    187 H187       -3.1957  -10.7100  -41.8680 H         1 UNK         0.0600 
    188 H188       -2.3038   -9.7037  -43.0029 H         1 UNK         0.0600 
    189 H189       -1.4431  -10.9342  -44.9692 H         1 UNK         0.3000 
    190 H190       -3.6953  -20.3238  -49.7912 H         1 UNK         0.3000 
    191 H191       -4.8062  -22.5505  -51.3941 H         1 UNK         0.0600 
    192 H192       -6.5400  -20.7968  -51.9843 H         1 UNK         0.0600 
    193 H193       -4.9026  -20.3731  -52.4405 H         1 UNK         0.0600 
    194 H194       -5.6437  -19.6298  -51.0190 H         1 UNK         0.0600 
    195 H195       -5.1308  -21.1074  -48.2182 H         1 UNK         0.3000 
    196 H196       -7.6478  -22.6274  -47.6660 H         1 UNK         0.0600 
    197 H197       -6.3306  -20.3074  -46.1511 H         1 UNK         0.0600 
    198 H198       -7.7747  -20.1998  -47.1546 H         1 UNK         0.0600 
    199 H199       -7.8023  -21.1468  -45.6748 H         1 UNK         0.0600 
    200 H200       -4.3375  -21.8718  -46.4731 H         1 UNK         0.3000 
    201 H201       -4.2992  -23.9821  -44.4815 H         1 UNK         0.0600 
    202 H202       -2.9977  -21.9078  -44.1774 H         1 UNK         0.0600 
    203 H203       -2.0825  -22.2119  -45.6462 H         1 UNK         0.0600 
    204 H204       -1.9101  -23.2854  -44.2652 H         1 UNK         0.0600 
    205 H205       -4.5971  -25.9598  -45.3337 H         1 UNK         0.3000 
    206 H206       -4.2048  -27.9386  -46.1808 H         1 UNK         0.0600 
    207 H207       -1.7974  -27.6139  -45.5673 H         1 UNK         0.0600 
    208 H208       -1.9916  -28.6373  -46.9807 H         1 UNK         0.0600 
    209 H209       -1.4743  -26.9724  -47.1785 H         1 UNK         0.0600 
    210 H210       -4.3487  -25.2605  -48.2171 H         1 UNK         0.3000 
    211 H211       -5.1245  -24.8342  -50.2366 H         1 UNK         0.0600 
    212 H212       -6.7710  -26.3325  -51.2952 H         1 UNK         0.0600 
    213 H213       -7.0492  -26.2756  -49.5646 H         1 UNK         0.0600 
    214 H214       -6.2578  -27.6771  -50.2875 H         1 UNK         0.0600 
    215 H215       -2.4384  -25.7816  -49.9693 H         1 UNK         0.3000 
    216 H216       -1.6528  -27.4520  -52.1600 H         1 UNK         0.0600 
    217 H217       -0.0629  -25.4515  -50.4614 H         1 UNK         0.0600 
    218 H218        0.6390  -26.6676  -51.5233 H         1 UNK         0.0600 
    219 H219       -0.2793  -27.1663  -50.1109 H         1 UNK         0.0600 
    220 H220       -2.2041  -23.9782  -51.8454 H         1 UNK         0.3000 
    221 H221       -1.2233  -23.4912  -54.6451 H         1 UNK         0.0600 
    222 H222       -0.0125  -22.2891  -52.7654 H         1 UNK         0.0600 
    223 H223       -1.5519  -21.5071  -52.3638 H         1 UNK         0.0600 
    224 H224       -0.7837  -21.2061  -53.9122 H         1 UNK         0.0600 
    225 H225       -4.0254  -24.3976  -53.5291 H         1 UNK         0.3000 
    226 H226       -5.8400  -22.2483  -53.8819 H         1 UNK         0.0600 
    227 H227       -6.2573  -25.2660  -54.1864 H         1 UNK         0.0600 
    228 H228       -6.4671  -24.3155  -52.7155 H         1 UNK         0.0600 
    229 H229       -7.5491  -24.0744  -54.0767 H         1 UNK         0.0600 
    230 H230       -4.4719  -24.5122  -56.2493 H         1 UNK         0.3000 
    231 H231       -6.0467  -23.5511  -58.4913 H         1 UNK         0.0600 
    232 H232       -3.5013  -25.2572  -58.3732 H         1 UNK         0.0600 
    233 H233       -4.5103  -25.0190  -59.7948 H         1 UNK         0.0600 
    234 H234       -5.1557  -25.8694  -58.4007 H         1 UNK         0.0600 
    235 H235       -3.1908  -22.3889  -56.8773 H         1 UNK         0.3000 
    236 H236       -2.1076  -20.9812  -59.2385 H         1 UNK         0.0600 
    237 H237       -1.0966  -21.1376  -56.3510 H         1 UNK         0.0600 
    238 H238       -0.5235  -22.1142  -57.7008 H         1 UNK         0.0600 
    239 H239       -0.2680  -20.3760  -57.6997 H         1 UNK         0.0600 
    240 H240       -3.3510  -20.2061  -55.9328 H         1 UNK         0.3000 
    241 H241       -3.5154  -17.3599  -56.5177 H         1 UNK         0.0600 
    242 H242       -7.1817  -18.9637  -57.3173 H         1 UNK         0.3800 
    243 H243       -5.8659  -20.0327  -56.9238 H         1 UNK         0.3800 
    244 H244       -4.4959  -18.9492  -54.1149 H         1 UNK         0.0800 
    245 H245       -4.5517  -17.2078  -54.2303 H         1 UNK         0.0800 
    246 H246       -3.4786  -17.3741  -51.8798 H         1 UNK         0.0800 
    247 H247       -3.0385  -19.0648  -51.9050 H         1 UNK         0.0800 
@<TRIPOS>BOND
     1    1    2 1    
     2    1  127 1    
     3    1  128 1    
     4    1  129 1    
     5    2    3 2    
     6    2    4 am   BACKBONE|DICT|INTERRES
     7    4    5 1    
     8    4  130 1    
     9    5    6 1    
    10    5   65 1    
    11    5  131 1    
    12    6    7 1    
    13    6  132 1    
    14    6  133 1    
    15    7    8 1    
    16    8    9 1    
    17    8  134 1    
    18    8  135 1    
    19    9   10 ar   
    20    9   14 ar   
    21   10   11 ar   
    22   10  136 1    
    23   11   12 ar   
    24   11  126 1    
    25   12   13 ar   
    26   12  137 1    
    27   13   14 ar   
    28   13   15 1    
    29   14  138 1    
    30   15   16 1    
    31   15  139 1    
    32   15  140 1    
    33   16   17 1    
    34   17   18 1    
    35   17  141 1    
    36   17  142 1    
    37   18   19 1    
    38   18   67 1    
    39   18  143 1    
    40   19   20 am   BACKBONE|DICT|INTERRES
    41   19  144 1    
    42   20   21 2    
    43   20   22 1    
    44   22   23 1    
    45   22   24 1    
    46   22  145 1    
    47   23  146 1    
    48   23  147 1    
    49   23  148 1    
    50   24   25 am   BACKBONE|DICT|INTERRES
    51   24  149 1    
    52   25   26 2    
    53   25   27 1    
    54   27   28 1    
    55   27   29 1    
    56   27  150 1    
    57   28  151 1    
    58   28  152 1    
    59   28  153 1    
    60   29   30 am   BACKBONE|DICT|INTERRES
    61   29  154 1    
    62   30   31 2    
    63   30   32 1    
    64   32   33 1    
    65   32   34 1    
    66   32  155 1    
    67   33  156 1    
    68   33  157 1    
    69   33  158 1    
    70   34   35 am   BACKBONE|DICT|INTERRES
    71   34  159 1    
    72   35   36 2    
    73   35   37 1    
    74   37   38 1    
    75   37   39 1    
    76   37  160 1    
    77   38  161 1    
    78   38  162 1    
    79   38  163 1    
    80   39   40 am   BACKBONE|DICT|INTERRES
    81   39  164 1    
    82   40   41 2    
    83   40   42 1    
    84   42   43 1    
    85   42   44 1    
    86   42  165 1    
    87   43  166 1    
    88   43  167 1    
    89   43  168 1    
    90   44   45 am   BACKBONE|DICT|INTERRES
    91   44  169 1    
    92   45   46 2    
    93   45   47 1    
    94   47   48 1    
    95   47   49 1    
    96   47  170 1    
    97   48  171 1    
    98   48  172 1    
    99   48  173 1    
   100   49   50 am   BACKBONE|DICT|INTERRES
   101   49  174 1    
   102   50   51 2    
   103   50   52 1    
   104   52   53 1    
   105   52   54 1    
   106   52  175 1    
   107   53  176 1    
   108   53  177 1    
   109   53  178 1    
   110   54   55 am   BACKBONE|DICT|INTERRES
   111   54  179 1    
   112   55   56 2    
   113   55   57 1    
   114   57   58 1    
   115   57   59 1    
   116   57  180 1    
   117   58  181 1    
   118   58  182 1    
   119   58  183 1    
   120   59   60 am   BACKBONE|DICT|INTERRES
   121   59  184 1    
   122   60   61 2    
   123   60   62 1    
   124   62   63 1    
   125   62   64 1    
   126   62  185 1    
   127   63  186 1    
   128   63  187 1    
   129   63  188 1    
   130   64   65 am   BACKBONE|DICT|INTERRES
   131   64  189 1    
   132   65   66 2    
   133   67   68 2    
   134   67   69 am   BACKBONE|DICT|INTERRES
   135   69   70 1    
   136   69  190 1    
   137   70   71 1    
   138   70   72 1    
   139   70  191 1    
   140   71  192 1    
   141   71  193 1    
   142   71  194 1    
   143   72   73 2    
   144   72   74 am   BACKBONE|DICT|INTERRES
   145   74   75 1    
   146   74  195 1    
   147   75   76 1    
   148   75   77 1    
   149   75  196 1    
   150   76  197 1    
   151   76  198 1    
   152   76  199 1    
   153   77   78 2    
   154   77   79 am   BACKBONE|DICT|INTERRES
   155   79   80 1    
   156   79  200 1    
   157   80   81 1    
   158   80   82 1    
   159   80  201 1    
   160   81  202 1    
   161   81  203 1    
   162   81  204 1    
   163   82   83 2    
   164   82   84 am   BACKBONE|DICT|INTERRES
   165   84   85 1    
   166   84  205 1    
   167   85   86 1    
   168   85   87 1    
   169   85  206 1    
   170   86  207 1    
   171   86  208 1    
   172   86  209 1    
   173   87   88 2    
   174   87   89 am   BACKBONE|DICT|INTERRES
   175   89   90 1    
   176   89  210 1    
   177   90   91 1    
   178   90   92 1    
   179   90  211 1    
   180   91  212 1    
   181   91  213 1    
   182   91  214 1    
   183   92   93 2    
   184   92   94 am   BACKBONE|DICT|INTERRES
   185   94   95 1    
   186   94  215 1    
   187   95   96 1    
   188   95   97 1    
   189   95  216 1    
   190   96  217 1    
   191   96  218 1    
   192   96  219 1    
   193   97   98 2    
   194   97   99 am   BACKBONE|DICT|INTERRES
   195   99  100 1    
   196   99  220 1    
   197  100  101 1    
   198  100  102 1    
   199  100  221 1    
   200  101  222 1    
   201  101  223 1    
   202  101  224 1    
   203  102  103 2    
   204  102  104 am   BACKBONE|DICT|INTERRES
   205  104  105 1    
   206  104  225 1    
   207  105  106 1    
   208  105  107 1    
   209  105  226 1    
   210  106  227 1    
   211  106  228 1    
   212  106  229 1    
   213  107  108 2    
   214  107  109 am   BACKBONE|DICT|INTERRES
   215  109  110 1    
   216  109  230 1    
   217  110  111 1    
   218  110  112 1    
   219  110  231 1    
   220  111  232 1    
   221  111  233 1    
   222  111  234 1    
   223  112  113 2    
   224  112  114 am   BACKBONE|DICT|INTERRES
   225  114  115 1    
   226  114  235 1    
   227  115  116 1    
   228  115  117 1    
   229  115  236 1    
   230  116  237 1    
   231  116  238 1    
   232  116  239 1    
   233  117  118 2    
   234  117  119 am   BACKBONE|DICT|INTERRES
   235  119  120 1    
   236  119  240 1    
   237  120  121 1    
   238  120  124 1    
   239  120  241 1    
   240  121  122 am   BACKBONE|DICT|INTERRES
   241  121  123 2    
   242  122  242 1    
   243  122  243 1    
   244  124  125 1    
   245  124  244 1    
   246  124  245 1    
   247  125  126 1    
   248  126  246 1    
   249  126  247 1    
@<TRIPOS>SUBSTRUCTURE
     1 UNK         1 GROUP             0       ****    0 ROOT    
