@<TRIPOS>MOLECULE
3R540
247   249    1
SMALL
USER_CHARGES


@<TRIPOS>ATOM
      1 CA          2.4768  -14.4912  -49.2277 C.3       0 UNK        -0.1800 
      2 C           1.6217  -14.7480  -47.9990 C.2       0 UNK         0.5000 
      3 O           1.9165  -14.2231  -46.9253 O.2       0 UNK        -0.5000 
      4 N           0.5474  -15.5322  -48.1563 N.am      1 UNK        -0.5000 
      5 CA         -0.3837  -15.9275  -47.0894 C.3       1 UNK         0.1400 
      6 C6         -1.3991  -16.9982  -47.5531 C.3       23 UNK        -0.0398 
      7 S7         -2.4044  -16.5014  -48.9989 S.3       23 UNK        -0.2404 
      8 C8         -1.9711  -17.7693  -50.2324 C.3       23 UNK        -0.0205 
      9 C9         -0.5074  -17.7048  -50.6433 C.ar      23 UNK        -0.0193 
     10 C10        -0.0457  -16.6491  -51.4327 C.ar      23 UNK        -0.1150 
     11 C11         1.2918  -16.5966  -51.8330 C.ar      23 UNK        -0.0193 
     12 C12         2.1680  -17.6072  -51.4309 C.ar      23 UNK        -0.1150 
     13 C13         1.7259  -18.6740  -50.6426 C.ar      23 UNK        -0.0193 
     14 C14         0.3806  -18.7102  -50.2498 C.ar      23 UNK        -0.1150 
     15 C15         2.7445  -19.7422  -50.2368 C.3       23 UNK        -0.0205 
     16 S16         2.0614  -21.3923  -49.8557 S.3       23 UNK        -0.2404 
     17 C17         1.6740  -21.1963  -48.0843 C.3       23 UNK        -0.0398 
     18 CA          0.7297  -22.2909  -47.5321 C.3       11 UNK         0.1400 
     19 N           0.6951  -22.2851  -46.0680 N.am      11 UNK        -0.5000 
     20 C           0.2312  -23.2903  -45.3109 C.2       10 UNK         0.5000 
     21 O          -0.1697  -24.3575  -45.7717 O.2       10 UNK        -0.5000 
     22 CA          0.1616  -23.0511  -43.7893 C.3       10 UNK         0.1400 
     23 CB          1.4654  -23.5023  -43.1160 C.3       10 UNK        -0.1800 
     24 N          -0.1046  -21.6530  -43.4462 N.am      10 UNK        -0.5000 
     25 C          -1.2455  -21.0065  -43.7365 C.2       9 UNK         0.5000 
     26 O          -2.2216  -21.5553  -44.2465 O.2       9 UNK        -0.5000 
     27 CA         -1.2776  -19.4823  -43.4918 C.3       9 UNK         0.1400 
     28 CB         -1.8983  -19.1659  -42.1251 C.3       9 UNK        -0.1800 
     29 N           0.0486  -18.8645  -43.5884 N.am      9 UNK        -0.5000 
     30 C           0.8019  -18.8859  -44.6971 C.2       8 UNK         0.5000 
     31 O           0.3705  -19.2661  -45.7853 O.2       8 UNK        -0.5000 
     32 CA          2.2926  -18.5156  -44.5716 C.3       8 UNK         0.1400 
     33 CB          2.6661  -17.3270  -45.4666 C.3       8 UNK        -0.1800 
     34 N           2.7417  -18.2567  -43.2015 N.am      8 UNK        -0.5000 
     35 C           2.9277  -19.1975  -42.2653 C.2       7 UNK         0.5000 
     36 O           2.6200  -20.3788  -42.4287 O.2       7 UNK        -0.5000 
     37 CA          3.5291  -18.7473  -40.9255 C.3       7 UNK         0.1400 
     38 CB          5.0508  -18.5680  -41.0473 C.3       7 UNK        -0.1800 
     39 N           2.9296  -17.4975  -40.4557 N.am      7 UNK        -0.5000 
     40 C           2.4563  -17.2964  -39.2174 C.2       6 UNK         0.5000 
     41 O           2.4947  -18.1450  -38.3250 O.2       6 UNK        -0.5000 
     42 CA          1.8323  -15.9180  -38.9059 C.3       6 UNK         0.1400 
     43 CB          2.8481  -15.0237  -38.1783 C.3       6 UNK        -0.1800 
     44 N           1.3404  -15.2063  -40.0867 N.am      6 UNK        -0.5000 
     45 C           0.3398  -15.6221  -40.8740 C.2       5 UNK         0.5000 
     46 O          -0.3400  -16.6187  -40.6338 O.2       5 UNK        -0.5000 
     47 CA          0.0682  -14.8195  -42.1626 C.3       5 UNK         0.1400 
     48 CB         -1.1504  -13.9041  -41.9661 C.3       5 UNK        -0.1800 
     49 N           1.1834  -14.0085  -42.6690 N.am      5 UNK        -0.5000 
     50 C           2.4315  -14.4183  -42.9373 C.2       4 UNK         0.5000 
     51 O           2.8555  -15.5415  -42.6583 O.2       4 UNK        -0.5000 
     52 CA          3.3460  -13.4008  -43.6398 C.3       4 UNK         0.1400 
     53 CB          4.5639  -14.0658  -44.3066 C.3       4 UNK        -0.1800 
     54 N           2.5986  -12.6676  -44.6606 N.am      4 UNK        -0.5000 
     55 C           2.3061  -11.3626  -44.6267 C.2       3 UNK         0.5000 
     56 O           2.5828  -10.6205  -43.6840 O.2       3 UNK        -0.5000 
     57 CA          1.5736  -10.7938  -45.8509 C.3       3 UNK         0.1400 
     58 CB          2.5483  -10.6170  -47.0270 C.3       3 UNK        -0.1800 
     59 N           0.4686  -11.6546  -46.2727 N.am      3 UNK        -0.5000 
     60 C          -0.8096  -11.4855  -45.9078 C.2       2 UNK         0.5000 
     61 O          -1.1811  -10.6249  -45.1091 O.2       2 UNK        -0.5000 
     62 CA         -1.8619  -12.4026  -46.5625 C.3       2 UNK         0.1400 
     63 CB         -2.5778  -11.6607  -47.7019 C.3       2 UNK        -0.1800 
     64 N          -1.2868  -13.6355  -47.0998 N.am      2 UNK        -0.5000 
     65 C          -1.0845  -14.7475  -46.3821 C.2       1 UNK         0.5000 
     66 O          -1.4087  -14.8642  -45.2014 O.2       1 UNK        -0.5000 
     67 C          -0.6971  -22.1960  -48.1105 C.2       11 UNK         0.5000 
     68 O          -1.0292  -22.9486  -49.0257 O.2       11 UNK        -0.5000 
     69 N          -1.5402  -21.3302  -47.5243 N.am      12 UNK        -0.5000 
     70 CA         -2.9654  -21.2429  -47.8551 C.3       12 UNK         0.1400 
     71 CB         -3.6116  -20.0353  -47.1650 C.3       12 UNK        -0.1800 
     72 C          -3.7340  -22.5323  -47.5195 C.2       12 UNK         0.5000 
     73 O          -4.5728  -22.9521  -48.3164 O.2       12 UNK        -0.5000 
     74 N          -3.4163  -23.1536  -46.3754 N.am      13 UNK        -0.5000 
     75 CA         -3.9636  -24.4443  -45.9566 C.3       13 UNK         0.1400 
     76 CB         -3.5365  -24.7529  -44.5143 C.3       13 UNK        -0.1800 
     77 C          -3.5682  -25.5870  -46.9101 C.2       13 UNK         0.5000 
     78 O          -4.4395  -26.3507  -47.3252 O.2       13 UNK        -0.5000 
     79 N          -2.2821  -25.6505  -47.2872 N.am      14 UNK        -0.5000 
     80 CA         -1.7375  -26.6098  -48.2544 C.3       14 UNK         0.1400 
     81 CB         -0.2073  -26.4833  -48.2965 C.3       14 UNK        -0.1800 
     82 C          -2.3324  -26.4541  -49.6677 C.2       14 UNK         0.5000 
     83 O          -2.5428  -27.4542  -50.3542 O.2       14 UNK        -0.5000 
     84 N          -2.6321  -25.2079  -50.0560 N.am      15 UNK        -0.5000 
     85 CA         -3.3299  -24.8467  -51.2910 C.3       15 UNK         0.1400 
     86 CB         -3.0875  -23.3540  -51.5655 C.3       15 UNK        -0.1800 
     87 C          -4.8414  -25.1706  -51.2779 C.2       15 UNK         0.5000 
     88 O          -5.4748  -25.0620  -52.3265 O.2       15 UNK        -0.5000 
     89 N          -5.3814  -25.5739  -50.1167 N.am      16 UNK        -0.5000 
     90 CA         -6.7872  -25.8728  -49.8305 C.3       16 UNK         0.1400 
     91 CB         -7.3403  -26.9904  -50.7413 C.3       16 UNK        -0.1800 
     92 C          -7.6450  -24.5935  -49.8208 C.2       16 UNK         0.5000 
     93 O          -8.5826  -24.4600  -50.6090 O.2       16 UNK        -0.5000 
     94 N          -7.2897  -23.6874  -48.8990 N.am      17 UNK        -0.5000 
     95 CA         -7.8733  -22.3657  -48.6520 C.3       17 UNK         0.1400 
     96 CB         -9.3824  -22.4475  -48.3360 C.3       17 UNK        -0.1800 
     97 C          -7.5214  -21.3701  -49.7724 C.2       17 UNK         0.5000 
     98 O          -8.4029  -20.6942  -50.3075 O.2       17 UNK        -0.5000 
     99 N          -6.2186  -21.3023  -50.0854 N.am      18 UNK        -0.5000 
    100 CA        -5.6019  -20.4759  -51.1277 C.3       18 UNK         0.1400 
    101 CB        -5.7193  -18.9749  -50.7785 C.3       18 UNK        -0.1800 
    102 C         -6.1159  -20.8523  -52.5357 C.2       18 UNK         0.5000 
    103 O         -6.3328  -22.0357  -52.7971 O.2       18 UNK        -0.5000 
    104 N         -6.2490  -19.8657  -53.4327 N.am      19 UNK        -0.5000 
    105 CA        -6.6555  -19.9489  -54.8441 C.3       19 UNK         0.1400 
    106 CB        -8.0570  -20.5687  -55.0074 C.3       19 UNK        -0.1800 
    107 C         -5.6168  -20.6406  -55.7498 C.2       19 UNK         0.5000 
    108 O         -5.2228  -20.0642  -56.7639 O.2       19 UNK        -0.5000 
    109 N         -5.1521  -21.8326  -55.3520 N.am      20 UNK        -0.5000 
    110 CA        -4.0306  -22.5471  -55.9712 C.3       20 UNK         0.1400 
    111 CB        -4.0636  -24.0198  -55.5364 C.3       20 UNK        -0.1800 
    112 C         -2.6665  -21.9032  -55.6424 C.2       20 UNK         0.5000 
    113 O         -1.6961  -22.1328  -56.3646 O.2       20 UNK        -0.5000 
    114 N         -2.6327  -21.0886  -54.5822 N.am      21 UNK        -0.5000 
    115 CA        -1.5754  -20.1444  -54.2498 C.3       21 UNK         0.1400 
    116 CB        -0.8608  -20.6074  -52.9718 C.3       21 UNK        -0.1800 
    117 C         -2.2705  -18.7846  -54.0315 C.2       21 UNK         0.5000 
    118 O         -3.3821  -18.7787  -53.5001 O.2       21 UNK        -0.5000 
    119 N         -1.6834  -17.6383  -54.3990 N.am      22 UNK        -0.5000 
    120 CA        -0.3779  -17.4478  -55.0568 C.3       22 UNK         0.1400 
    121 C         -0.3259  -17.8774  -56.5549 C.2       22 UNK         0.5000 
    122 N         -1.4531  -18.1241  -57.2118 N.am      22 UNK        -0.7600 
    123 O          0.7541  -18.0113  -57.1216 O.2       22 UNK        -0.5000 
    124 C124        0.1157  -15.9825  -54.8820 C.3       23 UNK        -0.0398 
    125 S125        1.8855  -15.8806  -54.4502 S.3       23 UNK        -0.2404 
    126 C126        1.8023  -15.4434  -52.6847 C.3       23 UNK        -0.0205 
    127 H127        3.2397  -13.7415  -49.0166 H         1 UNK         0.0600 
    128 H128        1.8624  -14.1263  -50.0502 H         1 UNK         0.0600 
    129 H129        2.9770  -15.4080  -49.5395 H         1 UNK         0.0600 
    130 H130        0.3509  -15.9271  -49.0665 H         1 UNK         0.3000 
    131 H131        0.2198  -16.3980  -46.3160 H         1 UNK         0.0600 
    132 H132       -0.8670  -17.9216  -47.7819 H         1 UNK         0.0800 
    133 H133       -2.0721  -17.2539  -46.7330 H         1 UNK         0.0800 
    134 H134       -2.2251  -18.7568  -49.8451 H         1 UNK         0.0800 
    135 H135       -2.5947  -17.6214  -51.1146 H         1 UNK         0.0800 
    136 H136       -0.7325  -15.8713  -51.7355 H         1 UNK         0.1150 
    137 H137        3.2034  -17.5619  -51.7391 H         1 UNK         0.1150 
    138 H138        0.0063  -19.5250  -49.6505 H         1 UNK         0.1150 
    139 H139        3.4596  -19.8747  -51.0503 H         1 UNK         0.0800 
    140 H140        3.3196  -19.3781  -49.3844 H         1 UNK         0.0800 
    141 H141        1.2672  -20.2013  -47.9127 H         1 UNK         0.0800 
    142 H142        2.6217  -21.2263  -47.5448 H         1 UNK         0.0800 
    143 H143        1.1369  -23.2576  -47.8374 H         1 UNK         0.0600 
    144 H144        0.9418  -21.4144  -45.6194 H         1 UNK         0.3000 
    145 H145       -0.6545  -23.6567  -43.3910 H         1 UNK         0.0600 
    146 H146        1.4156  -23.3765  -42.0343 H         1 UNK         0.0600 
    147 H147        1.6610  -24.5573  -43.3125 H         1 UNK         0.0600 
    148 H148        2.3237  -22.9360  -43.4798 H         1 UNK         0.0600 
    149 H149        0.6635  -21.1381  -43.0308 H         1 UNK         0.3000 
    150 H150       -1.9114  -19.0414  -44.2641 H         1 UNK         0.0600 
    151 H151       -2.8629  -19.6618  -42.0072 H         1 UNK         0.0600 
    152 H152       -2.0732  -18.0960  -42.0150 H         1 UNK         0.0600 
    153 H153       -1.2574  -19.4903  -41.3043 H         1 UNK         0.0600 
    154 H154        0.4655  -18.5405  -42.7279 H         1 UNK         0.3000 
    155 H155        2.8479  -19.3803  -44.9410 H         1 UNK         0.0600 
    156 H156        2.1762  -16.4096  -45.1433 H         1 UNK         0.0600 
    157 H157        2.3841  -17.5097  -46.5045 H         1 UNK         0.0600 
    158 H158        3.7416  -17.1516  -45.4539 H         1 UNK         0.0600 
    159 H159        2.9633  -17.2861  -42.9891 H         1 UNK         0.3000 
    160 H160        3.3386  -19.5523  -40.2126 H         1 UNK         0.0600 
    161 H161        5.3077  -17.7631  -41.7374 H         1 UNK         0.0600 
    162 H162        5.5251  -19.4801  -41.4119 H         1 UNK         0.0600 
    163 H163        5.4964  -18.3337  -40.0803 H         1 UNK         0.0600 
    164 H164        2.8548  -16.7436  -41.1320 H         1 UNK         0.3000 
    165 H165        0.9841  -16.0867  -38.2392 H         1 UNK         0.0600 
    166 H166        2.3982  -14.0768  -37.8793 H         1 UNK         0.0600 
    167 H167        3.2166  -15.5070  -37.2723 H         1 UNK         0.0600 
    168 H168        3.7117  -14.8032  -38.8072 H         1 UNK         0.0600 
    169 H169        1.8509  -14.3815  -40.3647 H         1 UNK         0.3000 
    170 H170       -0.1704  -15.5495  -42.9381 H         1 UNK         0.0600 
    171 H171       -2.0236  -14.4769  -41.6504 H         1 UNK         0.0600 
    172 H172       -0.9625  -13.1437  -41.2072 H         1 UNK         0.0600 
    173 H173       -1.4179  -13.3944  -42.8920 H         1 UNK         0.0600 
    174 H174        0.9479  -13.0636  -42.9346 H         1 UNK         0.3000 
    175 H175        3.7145  -12.7245  -42.8662 H         1 UNK         0.0600 
    176 H176        4.2612  -14.7639  -45.0876 H         1 UNK         0.0600 
    177 H177        5.2153  -13.3203  -44.7628 H         1 UNK         0.0600 
    178 H178        5.1628  -14.6174  -43.5807 H         1 UNK         0.0600 
    179 H179        2.3131  -13.2144  -45.4720 H         1 UNK         0.3000 
    180 H180        1.1934   -9.8047  -45.5849 H         1 UNK         0.0600 
    181 H181        2.9653  -11.5697  -47.3568 H         1 UNK         0.0600 
    182 H182        3.3829   -9.9721  -46.7488 H         1 UNK         0.0600 
    183 H183        2.0530  -10.1557  -47.8816 H         1 UNK         0.0600 
    184 H184        0.7081  -12.4413  -46.8614 H         1 UNK         0.3000 
    185 H185       -2.6052  -12.6496  -45.8013 H         1 UNK         0.0600 
    186 H186       -3.0498  -10.7468  -47.3382 H         1 UNK         0.0600 
    187 H187       -1.8862  -11.3791  -48.4971 H         1 UNK         0.0600 
    188 H188       -3.3622  -12.2772  -48.1415 H         1 UNK         0.0600 
    189 H189       -1.0113  -13.6316  -48.0711 H         1 UNK         0.3000 
    190 H190       -1.1997  -20.7499  -46.7692 H         1 UNK         0.3000 
    191 H191       -3.0458  -21.0893  -48.9330 H         1 UNK         0.0600 
    192 H192       -3.1999  -19.1049  -47.5459 H         1 UNK         0.0600 
    193 H193       -4.6858  -20.0055  -47.3539 H         1 UNK         0.0600 
    194 H194       -3.4690  -20.0550  -46.0849 H         1 UNK         0.0600 
    195 H195       -2.7760  -22.6966  -45.7330 H         1 UNK         0.3000 
    196 H196       -5.0523  -24.3604  -45.9722 H         1 UNK         0.0600 
    197 H197       -3.9998  -25.6750  -44.1611 H         1 UNK         0.0600 
    198 H198       -3.8371  -23.9558  -43.8340 H         1 UNK         0.0600 
    199 H199       -2.4578  -24.8773  -44.4290 H         1 UNK         0.0600 
    200 H200       -1.6144  -25.0121  -46.8633 H         1 UNK         0.3000 
    201 H201       -1.9863  -27.6127  -47.9015 H         1 UNK         0.0600 
    202 H202        0.2315  -26.6794  -47.3181 H         1 UNK         0.0600 
    203 H203        0.1048  -25.4866  -48.6099 H         1 UNK         0.0600 
    204 H204        0.2259  -27.1991  -48.9963 H         1 UNK         0.0600 
    205 H205       -2.3475  -24.4368  -49.4606 H         1 UNK         0.3000 
    206 H206       -2.8906  -25.4157  -52.1128 H         1 UNK         0.0600 
    207 H207       -2.0289  -23.1543  -51.7303 H         1 UNK         0.0600 
    208 H208       -3.6249  -23.0129  -52.4497 H         1 UNK         0.0600 
    209 H209       -3.4141  -22.7405  -50.7283 H         1 UNK         0.0600 
    210 H210       -4.7654  -25.6401  -49.3155 H         1 UNK         0.3000 
    211 H211       -6.8078  -26.2615  -48.8113 H         1 UNK         0.0600 
    212 H212       -7.4275  -26.6732  -51.7805 H         1 UNK         0.0600 
    213 H213       -8.3348  -27.2955  -50.4142 H         1 UNK         0.0600 
    214 H214       -6.7028  -27.8740  -50.7117 H         1 UNK         0.0600 
    215 H215       -6.4314  -23.8618  -48.3888 H         1 UNK         0.3000 
    216 H216       -7.3818  -21.9888  -47.7536 H         1 UNK         0.0600 
    217 H217       -9.7603  -21.4794  -48.0053 H         1 UNK         0.0600 
    218 H218       -9.5805  -23.1629  -47.5379 H         1 UNK         0.0600 
    219 H219       -9.9697  -22.7420  -49.2059 H         1 UNK         0.0600 
    220 H220       -5.5967  -21.9434  -49.6019 H         1 UNK         0.3000 
    221 H221       -4.5397  -20.7204  -51.1238 H         1 UNK         0.0600 
    222 H222       -6.7474  -18.6177  -50.8477 H         1 UNK         0.0600 
    223 H223       -5.3685  -18.7818  -49.7643 H         1 UNK         0.0600 
    224 H224       -5.1095  -18.3615  -51.4420 H         1 UNK         0.0600 
    225 H225       -5.9626  -18.9423  -53.1365 H         1 UNK         0.3000 
    226 H226       -6.7222  -18.9142  -55.1843 H         1 UNK         0.0600 
    227 H227       -8.7930  -20.0427  -54.3989 H         1 UNK         0.0600 
    228 H228       -8.3883  -20.5073  -56.0447 H         1 UNK         0.0600 
    229 H229       -8.0785  -21.6210  -54.7234 H         1 UNK         0.0600 
    230 H230       -5.5387  -22.2224  -54.4948 H         1 UNK         0.3000 
    231 H231       -4.1564  -22.5117  -57.0553 H         1 UNK         0.0600 
    232 H232       -3.9385  -24.1276  -54.4600 H         1 UNK         0.0600 
    233 H233       -3.2655  -24.5868  -56.0172 H         1 UNK         0.0600 
    234 H234       -5.0077  -24.4909  -55.8107 H         1 UNK         0.0600 
    235 H235       -3.5033  -20.9075  -54.1017 H         1 UNK         0.3000 
    236 H236       -0.8547  -20.0979  -55.0642 H         1 UNK         0.0600 
    237 H237       -0.4717  -21.6197  -53.0807 H         1 UNK         0.0600 
    238 H238       -0.0131  -19.9590  -52.7515 H         1 UNK         0.0600 
    239 H239       -1.5231  -20.5942  -52.1049 H         1 UNK         0.0600 
    240 H240       -2.2024  -16.7884  -54.2408 H         1 UNK         0.3000 
    241 H241        0.3193  -18.1029  -54.5312 H         1 UNK         0.0600 
    242 H242       -2.3514  -17.9985  -56.7727 H         1 UNK         0.3800 
    243 H243       -1.4077  -18.4096  -58.1776 H         1 UNK         0.3800 
    244 H244       -0.0553  -15.3871  -55.7812 H         1 UNK         0.0800 
    245 H245       -0.4517  -15.4689  -54.1057 H         1 UNK         0.0800 
    246 H246        1.1779  -14.5585  -52.5525 H         1 UNK         0.0800 
    247 H247        2.8009  -15.1598  -52.3489 H         1 UNK         0.0800 
@<TRIPOS>BOND
     1    1    2 1    
     2    1  127 1    
     3    1  128 1    
     4    1  129 1    
     5    2    3 2    
     6    2    4 am   BACKBONE|DICT|INTERRES
     7    4    5 1    
     8    4  130 1    
     9    5    6 1    
    10    5   65 1    
    11    5  131 1    
    12    6    7 1    
    13    6  132 1    
    14    6  133 1    
    15    7    8 1    
    16    8    9 1    
    17    8  134 1    
    18    8  135 1    
    19    9   10 ar   
    20    9   14 ar   
    21   10   11 ar   
    22   10  136 1    
    23   11   12 ar   
    24   11  126 1    
    25   12   13 ar   
    26   12  137 1    
    27   13   14 ar   
    28   13   15 1    
    29   14  138 1    
    30   15   16 1    
    31   15  139 1    
    32   15  140 1    
    33   16   17 1    
    34   17   18 1    
    35   17  141 1    
    36   17  142 1    
    37   18   19 1    
    38   18   67 1    
    39   18  143 1    
    40   19   20 am   BACKBONE|DICT|INTERRES
    41   19  144 1    
    42   20   21 2    
    43   20   22 1    
    44   22   23 1    
    45   22   24 1    
    46   22  145 1    
    47   23  146 1    
    48   23  147 1    
    49   23  148 1    
    50   24   25 am   BACKBONE|DICT|INTERRES
    51   24  149 1    
    52   25   26 2    
    53   25   27 1    
    54   27   28 1    
    55   27   29 1    
    56   27  150 1    
    57   28  151 1    
    58   28  152 1    
    59   28  153 1    
    60   29   30 am   BACKBONE|DICT|INTERRES
    61   29  154 1    
    62   30   31 2    
    63   30   32 1    
    64   32   33 1    
    65   32   34 1    
    66   32  155 1    
    67   33  156 1    
    68   33  157 1    
    69   33  158 1    
    70   34   35 am   BACKBONE|DICT|INTERRES
    71   34  159 1    
    72   35   36 2    
    73   35   37 1    
    74   37   38 1    
    75   37   39 1    
    76   37  160 1    
    77   38  161 1    
    78   38  162 1    
    79   38  163 1    
    80   39   40 am   BACKBONE|DICT|INTERRES
    81   39  164 1    
    82   40   41 2    
    83   40   42 1    
    84   42   43 1    
    85   42   44 1    
    86   42  165 1    
    87   43  166 1    
    88   43  167 1    
    89   43  168 1    
    90   44   45 am   BACKBONE|DICT|INTERRES
    91   44  169 1    
    92   45   46 2    
    93   45   47 1    
    94   47   48 1    
    95   47   49 1    
    96   47  170 1    
    97   48  171 1    
    98   48  172 1    
    99   48  173 1    
   100   49   50 am   BACKBONE|DICT|INTERRES
   101   49  174 1    
   102   50   51 2    
   103   50   52 1    
   104   52   53 1    
   105   52   54 1    
   106   52  175 1    
   107   53  176 1    
   108   53  177 1    
   109   53  178 1    
   110   54   55 am   BACKBONE|DICT|INTERRES
   111   54  179 1    
   112   55   56 2    
   113   55   57 1    
   114   57   58 1    
   115   57   59 1    
   116   57  180 1    
   117   58  181 1    
   118   58  182 1    
   119   58  183 1    
   120   59   60 am   BACKBONE|DICT|INTERRES
   121   59  184 1    
   122   60   61 2    
   123   60   62 1    
   124   62   63 1    
   125   62   64 1    
   126   62  185 1    
   127   63  186 1    
   128   63  187 1    
   129   63  188 1    
   130   64   65 am   BACKBONE|DICT|INTERRES
   131   64  189 1    
   132   65   66 2    
   133   67   68 2    
   134   67   69 am   BACKBONE|DICT|INTERRES
   135   69   70 1    
   136   69  190 1    
   137   70   71 1    
   138   70   72 1    
   139   70  191 1    
   140   71  192 1    
   141   71  193 1    
   142   71  194 1    
   143   72   73 2    
   144   72   74 am   BACKBONE|DICT|INTERRES
   145   74   75 1    
   146   74  195 1    
   147   75   76 1    
   148   75   77 1    
   149   75  196 1    
   150   76  197 1    
   151   76  198 1    
   152   76  199 1    
   153   77   78 2    
   154   77   79 am   BACKBONE|DICT|INTERRES
   155   79   80 1    
   156   79  200 1    
   157   80   81 1    
   158   80   82 1    
   159   80  201 1    
   160   81  202 1    
   161   81  203 1    
   162   81  204 1    
   163   82   83 2    
   164   82   84 am   BACKBONE|DICT|INTERRES
   165   84   85 1    
   166   84  205 1    
   167   85   86 1    
   168   85   87 1    
   169   85  206 1    
   170   86  207 1    
   171   86  208 1    
   172   86  209 1    
   173   87   88 2    
   174   87   89 am   BACKBONE|DICT|INTERRES
   175   89   90 1    
   176   89  210 1    
   177   90   91 1    
   178   90   92 1    
   179   90  211 1    
   180   91  212 1    
   181   91  213 1    
   182   91  214 1    
   183   92   93 2    
   184   92   94 am   BACKBONE|DICT|INTERRES
   185   94   95 1    
   186   94  215 1    
   187   95   96 1    
   188   95   97 1    
   189   95  216 1    
   190   96  217 1    
   191   96  218 1    
   192   96  219 1    
   193   97   98 2    
   194   97   99 am   BACKBONE|DICT|INTERRES
   195   99  100 1    
   196   99  220 1    
   197  100  101 1    
   198  100  102 1    
   199  100  221 1    
   200  101  222 1    
   201  101  223 1    
   202  101  224 1    
   203  102  103 2    
   204  102  104 am   BACKBONE|DICT|INTERRES
   205  104  105 1    
   206  104  225 1    
   207  105  106 1    
   208  105  107 1    
   209  105  226 1    
   210  106  227 1    
   211  106  228 1    
   212  106  229 1    
   213  107  108 2    
   214  107  109 am   BACKBONE|DICT|INTERRES
   215  109  110 1    
   216  109  230 1    
   217  110  111 1    
   218  110  112 1    
   219  110  231 1    
   220  111  232 1    
   221  111  233 1    
   222  111  234 1    
   223  112  113 2    
   224  112  114 am   BACKBONE|DICT|INTERRES
   225  114  115 1    
   226  114  235 1    
   227  115  116 1    
   228  115  117 1    
   229  115  236 1    
   230  116  237 1    
   231  116  238 1    
   232  116  239 1    
   233  117  118 2    
   234  117  119 am   BACKBONE|DICT|INTERRES
   235  119  120 1    
   236  119  240 1    
   237  120  121 1    
   238  120  124 1    
   239  120  241 1    
   240  121  122 am   BACKBONE|DICT|INTERRES
   241  121  123 2    
   242  122  242 1    
   243  122  243 1    
   244  124  125 1    
   245  124  244 1    
   246  124  245 1    
   247  125  126 1    
   248  126  246 1    
   249  126  247 1    
@<TRIPOS>SUBSTRUCTURE
     1 UNK         1 GROUP             0       ****    0 ROOT    
