@<TRIPOS>MOLECULE
3R540
247   249    1
SMALL
USER_CHARGES


@<TRIPOS>ATOM
      1 CA         -2.1307  -14.9523  -48.9390 C.3       0 UNK        -0.1800 
      2 C          -1.1307  -13.8603  -48.5913 C.2       0 UNK         0.5000 
      3 O          -1.4955  -12.6851  -48.5349 O.2       0 UNK        -0.5000 
      4 N           0.1268  -14.2413  -48.3378 N.am      1 UNK        -0.5000 
      5 CA          1.2246  -13.3646  -47.9175 C.3       1 UNK         0.1400 
      6 C6          2.6125  -13.9708  -48.2668 C.3       23 UNK        -0.0398 
      7 S7          2.9087  -15.6566  -47.6121 S.3       23 UNK        -0.2404 
      8 C8          3.1485  -16.6249  -49.1320 C.3       23 UNK        -0.0205 
      9 C9          1.8539  -16.7964  -49.9101 C.ar      23 UNK        -0.0193 
     10 C10         1.6843  -16.1814  -51.1555 C.ar      23 UNK        -0.1150 
     11 C11         0.5058  -16.3732  -51.8831 C.ar      23 UNK        -0.0193 
     12 C12        -0.5048  -17.1756  -51.3515 C.ar      23 UNK        -0.1150 
     13 C13        -0.3475  -17.7944  -50.1108 C.ar      23 UNK        -0.0193 
     14 C14         0.8338  -17.5990  -49.3915 C.ar      23 UNK        -0.1150 
     15 C15        -1.4546  -18.6803  -49.5682 C.3       23 UNK        -0.0205 
     16 S16        -1.0555  -20.4398  -49.8017 S.3       23 UNK        -0.2404 
     17 C17        -0.1424  -20.8014  -48.2610 C.3       23 UNK        -0.0398 
     18 CA         -0.5269  -22.1146  -47.5329 C.3       11 UNK         0.1400 
     19 N           0.0807  -22.1570  -46.2016 N.am      11 UNK        -0.5000 
     20 C           0.0966  -23.2188  -45.3861 C.2       10 UNK         0.5000 
     21 O          -0.3555  -24.3217  -45.6884 O.2       10 UNK        -0.5000 
     22 CA          0.6549  -22.9882  -43.9708 C.3       10 UNK         0.1400 
     23 CB          2.1904  -22.9940  -43.9783 C.3       10 UNK        -0.1800 
     24 N           0.1622  -21.7425  -43.3781 N.am      10 UNK        -0.5000 
     25 C          -1.1291  -21.4997  -43.1081 C.2       9 UNK         0.5000 
     26 O          -2.0259  -22.3263  -43.2752 O.2       9 UNK        -0.5000 
     27 CA         -1.4888  -20.0905  -42.6050 C.3       9 UNK         0.1400 
     28 CB         -1.2177  -19.9682  -41.0984 C.3       9 UNK        -0.1800 
     29 N          -0.7827  -19.0286  -43.3240 N.am      9 UNK        -0.5000 
     30 C          -0.9368  -18.7524  -44.6274 C.2       8 UNK         0.5000 
     31 O          -1.7205  -19.3492  -45.3640 O.2       8 UNK        -0.5000 
     32 CA         -0.0187  -17.6698  -45.2259 C.3       8 UNK         0.1400 
     33 CB         -0.5248  -16.2596  -44.8937 C.3       8 UNK        -0.1800 
     34 N           1.3688  -17.8184  -44.7882 N.am      8 UNK        -0.5000 
     35 C           2.1345  -18.8856  -45.0581 C.2       7 UNK         0.5000 
     36 O           1.7732  -19.8276  -45.7639 O.2       7 UNK        -0.5000 
     37 CA          3.5085  -18.9398  -44.3728 C.3       7 UNK         0.1400 
     38 CB          4.5593  -18.1575  -45.1749 C.3       7 UNK        -0.1800 
     39 N           3.4429  -18.4313  -43.0023 N.am      7 UNK        -0.5000 
     40 C           2.8870  -19.0960  -41.9794 C.2       6 UNK         0.5000 
     41 O           2.4050  -20.2239  -42.0831 O.2       6 UNK        -0.5000 
     42 CA          2.8274  -18.3690  -40.6216 C.3       6 UNK         0.1400 
     43 CB          4.1488  -18.5408  -39.8581 C.3       6 UNK        -0.1800 
     44 N           2.5223  -16.9427  -40.7472 N.am      6 UNK        -0.5000 
     45 C           1.3540  -16.4571  -41.1887 C.2       5 UNK         0.5000 
     46 O           0.3961  -17.1652  -41.4935 O.2       5 UNK        -0.5000 
     47 CA          1.2442  -14.9301  -41.3652 C.3       5 UNK         0.1400 
     48 CB          0.7245  -14.2767  -40.0766 C.3       5 UNK        -0.1800 
     49 N           2.4783  -14.2563  -41.7818 N.am      5 UNK        -0.5000 
     50 C           3.2328  -14.5818  -42.8405 C.2       4 UNK         0.5000 
     51 O           3.0443  -15.5846  -43.5305 O.2       4 UNK        -0.5000 
     52 CA          4.3425  -13.5820  -43.1995 C.3       4 UNK         0.1400 
     53 CB          5.2696  -14.1017  -44.3134 C.3       4 UNK        -0.1800 
     54 N           3.6849  -12.3665  -43.6610 N.am      4 UNK        -0.5000 
     55 C           3.7117  -11.1681  -43.0669 C.2       3 UNK         0.5000 
     56 O           4.3971  -10.9126  -42.0763 O.2       3 UNK        -0.5000 
     57 CA          2.8031  -10.0708  -43.6650 C.3       3 UNK         0.1400 
     58 CB          3.6037   -9.1767  -44.6240 C.3       3 UNK        -0.1800 
     59 N           1.6359  -10.6022  -44.3757 N.am      3 UNK        -0.5000 
     60 C           0.6188  -11.2573  -43.7980 C.2       2 UNK         0.5000 
     61 O           0.4985  -11.3821  -42.5788 O.2       2 UNK        -0.5000 
     62 CA         -0.4291  -11.9102  -44.7267 C.3       2 UNK         0.1400 
     63 CB         -1.6848  -11.0302  -44.8177 C.3       2 UNK        -0.1800 
     64 N           0.0155  -12.2370  -46.0895 N.am      2 UNK        -0.5000 
     65 C           1.0842  -12.9716  -46.4279 C.2       1 UNK         0.5000 
     66 O           1.9193  -13.3476  -45.6101 O.2       1 UNK        -0.5000 
     67 C          -2.0493  -22.3814  -47.4724 C.2       11 UNK         0.5000 
     68 O          -2.5503  -23.1842  -48.2602 O.2       11 UNK        -0.5000 
     69 N          -2.7508  -21.7510  -46.5196 N.am      12 UNK        -0.5000 
     70 CA         -4.1804  -21.9544  -46.2771 C.3       12 UNK         0.1400 
     71 CB         -4.6839  -20.9454  -45.2353 C.3       12 UNK        -0.1800 
     72 C          -4.5321  -23.3958  -45.8690 C.2       12 UNK         0.5000 
     73 O          -5.5657  -23.9079  -46.2971 O.2       12 UNK        -0.5000 
     74 N          -3.6612  -24.0346  -45.0789 N.am      13 UNK        -0.5000 
     75 CA         -3.7861  -25.4382  -44.6954 C.3       13 UNK         0.1400 
     76 CB         -2.8665  -25.7244  -43.4978 C.3       13 UNK        -0.1800 
     77 C          -3.4864  -26.3975  -45.8633 C.2       13 UNK         0.5000 
     78 O          -4.2469  -27.3411  -46.0829 O.2       13 UNK        -0.5000 
     79 N          -2.3779  -26.1553  -46.5749 N.am      14 UNK        -0.5000 
     80 CA         -1.8495  -27.0542  -47.6008 C.3       14 UNK         0.1400 
     81 CB         -0.3456  -26.7896  -47.7733 C.3       14 UNK        -0.1800 
     82 C          -2.5581  -26.9496  -48.9621 C.2       14 UNK         0.5000 
     83 O          -2.7234  -27.9731  -49.6276 O.2       14 UNK        -0.5000 
     84 N          -2.9199  -25.7291  -49.3751 N.am      15 UNK        -0.5000 
     85 CA         -3.3428  -25.4100  -50.7409 C.3       15 UNK         0.1400 
     86 CB         -2.1381  -24.8286  -51.5044 C.3       15 UNK        -0.1800 
     87 C          -4.5582  -24.4676  -50.7790 C.2       15 UNK         0.5000 
     88 O          -4.7794  -23.8104  -51.7957 O.2       15 UNK        -0.5000 
     89 N          -5.3170  -24.3913  -49.6746 N.am      16 UNK        -0.5000 
     90 CA         -6.5701  -23.6380  -49.4903 C.3       16 UNK         0.1400 
     91 CB         -7.6591  -24.1682  -50.4463 C.3       16 UNK        -0.1800 
     92 C          -6.4508  -22.0993  -49.5895 C.2       16 UNK         0.5000 
     93 O          -7.4530  -21.4099  -49.3977 O.2       16 UNK        -0.5000 
     94 N          -5.2484  -21.5890  -49.8915 N.am      17 UNK        -0.5000 
     95 CA         -4.9086  -20.1955  -50.1902 C.3       17 UNK         0.1400 
     96 CB         -5.0061  -19.3101  -48.9294 C.3       17 UNK        -0.1800 
     97 C          -5.6548  -19.6099  -51.4099 C.2       17 UNK         0.5000 
     98 O          -5.7968  -18.3903  -51.5092 O.2       17 UNK        -0.5000 
     99 N          -6.0904  -20.4770  -52.3319 N.am      18 UNK        -0.5000 
    100 CA        -6.8043  -20.1340  -53.5574 C.3       18 UNK         0.1400 
    101 CB        -8.2402  -19.6765  -53.2361 C.3       18 UNK        -0.1800 
    102 C         -6.8320  -21.3646  -54.4720 C.2       18 UNK         0.5000 
    103 O         -6.8133  -22.4921  -53.9733 O.2       18 UNK        -0.5000 
    104 N         -6.8938  -21.1241  -55.7887 N.am      19 UNK        -0.5000 
    105 CA        -6.9553  -22.0843  -56.9012 C.3       19 UNK         0.1400 
    106 CB        -8.2119  -22.9731  -56.8182 C.3       19 UNK        -0.1800 
    107 C         -5.6750  -22.9247  -57.0741 C.2       19 UNK         0.5000 
    108 O         -5.0558  -22.8765  -58.1373 O.2       19 UNK        -0.5000 
    109 N         -5.2837  -23.6512  -56.0217 N.am      20 UNK        -0.5000 
    110 CA        -4.0292  -24.4006  -55.9277 C.3       20 UNK         0.1400 
    111 CB        -4.2307  -25.5803  -54.9634 C.3       20 UNK        -0.1800 
    112 C         -2.8458  -23.5146  -55.4833 C.2       20 UNK         0.5000 
    113 O         -1.7043  -23.9769  -55.4984 O.2       20 UNK        -0.5000 
    114 N         -3.1319  -22.2644  -55.1057 N.am      21 UNK        -0.5000 
    115 CA        -2.1798  -21.2365  -54.7113 C.3       21 UNK         0.1400 
    116 CB        -1.9861  -21.2833  -53.1868 C.3       21 UNK        -0.1800 
    117 C         -2.7122  -19.8678  -55.1589 C.2       21 UNK         0.5000 
    118 O         -3.8928  -19.7443  -55.4956 O.2       21 UNK        -0.5000 
    119 N         -1.8351  -18.8600  -55.1196 N.am      22 UNK        -0.5000 
    120 CA        -2.1058  -17.4453  -55.4385 C.3       22 UNK         0.1400 
    121 C         -3.0550  -16.6890  -54.4567 C.2       22 UNK         0.5000 
    122 N         -3.5917  -17.3244  -53.4246 N.am      22 UNK        -0.7600 
    123 O         -3.3247  -15.5065  -54.6473 O.2       22 UNK        -0.5000 
    124 C124       -0.7903  -16.6589  -55.7203 C.3       23 UNK        -0.0398 
    125 S125        0.5787  -16.9988  -54.5538 S.3       23 UNK        -0.2404 
    126 C126        0.3200  -15.7487  -53.2563 C.3       23 UNK        -0.0205 
    127 H127       -3.1209  -14.6954  -48.5628 H         1 UNK         0.0600 
    128 H128       -2.1957  -15.0748  -50.0200 H         1 UNK         0.0600 
    129 H129       -1.8429  -15.9050  -48.4957 H         1 UNK         0.0600 
    130 H130        0.3734  -15.2193  -48.4037 H         1 UNK         0.3000 
    131 H131        1.1443  -12.4338  -48.4831 H         1 UNK         0.0600 
    132 H132        2.7279  -13.9858  -49.3508 H         1 UNK         0.0800 
    133 H133        3.4118  -13.3219  -47.9049 H         1 UNK         0.0800 
    134 H134        3.9193  -16.1564  -49.7458 H         1 UNK         0.0800 
    135 H135        3.5312  -17.6098  -48.8608 H         1 UNK         0.0800 
    136 H136        2.4745  -15.5693  -51.5669 H         1 UNK         0.1150 
    137 H137       -1.4098  -17.3332  -51.9176 H         1 UNK         0.1150 
    138 H138        0.9724  -18.0827  -48.4355 H         1 UNK         0.1150 
    139 H139       -1.6482  -18.4565  -48.5183 H         1 UNK         0.0800 
    140 H140       -2.3838  -18.4596  -50.0931 H         1 UNK         0.0800 
    141 H141       -0.2784  -19.9669  -47.5746 H         1 UNK         0.0800 
    142 H142        0.9229  -20.8124  -48.4952 H         1 UNK         0.0800 
    143 H143       -0.0952  -22.9379  -48.1059 H         1 UNK         0.0600 
    144 H144        0.5168  -21.2966  -45.8816 H         1 UNK         0.3000 
    145 H145        0.3160  -23.8141  -43.3420 H         1 UNK         0.0600 
    146 H146        2.5893  -22.9055  -42.9677 H         1 UNK         0.0600 
    147 H147        2.5747  -23.9239  -44.3993 H         1 UNK         0.0600 
    148 H148        2.5953  -22.1735  -44.5705 H         1 UNK         0.0600 
    149 H149        0.8548  -21.0343  -43.1594 H         1 UNK         0.3000 
    150 H150       -2.5585  -19.9448  -42.7674 H         1 UNK         0.0600 
    151 H151       -1.7387  -20.7485  -40.5422 H         1 UNK         0.0600 
    152 H152       -1.5636  -19.0090  -40.7131 H         1 UNK         0.0600 
    153 H153       -0.1547  -20.0558  -40.8719 H         1 UNK         0.0600 
    154 H154       -0.1583  -18.4484  -42.7699 H         1 UNK         0.3000 
    155 H155       -0.0353  -17.7814  -46.3110 H         1 UNK         0.0600 
    156 H156       -1.5196  -16.0951  -45.3091 H         1 UNK         0.0600 
    157 H157        0.1338  -15.5002  -45.3126 H         1 UNK         0.0600 
    158 H158       -0.5861  -16.0937  -43.8188 H         1 UNK         0.0600 
    159 H159        1.7688  -17.0669  -44.2360 H         1 UNK         0.3000 
    160 H160        3.8241  -19.9845  -44.3383 H         1 UNK         0.0600 
    161 H161        5.5445  -18.2341  -44.7151 H         1 UNK         0.0600 
    162 H162        4.3080  -17.0999  -45.2533 H         1 UNK         0.0600 
    163 H163        4.6414  -18.5468  -46.1905 H         1 UNK         0.0600 
    164 H164        3.7082  -17.4627  -42.8722 H         1 UNK         0.3000 
    165 H165        2.0328  -18.8330  -40.0333 H         1 UNK         0.0600 
    166 H166        4.0888  -18.1019  -38.8620 H         1 UNK         0.0600 
    167 H167        4.3921  -19.5968  -39.7327 H         1 UNK         0.0600 
    168 H168        4.9821  -18.0719  -40.3829 H         1 UNK         0.0600 
    169 H169        3.2618  -16.2921  -40.5272 H         1 UNK         0.3000 
    170 H170        0.5096  -14.7496  -42.1519 H         1 UNK         0.0600 
    171 H171       -0.2088  -14.7390  -39.7519 H         1 UNK         0.0600 
    172 H172        1.4410  -14.3725  -39.2599 H         1 UNK         0.0600 
    173 H173        0.5239  -13.2155  -40.2264 H         1 UNK         0.0600 
    174 H174        2.6976  -13.3999  -41.2937 H         1 UNK         0.3000 
    175 H175        4.9392  -13.3980  -42.3041 H         1 UNK         0.0600 
    176 H176        6.0511  -13.3777  -44.5433 H         1 UNK         0.0600 
    177 H177        5.7594  -15.0288  -44.0137 H         1 UNK         0.0600 
    178 H178        4.7194  -14.3025  -45.2343 H         1 UNK         0.0600 
    179 H179        3.0334  -12.5186  -44.4297 H         1 UNK         0.3000 
    180 H180        2.4448   -9.4534  -42.8387 H         1 UNK         0.0600 
    181 H181        3.9737   -9.7384  -45.4827 H         1 UNK         0.0600 
    182 H182        4.4671   -8.7392  -44.1210 H         1 UNK         0.0600 
    183 H183        2.9949   -8.3529  -44.9971 H         1 UNK         0.0600 
    184 H184        1.6544  -10.5495  -45.3833 H         1 UNK         0.3000 
    185 H185       -0.7124  -12.8545  -44.2574 H         1 UNK         0.0600 
    186 H186       -2.4818  -11.5346  -45.3644 H         1 UNK         0.0600 
    187 H187       -2.0726  -10.7939  -43.8258 H         1 UNK         0.0600 
    188 H188       -1.4757  -10.0864  -45.3229 H         1 UNK         0.0600 
    189 H189       -0.6345  -12.0136  -46.8365 H         1 UNK         0.3000 
    190 H190       -2.2858  -21.0544  -45.9430 H         1 UNK         0.3000 
    191 H191       -4.7024  -21.7550  -47.2115 H         1 UNK         0.0600 
    192 H192       -4.1992  -21.0866  -44.2698 H         1 UNK         0.0600 
    193 H193       -5.7586  -21.0488  -45.0812 H         1 UNK         0.0600 
    194 H194       -4.4989  -19.9203  -45.5567 H         1 UNK         0.0600 
    195 H195       -2.8634  -23.5235  -44.7157 H         1 UNK         0.3000 
    196 H196       -4.8149  -25.6150  -44.3745 H         1 UNK         0.0600 
    197 H197       -1.8186  -25.5442  -43.7383 H         1 UNK         0.0600 
    198 H198       -2.9563  -26.7625  -43.1757 H         1 UNK         0.0600 
    199 H199       -3.1242  -25.0950  -42.6457 H         1 UNK         0.0600 
    200 H200       -1.7823  -25.3747  -46.3080 H         1 UNK         0.3000 
    201 H201       -1.9648  -28.0818  -47.2490 H         1 UNK         0.0600 
    202 H202       -0.1536  -25.7697  -48.1096 H         1 UNK         0.0600 
    203 H203        0.0905  -27.4663  -48.5094 H         1 UNK         0.0600 
    204 H204        0.1910  -26.9390  -46.8362 H         1 UNK         0.0600 
    205 H205       -2.7513  -24.9227  -48.7749 H         1 UNK         0.3000 
    206 H206       -3.6643  -26.3160  -51.2580 H         1 UNK         0.0600 
    207 H207       -1.3013  -25.5269  -51.5120 H         1 UNK         0.0600 
    208 H208       -2.3888  -24.6179  -52.5444 H         1 UNK         0.0600 
    209 H209       -1.7936  -23.8982  -51.0510 H         1 UNK         0.0600 
    210 H210       -5.0205  -24.9316  -48.8734 H         1 UNK         0.3000 
    211 H211       -6.9066  -23.8496  -48.4761 H         1 UNK         0.0600 
    212 H212       -7.4342  -23.9364  -51.4881 H         1 UNK         0.0600 
    213 H213       -8.6293  -23.7249  -50.2194 H         1 UNK         0.0600 
    214 H214       -7.7700  -25.2489  -50.3586 H         1 UNK         0.0600 
    215 H215       -4.5044  -22.2568  -50.0434 H         1 UNK         0.3000 
    216 H216       -3.8643  -20.2176  -50.4939 H         1 UNK         0.0600 
    217 H217       -4.3206  -19.6540  -48.1562 H         1 UNK         0.0600 
    218 H218       -4.7356  -18.2762  -49.1456 H         1 UNK         0.0600 
    219 H219       -6.0132  -19.3023  -48.5129 H         1 UNK         0.0600 
    220 H220       -5.9281  -21.4707  -52.2061 H         1 UNK         0.3000 
    221 H221       -6.2663  -19.3299  -54.0640 H         1 UNK         0.0600 
    222 H222       -8.7864  -20.4400  -52.6805 H         1 UNK         0.0600 
    223 H223       -8.2474  -18.7627  -52.6423 H         1 UNK         0.0600 
    224 H224       -8.8000  -19.4696  -54.1489 H         1 UNK         0.0600 
    225 H225       -6.8580  -20.1570  -56.0809 H         1 UNK         0.3000 
    226 H226       -7.0520  -21.4782  -57.8035 H         1 UNK         0.0600 
    227 H227       -8.2012  -23.6241  -55.9438 H         1 UNK         0.0600 
    228 H228       -9.1179  -22.3688  -56.7734 H         1 UNK         0.0600 
    229 H229       -8.2918  -23.6136  -57.6974 H         1 UNK         0.0600 
    230 H230       -5.8346  -23.5716  -55.1694 H         1 UNK         0.3000 
    231 H231       -3.7783  -24.8068  -56.9096 H         1 UNK         0.0600 
    232 H232       -5.0065  -26.2550  -55.3253 H         1 UNK         0.0600 
    233 H233       -4.5217  -25.2409  -53.9702 H         1 UNK         0.0600 
    234 H234       -3.3158  -26.1645  -54.8569 H         1 UNK         0.0600 
    235 H235       -4.0856  -21.9395  -55.1896 H         1 UNK         0.3000 
    236 H236       -1.2228  -21.4052  -55.2097 H         1 UNK         0.0600 
    237 H237       -1.3225  -20.4879  -52.8459 H         1 UNK         0.0600 
    238 H238       -2.9330  -21.1769  -52.6566 H         1 UNK         0.0600 
    239 H239       -1.5376  -22.2272  -52.8792 H         1 UNK         0.0600 
    240 H240       -0.8927  -19.0429  -54.8043 H         1 UNK         0.3000 
    241 H241       -2.6633  -17.4531  -56.3769 H         1 UNK         0.0600 
    242 H242       -4.2370  -16.8449  -52.8157 H         1 UNK         0.3800 
    243 H243       -3.4334  -18.3090  -53.3042 H         1 UNK         0.3800 
    244 H244       -0.9606  -15.5829  -55.7875 H         1 UNK         0.0800 
    245 H245       -0.4269  -16.9448  -56.7081 H         1 UNK         0.0800 
    246 H246        1.0176  -14.9235  -53.4063 H         1 UNK         0.0800 
    247 H247       -0.6811  -15.3217  -53.3238 H         1 UNK         0.0800 
@<TRIPOS>BOND
     1    1    2 1    
     2    1  127 1    
     3    1  128 1    
     4    1  129 1    
     5    2    3 2    
     6    2    4 am   BACKBONE|DICT|INTERRES
     7    4    5 1    
     8    4  130 1    
     9    5    6 1    
    10    5   65 1    
    11    5  131 1    
    12    6    7 1    
    13    6  132 1    
    14    6  133 1    
    15    7    8 1    
    16    8    9 1    
    17    8  134 1    
    18    8  135 1    
    19    9   10 ar   
    20    9   14 ar   
    21   10   11 ar   
    22   10  136 1    
    23   11   12 ar   
    24   11  126 1    
    25   12   13 ar   
    26   12  137 1    
    27   13   14 ar   
    28   13   15 1    
    29   14  138 1    
    30   15   16 1    
    31   15  139 1    
    32   15  140 1    
    33   16   17 1    
    34   17   18 1    
    35   17  141 1    
    36   17  142 1    
    37   18   19 1    
    38   18   67 1    
    39   18  143 1    
    40   19   20 am   BACKBONE|DICT|INTERRES
    41   19  144 1    
    42   20   21 2    
    43   20   22 1    
    44   22   23 1    
    45   22   24 1    
    46   22  145 1    
    47   23  146 1    
    48   23  147 1    
    49   23  148 1    
    50   24   25 am   BACKBONE|DICT|INTERRES
    51   24  149 1    
    52   25   26 2    
    53   25   27 1    
    54   27   28 1    
    55   27   29 1    
    56   27  150 1    
    57   28  151 1    
    58   28  152 1    
    59   28  153 1    
    60   29   30 am   BACKBONE|DICT|INTERRES
    61   29  154 1    
    62   30   31 2    
    63   30   32 1    
    64   32   33 1    
    65   32   34 1    
    66   32  155 1    
    67   33  156 1    
    68   33  157 1    
    69   33  158 1    
    70   34   35 am   BACKBONE|DICT|INTERRES
    71   34  159 1    
    72   35   36 2    
    73   35   37 1    
    74   37   38 1    
    75   37   39 1    
    76   37  160 1    
    77   38  161 1    
    78   38  162 1    
    79   38  163 1    
    80   39   40 am   BACKBONE|DICT|INTERRES
    81   39  164 1    
    82   40   41 2    
    83   40   42 1    
    84   42   43 1    
    85   42   44 1    
    86   42  165 1    
    87   43  166 1    
    88   43  167 1    
    89   43  168 1    
    90   44   45 am   BACKBONE|DICT|INTERRES
    91   44  169 1    
    92   45   46 2    
    93   45   47 1    
    94   47   48 1    
    95   47   49 1    
    96   47  170 1    
    97   48  171 1    
    98   48  172 1    
    99   48  173 1    
   100   49   50 am   BACKBONE|DICT|INTERRES
   101   49  174 1    
   102   50   51 2    
   103   50   52 1    
   104   52   53 1    
   105   52   54 1    
   106   52  175 1    
   107   53  176 1    
   108   53  177 1    
   109   53  178 1    
   110   54   55 am   BACKBONE|DICT|INTERRES
   111   54  179 1    
   112   55   56 2    
   113   55   57 1    
   114   57   58 1    
   115   57   59 1    
   116   57  180 1    
   117   58  181 1    
   118   58  182 1    
   119   58  183 1    
   120   59   60 am   BACKBONE|DICT|INTERRES
   121   59  184 1    
   122   60   61 2    
   123   60   62 1    
   124   62   63 1    
   125   62   64 1    
   126   62  185 1    
   127   63  186 1    
   128   63  187 1    
   129   63  188 1    
   130   64   65 am   BACKBONE|DICT|INTERRES
   131   64  189 1    
   132   65   66 2    
   133   67   68 2    
   134   67   69 am   BACKBONE|DICT|INTERRES
   135   69   70 1    
   136   69  190 1    
   137   70   71 1    
   138   70   72 1    
   139   70  191 1    
   140   71  192 1    
   141   71  193 1    
   142   71  194 1    
   143   72   73 2    
   144   72   74 am   BACKBONE|DICT|INTERRES
   145   74   75 1    
   146   74  195 1    
   147   75   76 1    
   148   75   77 1    
   149   75  196 1    
   150   76  197 1    
   151   76  198 1    
   152   76  199 1    
   153   77   78 2    
   154   77   79 am   BACKBONE|DICT|INTERRES
   155   79   80 1    
   156   79  200 1    
   157   80   81 1    
   158   80   82 1    
   159   80  201 1    
   160   81  202 1    
   161   81  203 1    
   162   81  204 1    
   163   82   83 2    
   164   82   84 am   BACKBONE|DICT|INTERRES
   165   84   85 1    
   166   84  205 1    
   167   85   86 1    
   168   85   87 1    
   169   85  206 1    
   170   86  207 1    
   171   86  208 1    
   172   86  209 1    
   173   87   88 2    
   174   87   89 am   BACKBONE|DICT|INTERRES
   175   89   90 1    
   176   89  210 1    
   177   90   91 1    
   178   90   92 1    
   179   90  211 1    
   180   91  212 1    
   181   91  213 1    
   182   91  214 1    
   183   92   93 2    
   184   92   94 am   BACKBONE|DICT|INTERRES
   185   94   95 1    
   186   94  215 1    
   187   95   96 1    
   188   95   97 1    
   189   95  216 1    
   190   96  217 1    
   191   96  218 1    
   192   96  219 1    
   193   97   98 2    
   194   97   99 am   BACKBONE|DICT|INTERRES
   195   99  100 1    
   196   99  220 1    
   197  100  101 1    
   198  100  102 1    
   199  100  221 1    
   200  101  222 1    
   201  101  223 1    
   202  101  224 1    
   203  102  103 2    
   204  102  104 am   BACKBONE|DICT|INTERRES
   205  104  105 1    
   206  104  225 1    
   207  105  106 1    
   208  105  107 1    
   209  105  226 1    
   210  106  227 1    
   211  106  228 1    
   212  106  229 1    
   213  107  108 2    
   214  107  109 am   BACKBONE|DICT|INTERRES
   215  109  110 1    
   216  109  230 1    
   217  110  111 1    
   218  110  112 1    
   219  110  231 1    
   220  111  232 1    
   221  111  233 1    
   222  111  234 1    
   223  112  113 2    
   224  112  114 am   BACKBONE|DICT|INTERRES
   225  114  115 1    
   226  114  235 1    
   227  115  116 1    
   228  115  117 1    
   229  115  236 1    
   230  116  237 1    
   231  116  238 1    
   232  116  239 1    
   233  117  118 2    
   234  117  119 am   BACKBONE|DICT|INTERRES
   235  119  120 1    
   236  119  240 1    
   237  120  121 1    
   238  120  124 1    
   239  120  241 1    
   240  121  122 am   BACKBONE|DICT|INTERRES
   241  121  123 2    
   242  122  242 1    
   243  122  243 1    
   244  124  125 1    
   245  124  244 1    
   246  124  245 1    
   247  125  126 1    
   248  126  246 1    
   249  126  247 1    
@<TRIPOS>SUBSTRUCTURE
     1 UNK         1 GROUP             0       ****    0 ROOT    
