@<TRIPOS>MOLECULE
3R540
247   249    1
SMALL
USER_CHARGES


@<TRIPOS>ATOM
      1 CA          1.2469  -14.5751  -52.5990 C.3       0 UNK        -0.1800 
      2 C           1.5262  -15.1405  -51.2142 C.2       0 UNK         0.5000 
      3 O           2.3898  -16.0066  -51.0668 O.2       0 UNK        -0.5000 
      4 N           0.8176  -14.6442  -50.1927 N.am      1 UNK        -0.5000 
      5 CA          0.8842  -15.0886  -48.7926 C.3       1 UNK         0.1400 
      6 C6         -0.4272  -14.7755  -48.0283 C.3       23 UNK        -0.0398 
      7 S7         -1.8218  -15.6999  -48.7402 S.3       23 UNK        -0.2404 
      8 C8         -3.1983  -15.1537  -47.6928 C.3       23 UNK        -0.0205 
      9 C9         -4.4411  -15.9507  -48.0440 C.ar      23 UNK        -0.0193 
     10 C10        -5.2492  -15.5619  -49.1150 C.ar      23 UNK        -0.1150 
     11 C11        -6.3282  -16.3569  -49.5091 C.ar      23 UNK        -0.0193 
     12 C12        -6.6100  -17.5336  -48.8082 C.ar      23 UNK        -0.1150 
     13 C13        -5.8228  -17.9202  -47.7194 C.ar      23 UNK        -0.0193 
     14 C14        -4.7461  -17.1152  -47.3365 C.ar      23 UNK        -0.1150 
     15 C15        -6.1420  -19.2033  -46.9644 C.3       23 UNK        -0.0205 
     16 S16        -5.0491  -20.5813  -47.4474 S.3       23 UNK        -0.2404 
     17 C17        -3.6807  -20.3976  -46.2568 C.3       23 UNK        -0.0398 
     18 CA         -2.2751  -20.6270  -46.8765 C.3       11 UNK         0.1400 
     19 N          -1.2416  -19.8417  -46.1961 N.am      11 UNK        -0.5000 
     20 C           0.0593  -19.8000  -46.5226 C.2       10 UNK         0.5000 
     21 O           0.5393  -20.3395  -47.5180 O.2       10 UNK        -0.5000 
     22 CA          0.9960  -19.0882  -45.5285 C.3       10 UNK         0.1400 
     23 CB          1.0663  -17.5820  -45.8123 C.3       10 UNK        -0.1800 
     24 N           0.6050  -19.3116  -44.1372 N.am      10 UNK        -0.5000 
     25 C           0.6384  -20.5043  -43.5254 C.2       9 UNK         0.5000 
     26 O           1.0295  -21.5377  -44.0638 O.2       9 UNK        -0.5000 
     27 CA          0.0914  -20.5643  -42.0904 C.3       9 UNK         0.1400 
     28 CB          1.1502  -20.1186  -41.0717 C.3       9 UNK        -0.1800 
     29 N          -1.1168  -19.7558  -41.9388 N.am      9 UNK        -0.5000 
     30 C          -2.2925  -20.0511  -42.5104 C.2       8 UNK         0.5000 
     31 O          -2.4915  -21.0626  -43.1849 O.2       8 UNK        -0.5000 
     32 CA         -3.4170  -19.0143  -42.3369 C.3       8 UNK         0.1400 
     33 CB         -4.1377  -19.2147  -40.9958 C.3       8 UNK        -0.1800 
     34 N          -2.9317  -17.6347  -42.4282 N.am      8 UNK        -0.5000 
     35 C          -2.4350  -17.0838  -43.5447 C.2       7 UNK         0.5000 
     36 O          -2.3346  -17.6816  -44.6137 O.2       7 UNK        -0.5000 
     37 CA         -1.9246  -15.6368  -43.4404 C.3       7 UNK         0.1400 
     38 CB         -3.0922  -14.6439  -43.5469 C.3       7 UNK        -0.1800 
     39 N          -1.1681  -15.3692  -42.2147 N.am      7 UNK        -0.5000 
     40 C          -0.0331  -15.9880  -41.8650 C.2       6 UNK         0.5000 
     41 O           0.4717  -16.9144  -42.5037 O.2       6 UNK        -0.5000 
     42 CA          0.6265  -15.5215  -40.5611 C.3       6 UNK         0.1400 
     43 CB          0.2778  -16.4806  -39.4122 C.3       6 UNK        -0.1800 
     44 N           2.0757  -15.4936  -40.7395 N.am      6 UNK        -0.5000 
     45 C           2.8042  -14.3851  -40.9231 C.2       5 UNK         0.5000 
     46 O           2.3385  -13.2452  -40.8880 O.2       5 UNK        -0.5000 
     47 CA          4.3117  -14.5737  -41.1864 C.3       5 UNK         0.1400 
     48 CB          5.1037  -14.4468  -39.8757 C.3       5 UNK        -0.1800 
     49 N           4.6395  -15.8545  -41.8186 N.am      5 UNK        -0.5000 
     50 C           4.3822  -16.1525  -43.0980 C.2       4 UNK         0.5000 
     51 O           3.8457  -15.3746  -43.8918 O.2       4 UNK        -0.5000 
     52 CA          4.7878  -17.5597  -43.5601 C.3       4 UNK         0.1400 
     53 CB          3.8854  -18.6310  -42.9265 C.3       4 UNK        -0.1800 
     54 N           4.6880  -17.6145  -45.0135 N.am      4 UNK        -0.5000 
     55 C           5.3687  -18.4398  -45.8149 C.2       3 UNK         0.5000 
     56 O           6.1050  -19.3359  -45.4006 O.2       3 UNK        -0.5000 
     57 CA          5.2224  -18.2309  -47.3370 C.3       3 UNK         0.1400 
     58 CB          4.3283  -19.3184  -47.9548 C.3       3 UNK        -0.1800 
     59 N           4.7008  -16.9169  -47.7261 N.am      3 UNK        -0.5000 
     60 C           5.3383  -15.7448  -47.5791 C.2       2 UNK         0.5000 
     61 O           6.4446  -15.6378  -47.0490 O.2       2 UNK        -0.5000 
     62 CA          4.6374  -14.4842  -48.1266 C.3       2 UNK         0.1400 
     63 CB          5.4766  -13.8385  -49.2415 C.3       2 UNK        -0.1800 
     64 N           3.3118  -14.7885  -48.6678 N.am      2 UNK        -0.5000 
     65 C           2.1417  -14.5597  -48.0628 C.2       1 UNK         0.5000 
     66 O           2.0377  -13.9755  -46.9840 O.2       1 UNK        -0.5000 
     67 C          -1.9161  -22.1259  -46.8701 C.2       11 UNK         0.5000 
     68 O          -1.8170  -22.7362  -47.9348 O.2       11 UNK        -0.5000 
     69 N          -1.6975  -22.6710  -45.6633 N.am      12 UNK        -0.5000 
     70 CA         -1.3778  -24.0770  -45.4117 C.3       12 UNK         0.1400 
     71 CB         -1.4143  -24.3342  -43.8980 C.3       12 UNK        -0.1800 
     72 C          -0.0309  -24.5280  -46.0067 C.2       12 UNK         0.5000 
     73 O           0.0857  -25.6777  -46.4309 O.2       12 UNK        -0.5000 
     74 N           0.9531  -23.6192  -46.0400 N.am      13 UNK        -0.5000 
     75 CA          2.2552  -23.8163  -46.6804 C.3       13 UNK         0.1400 
     76 CB          3.2075  -22.6939  -46.2383 C.3       13 UNK        -0.1800 
     77 C           2.1713  -23.8755  -48.2190 C.2       13 UNK         0.5000 
     78 O           3.0541  -24.4612  -48.8481 O.2       13 UNK        -0.5000 
     79 N           1.1217  -23.2726  -48.7895 N.am      14 UNK        -0.5000 
     80 CA          0.7914  -23.2956  -50.2085 C.3       14 UNK         0.1400 
     81 CB          0.3474  -21.8807  -50.6252 C.3       14 UNK        -0.1800 
     82 C          -0.2570  -24.3963  -50.4833 C.2       14 UNK         0.5000 
     83 O          -0.1335  -25.5038  -49.9568 O.2       14 UNK        -0.5000 
     84 N          -1.2539  -24.1001  -51.3276 N.am      15 UNK        -0.5000 
     85 CA         -2.2758  -25.0507  -51.7756 C.3       15 UNK         0.1400 
     86 CB         -2.8552  -24.5511  -53.1079 C.3       15 UNK        -0.1800 
     87 C          -3.4073  -25.3049  -50.7574 C.2       15 UNK         0.5000 
     88 O          -4.1945  -26.2272  -50.9692 O.2       15 UNK        -0.5000 
     89 N          -3.4973  -24.4810  -49.7013 N.am      16 UNK        -0.5000 
     90 CA         -4.4972  -24.4986  -48.6214 C.3       16 UNK         0.1400 
     91 CB         -4.4333  -25.8221  -47.8321 C.3       16 UNK        -0.1800 
     92 C          -5.9415  -24.1421  -49.0405 C.2       16 UNK         0.5000 
     93 O          -6.8237  -24.1247  -48.1806 O.2       16 UNK        -0.5000 
     94 N          -6.1667  -23.8334  -50.3217 N.am      17 UNK        -0.5000 
     95 CA         -7.4352  -23.4098  -50.9006 C.3       17 UNK         0.1400 
     96 CB         -8.3985  -24.6078  -51.0121 C.3       17 UNK        -0.1800 
     97 C          -7.1695  -22.8014  -52.2850 C.2       17 UNK         0.5000 
     98 O          -6.1415  -23.1045  -52.8980 O.2       17 UNK        -0.5000 
     99 N          -8.1274  -21.9890  -52.7536 N.am      18 UNK        -0.5000 
    100 CA        -8.1786  -21.3172  -54.0583 C.3       18 UNK         0.1400 
    101 CB        -8.2211  -22.3608  -55.1969 C.3       18 UNK        -0.1800 
    102 C         -7.0623  -20.2722  -54.2741 C.2       18 UNK         0.5000 
    103 O         -6.2412  -20.0261  -53.3876 O.2       18 UNK        -0.5000 
    104 N         -7.0459  -19.6704  -55.4727 N.am      19 UNK        -0.5000 
    105 CA        -6.0847  -18.6461  -55.8993 C.3       19 UNK         0.1400 
    106 CB        -6.4573  -18.1624  -57.3083 C.3       19 UNK        -0.1800 
    107 C         -4.6136  -19.1060  -55.8587 C.2       19 UNK         0.5000 
    108 O         -3.7216  -18.2750  -55.6865 O.2       19 UNK        -0.5000 
    109 N         -4.3943  -20.4237  -55.9659 N.am      20 UNK        -0.5000 
    110 CA        -3.1033  -21.0850  -55.7850 C.3       20 UNK         0.1400 
    111 CB        -3.2519  -22.5691  -56.1522 C.3       20 UNK        -0.1800 
    112 C         -2.5298  -20.9340  -54.3611 C.2       20 UNK         0.5000 
    113 O         -1.3084  -20.9526  -54.2062 O.2       20 UNK        -0.5000 
    114 N         -3.4029  -20.7793  -53.3547 N.am      21 UNK        -0.5000 
    115 CA        -3.0120  -20.4633  -51.9841 C.3       21 UNK         0.1400 
    116 CB        -3.9970  -21.0991  -50.9966 C.3       21 UNK        -0.1800 
    117 C         -2.9125  -18.9471  -51.7633 C.2       21 UNK         0.5000 
    118 O         -1.9935  -18.5083  -51.0733 O.2       21 UNK        -0.5000 
    119 N         -3.8421  -18.1815  -52.3542 N.am      22 UNK        -0.5000 
    120 CA        -3.8849  -16.7128  -52.2475 C.3       22 UNK         0.1400 
    121 C         -2.6866  -15.9849  -52.9215 C.2       22 UNK         0.5000 
    122 N         -2.1625  -16.4856  -54.0337 N.am      22 UNK        -0.7600 
    123 O         -2.2415  -14.9466  -52.4414 O.2       22 UNK        -0.5000 
    124 C124       -5.2152  -16.0975  -52.7601 C.3       23 UNK        -0.0398 
    125 S125       -6.7364  -16.9269  -52.1812 S.3       23 UNK        -0.2404 
    126 C126       -7.1793  -15.9615  -50.7041 C.3       23 UNK        -0.0205 
    127 H127        0.4747  -13.8057  -52.5735 H         1 UNK         0.0600 
    128 H128        0.9106  -15.3698  -53.2648 H         1 UNK         0.0600 
    129 H129        2.1530  -14.1366  -53.0169 H         1 UNK         0.0600 
    130 H130        0.1225  -13.9371  -50.3852 H         1 UNK         0.3000 
    131 H131        0.9911  -16.1754  -48.8034 H         1 UNK         0.0600 
    132 H132       -0.3470  -15.0566  -46.9770 H         1 UNK         0.0800 
    133 H133       -0.6475  -13.7070  -48.0515 H         1 UNK         0.0800 
    134 H134       -3.3748  -14.0865  -47.8346 H         1 UNK         0.0800 
    135 H135       -2.9359  -15.2991  -46.6445 H         1 UNK         0.0800 
    136 H136       -5.0095  -14.6647  -49.6683 H         1 UNK         0.1150 
    137 H137       -7.4383  -18.1539  -49.1208 H         1 UNK         0.1150 
    138 H138       -4.1211  -17.4005  -46.5056 H         1 UNK         0.1150 
    139 H139       -6.0839  -19.0308  -45.8887 H         1 UNK         0.0800 
    140 H140       -7.1728  -19.5016  -47.1613 H         1 UNK         0.0800 
    141 H141       -3.8767  -21.0620  -45.4142 H         1 UNK         0.0800 
    142 H142       -3.7357  -19.4004  -45.8322 H         1 UNK         0.0800 
    143 H143       -2.2854  -20.2848  -47.9137 H         1 UNK         0.0600 
    144 H144       -1.5474  -19.2887  -45.4016 H         1 UNK         0.3000 
    145 H145        1.9977  -19.5030  -45.6536 H         1 UNK         0.0600 
    146 H146        1.7279  -17.0741  -45.1105 H         1 UNK         0.0600 
    147 H147        1.4514  -17.3995  -46.8146 H         1 UNK         0.0600 
    148 H148        0.0844  -17.1145  -45.7423 H         1 UNK         0.0600 
    149 H149        0.3194  -18.4942  -43.6054 H         1 UNK         0.3000 
    150 H150       -0.1655  -21.6040  -41.8762 H         1 UNK         0.0600 
    151 H151        2.0548  -20.7212  -41.1621 H         1 UNK         0.0600 
    152 H152        0.7858  -20.2299  -40.0504 H         1 UNK         0.0600 
    153 H153        1.4359  -19.0772  -41.2138 H         1 UNK         0.0600 
    154 H154       -1.0231  -18.8817  -41.4443 H         1 UNK         0.3000 
    155 H155       -4.1404  -19.1730  -43.1397 H         1 UNK         0.0600 
    156 H156       -4.9866  -18.5375  -40.8997 H         1 UNK         0.0600 
    157 H157       -4.5232  -20.2315  -40.9085 H         1 UNK         0.0600 
    158 H158       -3.4722  -19.0419  -40.1491 H         1 UNK         0.0600 
    159 H159       -2.9740  -17.0754  -41.5891 H         1 UNK         0.3000 
    160 H160       -1.2552  -15.4664  -44.2864 H         1 UNK         0.0600 
    161 H161       -3.7541  -14.7058  -42.6823 H         1 UNK         0.0600 
    162 H162       -3.6974  -14.8382  -44.4329 H         1 UNK         0.0600 
    163 H163       -2.7309  -13.6180  -43.6202 H         1 UNK         0.0600 
    164 H164       -1.5212  -14.6291  -41.6254 H         1 UNK         0.3000 
    165 H165        0.2503  -14.5289  -40.3049 H         1 UNK         0.0600 
    166 H166        0.7227  -16.1455  -38.4751 H         1 UNK         0.0600 
    167 H167       -0.8007  -16.5329  -39.2585 H         1 UNK         0.0600 
    168 H168        0.6322  -17.4932  -39.6041 H         1 UNK         0.0600 
    169 H169        2.5251  -16.3889  -40.8597 H         1 UNK         0.3000 
    170 H170        4.6309  -13.7702  -41.8539 H         1 UNK         0.0600 
    171 H171        6.1775  -14.5008  -40.0563 H         1 UNK         0.0600 
    172 H172        4.8409  -15.2341  -39.1681 H         1 UNK         0.0600 
    173 H173        4.9053  -13.4901  -39.3905 H         1 UNK         0.0600 
    174 H174        5.0891  -16.5431  -41.2324 H         1 UNK         0.3000 
    175 H175        5.8256  -17.7308  -43.2666 H         1 UNK         0.0600 
    176 H176        4.0560  -18.7051  -41.8524 H         1 UNK         0.0600 
    177 H177        2.8360  -18.3853  -43.0734 H         1 UNK         0.0600 
    178 H178        4.0641  -19.6185  -43.3524 H         1 UNK         0.0600 
    179 H179        4.1533  -16.8551  -45.4163 H         1 UNK         0.3000 
    180 H180        6.2210  -18.3315  -47.7672 H         1 UNK         0.0600 
    181 H181        3.2959  -19.2356  -47.6164 H         1 UNK         0.0600 
    182 H182        4.6828  -20.3156  -47.6912 H         1 UNK         0.0600 
    183 H183        4.3270  -19.2555  -49.0432 H         1 UNK         0.0600 
    184 H184        3.8022  -16.9095  -48.1835 H         1 UNK         0.3000 
    185 H185        4.5565  -13.7732  -47.3019 H         1 UNK         0.0600 
    186 H186        6.4672  -13.5615  -48.8787 H         1 UNK         0.0600 
    187 H187        5.6122  -14.5152  -50.0862 H         1 UNK         0.0600 
    188 H188        5.0031  -12.9296  -49.6134 H         1 UNK         0.0600 
    189 H189        3.2824  -15.2534  -49.5725 H         1 UNK         0.3000 
    190 H190       -1.7959  -22.0838  -44.8412 H         1 UNK         0.3000 
    191 H191       -2.1595  -24.6789  -45.8786 H         1 UNK         0.0600 
    192 H192       -0.6694  -23.7361  -43.3718 H         1 UNK         0.0600 
    193 H193       -1.2136  -25.3826  -43.6739 H         1 UNK         0.0600 
    194 H194       -2.3920  -24.0929  -43.4803 H         1 UNK         0.0600 
    195 H195        0.8080  -22.7282  -45.5737 H         1 UNK         0.3000 
    196 H196        2.6642  -24.7679  -46.3352 H         1 UNK         0.0600 
    197 H197        4.1937  -22.8147  -46.6883 H         1 UNK         0.0600 
    198 H198        3.3422  -22.6925  -45.1566 H         1 UNK         0.0600 
    199 H199        2.8307  -21.7133  -46.5297 H         1 UNK         0.0600 
    200 H200        0.4285  -22.8450  -48.1879 H         1 UNK         0.3000 
    201 H201        1.6773  -23.5497  -50.7933 H         1 UNK         0.0600 
    202 H202        1.1172  -21.1471  -50.3839 H         1 UNK         0.0600 
    203 H203       -0.5618  -21.5746  -50.1064 H         1 UNK         0.0600 
    204 H204        0.1754  -21.8133  -51.6999 H         1 UNK         0.0600 
    205 H205       -1.2863  -23.1771  -51.7338 H         1 UNK         0.3000 
    206 H206       -1.7937  -26.0126  -51.9631 H         1 UNK         0.0600 
    207 H207       -2.0726  -24.4203  -53.8552 H         1 UNK         0.0600 
    208 H208       -3.5757  -25.2615  -53.5153 H         1 UNK         0.0600 
    209 H209       -3.3719  -23.5994  -52.9905 H         1 UNK         0.0600 
    210 H210       -2.7747  -23.7800  -49.5846 H         1 UNK         0.3000 
    211 H211       -4.2063  -23.7055  -47.9343 H         1 UNK         0.0600 
    212 H212       -4.8106  -26.6619  -48.4158 H         1 UNK         0.0600 
    213 H213       -5.0323  -25.7639  -46.9227 H         1 UNK         0.0600 
    214 H214       -3.4111  -26.0537  -47.5327 H         1 UNK         0.0600 
    215 H215       -5.4039  -23.8657  -50.9855 H         1 UNK         0.3000 
    216 H216       -7.8729  -22.6403  -50.2614 H         1 UNK         0.0600 
    217 H217       -7.9692  -25.4087  -51.6155 H         1 UNK         0.0600 
    218 H218       -9.3402  -24.3145  -51.4775 H         1 UNK         0.0600 
    219 H219       -8.6407  -25.0207  -50.0331 H         1 UNK         0.0600 
    220 H220       -8.9112  -21.7908  -52.1482 H         1 UNK         0.3000 
    221 H221       -9.1202  -20.7667  -54.0725 H         1 UNK         0.0600 
    222 H222       -8.9751  -23.1237  -55.0023 H         1 UNK         0.0600 
    223 H223       -7.2625  -22.8657  -55.3218 H         1 UNK         0.0600 
    224 H224       -8.4753  -21.9021  -56.1526 H         1 UNK         0.0600 
    225 H225       -7.7539  -19.9201  -56.1477 H         1 UNK         0.3000 
    226 H226       -6.1815  -17.8037  -55.2135 H         1 UNK         0.0600 
    227 H227       -7.4644  -17.7456  -57.3296 H         1 UNK         0.0600 
    228 H228       -5.7766  -17.3794  -57.6453 H         1 UNK         0.0600 
    229 H229       -6.4121  -18.9729  -58.0369 H         1 UNK         0.0600 
    230 H230       -5.1928  -21.0257  -56.1004 H         1 UNK         0.3000 
    231 H231       -2.3924  -20.6277  -56.4762 H         1 UNK         0.0600 
    232 H232       -3.9808  -23.0697  -55.5131 H         1 UNK         0.0600 
    233 H233       -2.3026  -23.0955  -56.0454 H         1 UNK         0.0600 
    234 H234       -3.5737  -22.6896  -57.1867 H         1 UNK         0.0600 
    235 H235       -4.3988  -20.7562  -53.5515 H         1 UNK         0.3000 
    236 H236       -2.0313  -20.8924  -51.7851 H         1 UNK         0.0600 
    237 H237       -4.9897  -20.6520  -51.0603 H         1 UNK         0.0600 
    238 H238       -4.0964  -22.1659  -51.1800 H         1 UNK         0.0600 
    239 H239       -3.6428  -20.9768  -49.9738 H         1 UNK         0.0600 
    240 H240       -4.6001  -18.6248  -52.8572 H         1 UNK         0.3000 
    241 H241       -3.8102  -16.4884  -51.1838 H         1 UNK         0.0600 
    242 H242       -1.3930  -16.0111  -54.4759 H         1 UNK         0.3800 
    243 H243       -2.5966  -17.2792  -54.4971 H         1 UNK         0.3800 
    244 H244       -5.2375  -16.1213  -53.8505 H         1 UNK         0.0800 
    245 H245       -5.2663  -15.0413  -52.4902 H         1 UNK         0.0800 
    246 H246       -7.0938  -14.8940  -50.9126 H         1 UNK         0.0800 
    247 H247       -8.2297  -16.1414  -50.4708 H         1 UNK         0.0800 
@<TRIPOS>BOND
     1    1    2 1    
     2    1  127 1    
     3    1  128 1    
     4    1  129 1    
     5    2    3 2    
     6    2    4 am   BACKBONE|DICT|INTERRES
     7    4    5 1    
     8    4  130 1    
     9    5    6 1    
    10    5   65 1    
    11    5  131 1    
    12    6    7 1    
    13    6  132 1    
    14    6  133 1    
    15    7    8 1    
    16    8    9 1    
    17    8  134 1    
    18    8  135 1    
    19    9   10 ar   
    20    9   14 ar   
    21   10   11 ar   
    22   10  136 1    
    23   11   12 ar   
    24   11  126 1    
    25   12   13 ar   
    26   12  137 1    
    27   13   14 ar   
    28   13   15 1    
    29   14  138 1    
    30   15   16 1    
    31   15  139 1    
    32   15  140 1    
    33   16   17 1    
    34   17   18 1    
    35   17  141 1    
    36   17  142 1    
    37   18   19 1    
    38   18   67 1    
    39   18  143 1    
    40   19   20 am   BACKBONE|DICT|INTERRES
    41   19  144 1    
    42   20   21 2    
    43   20   22 1    
    44   22   23 1    
    45   22   24 1    
    46   22  145 1    
    47   23  146 1    
    48   23  147 1    
    49   23  148 1    
    50   24   25 am   BACKBONE|DICT|INTERRES
    51   24  149 1    
    52   25   26 2    
    53   25   27 1    
    54   27   28 1    
    55   27   29 1    
    56   27  150 1    
    57   28  151 1    
    58   28  152 1    
    59   28  153 1    
    60   29   30 am   BACKBONE|DICT|INTERRES
    61   29  154 1    
    62   30   31 2    
    63   30   32 1    
    64   32   33 1    
    65   32   34 1    
    66   32  155 1    
    67   33  156 1    
    68   33  157 1    
    69   33  158 1    
    70   34   35 am   BACKBONE|DICT|INTERRES
    71   34  159 1    
    72   35   36 2    
    73   35   37 1    
    74   37   38 1    
    75   37   39 1    
    76   37  160 1    
    77   38  161 1    
    78   38  162 1    
    79   38  163 1    
    80   39   40 am   BACKBONE|DICT|INTERRES
    81   39  164 1    
    82   40   41 2    
    83   40   42 1    
    84   42   43 1    
    85   42   44 1    
    86   42  165 1    
    87   43  166 1    
    88   43  167 1    
    89   43  168 1    
    90   44   45 am   BACKBONE|DICT|INTERRES
    91   44  169 1    
    92   45   46 2    
    93   45   47 1    
    94   47   48 1    
    95   47   49 1    
    96   47  170 1    
    97   48  171 1    
    98   48  172 1    
    99   48  173 1    
   100   49   50 am   BACKBONE|DICT|INTERRES
   101   49  174 1    
   102   50   51 2    
   103   50   52 1    
   104   52   53 1    
   105   52   54 1    
   106   52  175 1    
   107   53  176 1    
   108   53  177 1    
   109   53  178 1    
   110   54   55 am   BACKBONE|DICT|INTERRES
   111   54  179 1    
   112   55   56 2    
   113   55   57 1    
   114   57   58 1    
   115   57   59 1    
   116   57  180 1    
   117   58  181 1    
   118   58  182 1    
   119   58  183 1    
   120   59   60 am   BACKBONE|DICT|INTERRES
   121   59  184 1    
   122   60   61 2    
   123   60   62 1    
   124   62   63 1    
   125   62   64 1    
   126   62  185 1    
   127   63  186 1    
   128   63  187 1    
   129   63  188 1    
   130   64   65 am   BACKBONE|DICT|INTERRES
   131   64  189 1    
   132   65   66 2    
   133   67   68 2    
   134   67   69 am   BACKBONE|DICT|INTERRES
   135   69   70 1    
   136   69  190 1    
   137   70   71 1    
   138   70   72 1    
   139   70  191 1    
   140   71  192 1    
   141   71  193 1    
   142   71  194 1    
   143   72   73 2    
   144   72   74 am   BACKBONE|DICT|INTERRES
   145   74   75 1    
   146   74  195 1    
   147   75   76 1    
   148   75   77 1    
   149   75  196 1    
   150   76  197 1    
   151   76  198 1    
   152   76  199 1    
   153   77   78 2    
   154   77   79 am   BACKBONE|DICT|INTERRES
   155   79   80 1    
   156   79  200 1    
   157   80   81 1    
   158   80   82 1    
   159   80  201 1    
   160   81  202 1    
   161   81  203 1    
   162   81  204 1    
   163   82   83 2    
   164   82   84 am   BACKBONE|DICT|INTERRES
   165   84   85 1    
   166   84  205 1    
   167   85   86 1    
   168   85   87 1    
   169   85  206 1    
   170   86  207 1    
   171   86  208 1    
   172   86  209 1    
   173   87   88 2    
   174   87   89 am   BACKBONE|DICT|INTERRES
   175   89   90 1    
   176   89  210 1    
   177   90   91 1    
   178   90   92 1    
   179   90  211 1    
   180   91  212 1    
   181   91  213 1    
   182   91  214 1    
   183   92   93 2    
   184   92   94 am   BACKBONE|DICT|INTERRES
   185   94   95 1    
   186   94  215 1    
   187   95   96 1    
   188   95   97 1    
   189   95  216 1    
   190   96  217 1    
   191   96  218 1    
   192   96  219 1    
   193   97   98 2    
   194   97   99 am   BACKBONE|DICT|INTERRES
   195   99  100 1    
   196   99  220 1    
   197  100  101 1    
   198  100  102 1    
   199  100  221 1    
   200  101  222 1    
   201  101  223 1    
   202  101  224 1    
   203  102  103 2    
   204  102  104 am   BACKBONE|DICT|INTERRES
   205  104  105 1    
   206  104  225 1    
   207  105  106 1    
   208  105  107 1    
   209  105  226 1    
   210  106  227 1    
   211  106  228 1    
   212  106  229 1    
   213  107  108 2    
   214  107  109 am   BACKBONE|DICT|INTERRES
   215  109  110 1    
   216  109  230 1    
   217  110  111 1    
   218  110  112 1    
   219  110  231 1    
   220  111  232 1    
   221  111  233 1    
   222  111  234 1    
   223  112  113 2    
   224  112  114 am   BACKBONE|DICT|INTERRES
   225  114  115 1    
   226  114  235 1    
   227  115  116 1    
   228  115  117 1    
   229  115  236 1    
   230  116  237 1    
   231  116  238 1    
   232  116  239 1    
   233  117  118 2    
   234  117  119 am   BACKBONE|DICT|INTERRES
   235  119  120 1    
   236  119  240 1    
   237  120  121 1    
   238  120  124 1    
   239  120  241 1    
   240  121  122 am   BACKBONE|DICT|INTERRES
   241  121  123 2    
   242  122  242 1    
   243  122  243 1    
   244  124  125 1    
   245  124  244 1    
   246  124  245 1    
   247  125  126 1    
   248  126  246 1    
   249  126  247 1    
@<TRIPOS>SUBSTRUCTURE
     1 UNK         1 GROUP             0       ****    0 ROOT    
