@<TRIPOS>MOLECULE
3R540
247   249    1
SMALL
USER_CHARGES


@<TRIPOS>ATOM
      1 CA          5.1336  -13.1671  -50.6939 C.3       0 UNK        -0.1800 
      2 C           4.6787  -13.9458  -49.4675 C.2       0 UNK         0.5000 
      3 O           5.2779  -14.9688  -49.1344 O.2       0 UNK        -0.5000 
      4 N           3.6180  -13.4721  -48.8032 N.am      1 UNK        -0.5000 
      5 CA          3.0652  -14.0551  -47.5767 C.3       1 UNK         0.1400 
      6 C6          1.6499  -13.5080  -47.2714 C.3       23 UNK        -0.0398 
      7 S7          0.4203  -13.9646  -48.5419 S.3       23 UNK        -0.2404 
      8 C8          0.3870  -15.7866  -48.3874 C.3       23 UNK        -0.0205 
      9 C9         -0.9916  -16.4328  -48.5174 C.ar      23 UNK        -0.0193 
     10 C10        -2.0497  -15.8267  -49.2067 C.ar      23 UNK        -0.1150 
     11 C11        -3.2990  -16.4487  -49.2848 C.ar      23 UNK        -0.0193 
     12 C12        -3.4904  -17.6941  -48.6788 C.ar      23 UNK        -0.1150 
     13 C13        -2.4425  -18.3163  -47.9959 C.ar      23 UNK        -0.0193 
     14 C14        -1.1972  -17.6854  -47.9304 C.ar      23 UNK        -0.1150 
     15 C15        -2.6469  -19.6623  -47.3175 C.3       23 UNK        -0.0205 
     16 S16        -2.7361  -19.4616  -45.5062 S.3       23 UNK        -0.2404 
     17 C17        -2.9449  -21.1415  -44.8033 C.3       23 UNK        -0.0398 
     18 CA         -2.4502  -22.3334  -45.6568 C.3       11 UNK         0.1400 
     19 N          -1.0289  -22.2288  -46.0048 N.am      11 UNK        -0.5000 
     20 C          -0.4100  -23.0156  -46.8981 C.2       10 UNK         0.5000 
     21 O          -0.9762  -23.9297  -47.4959 O.2       10 UNK        -0.5000 
     22 CA          1.0860  -22.7658  -47.1604 C.3       10 UNK         0.1400 
     23 CB          1.2417  -21.7600  -48.3111 C.3       10 UNK        -0.1800 
     24 N           1.8153  -22.2658  -45.9961 N.am      10 UNK        -0.5000 
     25 C           1.8805  -22.8488  -44.7900 C.2       9 UNK         0.5000 
     26 O           1.4178  -23.9623  -44.5435 O.2       9 UNK        -0.5000 
     27 CA          2.5091  -22.0147  -43.6526 C.3       9 UNK         0.1400 
     28 CB          3.9580  -22.4570  -43.4006 C.3       9 UNK        -0.1800 
     29 N           2.4842  -20.5638  -43.8896 N.am      9 UNK        -0.5000 
     30 C           1.3795  -19.8321  -44.0943 C.2       8 UNK         0.5000 
     31 O           0.2384  -20.3022  -44.0814 O.2       8 UNK        -0.5000 
     32 CA          1.5932  -18.3524  -44.4430 C.3       8 UNK         0.1400 
     33 CB          2.3581  -18.2054  -45.7756 C.3       8 UNK        -0.1800 
     34 N           0.2907  -17.7035  -44.5342 N.am      8 UNK        -0.5000 
     35 C           0.0677  -16.3878  -44.5371 C.2       7 UNK         0.5000 
     36 O           0.9651  -15.5412  -44.4832 O.2       7 UNK        -0.5000 
     37 CA         -1.4048  -15.9587  -44.5956 C.3       7 UNK         0.1400 
     38 CB         -2.0324  -15.9514  -43.1912 C.3       7 UNK        -0.1800 
     39 N          -1.5170  -14.6352  -45.1951 N.am      7 UNK        -0.5000 
     40 C          -2.5834  -14.1732  -45.8575 C.2       6 UNK         0.5000 
     41 O          -3.6294  -14.8094  -45.9970 O.2       6 UNK        -0.5000 
     42 CA         -2.4780  -12.7337  -46.4063 C.3       6 UNK         0.1400 
     43 CB         -3.5516  -12.4191  -47.4625 C.3       6 UNK        -0.1800 
     44 N          -2.5747  -11.7532  -45.3251 N.am      6 UNK        -0.5000 
     45 C          -1.5867  -11.4823  -44.4657 C.2       5 UNK         0.5000 
     46 O          -0.4647  -11.9861  -44.5554 O.2       5 UNK        -0.5000 
     47 CA         -1.9273  -10.5312  -43.3014 C.3       5 UNK         0.1400 
     48 CB         -2.9518  -11.1796  -42.3540 C.3       5 UNK        -0.1800 
     49 N          -0.7285  -10.2193  -42.5282 N.am      5 UNK        -0.5000 
     50 C           0.1608   -9.2618  -42.8208 C.2       4 UNK         0.5000 
     51 O          -0.0165   -8.3939  -43.6768 O.2       4 UNK        -0.5000 
     52 CA          1.4857   -9.3050  -42.0304 C.3       4 UNK         0.1400 
     53 CB          1.3859   -8.4521  -40.7562 C.3       4 UNK        -0.1800 
     54 N           1.8645  -10.6757  -41.6678 N.am      4 UNK        -0.5000 
     55 C           2.2914  -11.5896  -42.5506 C.2       3 UNK         0.5000 
     56 O           2.5614  -11.3248  -43.7251 O.2       3 UNK        -0.5000 
     57 CA          2.3961  -13.0366  -42.0281 C.3       3 UNK         0.1400 
     58 CB          1.0026  -13.6195  -41.7350 C.3       3 UNK        -0.1800 
     59 N           3.0678  -13.9065  -42.9912 N.am      3 UNK        -0.5000 
     60 C           4.3960  -13.9684  -43.1512 C.2       2 UNK         0.5000 
     61 O           5.2008  -13.3685  -42.4366 O.2       2 UNK        -0.5000 
     62 CA          4.9181  -14.8494  -44.2986 C.3       2 UNK         0.1400 
     63 CB          5.0994  -16.2999  -43.8258 C.3       2 UNK        -0.1800 
     64 N           4.0388  -14.8307  -45.4679 N.am      2 UNK        -0.5000 
     65 C           4.0144  -13.8476  -46.3774 C.2       1 UNK         0.5000 
     66 O           4.7053  -12.8278  -46.3058 O.2       1 UNK        -0.5000 
     67 C          -2.7709  -23.6753  -44.9635 C.2       11 UNK         0.5000 
     68 O          -3.8302  -24.2486  -45.2187 O.2       11 UNK        -0.5000 
     69 N          -1.8250  -24.1848  -44.1591 N.am      12 UNK        -0.5000 
     70 CA         -1.8997  -25.4969  -43.5103 C.3       12 UNK         0.1400 
     71 CB         -0.8582  -25.5642  -42.3831 C.3       12 UNK        -0.1800 
     72 C          -1.7134  -26.6686  -44.4962 C.2       12 UNK         0.5000 
     73 O          -2.1548  -27.7797  -44.2039 O.2       12 UNK        -0.5000 
     74 N          -1.1061  -26.3960  -45.6589 N.am      13 UNK        -0.5000 
     75 CA         -0.9372  -27.3213  -46.7799 C.3       13 UNK         0.1400 
     76 CB          0.4497  -27.0904  -47.4080 C.3       13 UNK        -0.1800 
     77 C          -2.0763  -27.1692  -47.8114 C.2       13 UNK         0.5000 
     78 O          -1.8480  -27.3579  -49.0074 O.2       13 UNK        -0.5000 
     79 N          -3.2788  -26.8065  -47.3373 N.am      14 UNK        -0.5000 
     80 CA         -4.5085  -26.5835  -48.1053 C.3       14 UNK         0.1400 
     81 CB         -5.0250  -27.9098  -48.7021 C.3       14 UNK        -0.1800 
     82 C          -4.3495  -25.4707  -49.1600 C.2       14 UNK         0.5000 
     83 O          -4.7387  -25.6508  -50.3145 O.2       14 UNK        -0.5000 
     84 N          -3.7380  -24.3525  -48.7425 N.am      15 UNK        -0.5000 
     85 CA         -3.3819  -23.1894  -49.5650 C.3       15 UNK         0.1400 
     86 CB         -4.6537  -22.4747  -50.0638 C.3       15 UNK        -0.1800 
     87 C          -2.3949  -23.5696  -50.6891 C.2       15 UNK         0.5000 
     88 O          -2.5901  -23.1967  -51.8470 O.2       15 UNK        -0.5000 
     89 N          -1.3715  -24.3498  -50.3083 N.am      16 UNK        -0.5000 
     90 CA         -0.3666  -24.9958  -51.1582 C.3       16 UNK         0.1400 
     91 CB          0.6186  -23.9519  -51.7231 C.3       16 UNK        -0.1800 
     92 C          -1.0120  -25.8788  -52.2459 C.2       16 UNK         0.5000 
     93 O          -0.7173  -25.7186  -53.4299 O.2       16 UNK        -0.5000 
     94 N          -1.9259  -26.7621  -51.8179 N.am      17 UNK        -0.5000 
     95 CA         -2.7879  -27.6113  -52.6493 C.3       17 UNK         0.1400 
     96 CB         -1.9618  -28.7227  -53.3287 C.3       17 UNK        -0.1800 
     97 C          -3.6381  -26.7884  -53.6440 C.2       17 UNK         0.5000 
     98 O          -3.6969  -27.1071  -54.8331 O.2       17 UNK        -0.5000 
     99 N          -4.2571  -25.7216  -53.1209 N.am      18 UNK        -0.5000 
    100 CA        -5.0870  -24.7251  -53.8029 C.3       18 UNK         0.1400 
    101 CB        -6.3680  -25.3738  -54.3673 C.3       18 UNK        -0.1800 
    102 C         -4.3470  -23.8627  -54.8504 C.2       18 UNK         0.5000 
    103 O         -5.0069  -23.2212  -55.6703 O.2       18 UNK        -0.5000 
    104 N         -3.0063  -23.8231  -54.8057 N.am      19 UNK        -0.5000 
    105 CA        -2.1854  -22.9523  -55.6515 C.3       19 UNK         0.1400 
    106 CB        -0.7202  -23.4064  -55.6184 C.3       19 UNK        -0.1800 
    107 C         -2.3045  -21.4708  -55.2513 C.2       19 UNK         0.5000 
    108 O         -2.3069  -20.6058  -56.1288 O.2       19 UNK        -0.5000 
    109 N         -2.4525  -21.2001  -53.9464 N.am      20 UNK        -0.5000 
    110 CA        -2.8205  -19.8908  -53.4135 C.3       20 UNK         0.1400 
    111 CB        -2.2483  -19.7248  -51.9940 C.3       20 UNK        -0.1800 
    112 C         -4.3522  -19.7547  -53.4743 C.2       20 UNK         0.5000 
    113 O         -5.0383  -19.9072  -52.4624 O.2       20 UNK        -0.5000 
    114 N         -4.8624  -19.5058  -54.6890 N.am      21 UNK        -0.5000 
    115 CA        -6.2861  -19.4595  -55.0474 C.3       21 UNK         0.1400 
    116 CB        -6.4026  -19.2420  -56.5638 C.3       21 UNK        -0.1800 
    117 C         -7.1232  -18.4123  -54.2821 C.2       21 UNK         0.5000 
    118 O         -8.3504  -18.5152  -54.2590 O.2       21 UNK        -0.5000 
    119 N         -6.4472  -17.4446  -53.6536 N.am      22 UNK        -0.5000 
    120 CA        -6.9961  -16.5223  -52.6516 C.3       22 UNK         0.1400 
    121 C         -7.5167  -17.2037  -51.3486 C.2       22 UNK         0.5000 
    122 N         -7.0998  -18.4212  -51.0169 N.am      22 UNK        -0.7600 
    123 O         -8.3177  -16.6134  -50.6291 O.2       22 UNK        -0.5000 
    124 C124       -5.9847  -15.3904  -52.3297 C.3       23 UNK        -0.0398 
    125 S125       -4.3418  -16.0059  -51.8047 S.3       23 UNK        -0.2404 
    126 C126       -4.4483  -15.7648  -50.0060 C.3       23 UNK        -0.0205 
    127 H127        5.0968  -13.8037  -51.5779 H         1 UNK         0.0600 
    128 H128        6.1600  -12.8247  -50.5612 H         1 UNK         0.0600 
    129 H129        4.5053  -12.2950  -50.8768 H         1 UNK         0.0600 
    130 H130        3.1749  -12.6218  -49.1192 H         1 UNK         0.3000 
    131 H131        2.9927  -15.1319  -47.7390 H         1 UNK         0.0600 
    132 H132        1.6718  -12.4199  -47.1887 H         1 UNK         0.0800 
    133 H133        1.2864  -13.8631  -46.3087 H         1 UNK         0.0800 
    134 H134        0.8026  -16.0608  -47.4185 H         1 UNK         0.0800 
    135 H135        1.0486  -16.2144  -49.1416 H         1 UNK         0.0800 
    136 H136       -1.9139  -14.8672  -49.6836 H         1 UNK         0.1150 
    137 H137       -4.4570  -18.1747  -48.7350 H         1 UNK         0.1150 
    138 H138       -0.3894  -18.1690  -47.4003 H         1 UNK         0.1150 
    139 H139       -3.5597  -20.1398  -47.6769 H         1 UNK         0.0800 
    140 H140       -1.8181  -20.3112  -47.5955 H         1 UNK         0.0800 
    141 H141       -4.0085  -21.2600  -44.5880 H         1 UNK         0.0800 
    142 H142       -2.4450  -21.1464  -43.8329 H         1 UNK         0.0800 
    143 H143       -3.0198  -22.3290  -46.5862 H         1 UNK         0.0600 
    144 H144       -0.5011  -21.5169  -45.5093 H         1 UNK         0.3000 
    145 H145        1.5329  -23.7161  -47.4586 H         1 UNK         0.0600 
    146 H146        0.9081  -20.7624  -48.0218 H         1 UNK         0.0600 
    147 H147        2.2801  -21.6869  -48.6345 H         1 UNK         0.0600 
    148 H148        0.6500  -22.0566  -49.1774 H         1 UNK         0.0600 
    149 H149        2.2417  -21.3573  -46.0950 H         1 UNK         0.3000 
    150 H150        1.9274  -22.2120  -42.7498 H         1 UNK         0.0600 
    151 H151        4.0099  -23.5271  -43.1943 H         1 UNK         0.0600 
    152 H152        4.3846  -21.9415  -42.5400 H         1 UNK         0.0600 
    153 H153        4.5953  -22.2577  -44.2630 H         1 UNK         0.0600 
    154 H154        3.3840  -20.1066  -43.9205 H         1 UNK         0.3000 
    155 H155        2.1572  -17.8928  -43.6303 H         1 UNK         0.0600 
    156 H156        3.3572  -18.6373  -45.7113 H         1 UNK         0.0600 
    157 H157        2.4855  -17.1618  -46.0548 H         1 UNK         0.0600 
    158 H158        1.8375  -18.7038  -46.5938 H         1 UNK         0.0600 
    159 H159       -0.4869  -18.3551  -44.5323 H         1 UNK         0.3000 
    160 H160       -1.9382  -16.6718  -45.2257 H         1 UNK         0.0600 
    161 H161       -3.0917  -15.6979  -43.2335 H         1 UNK         0.0600 
    162 H162       -1.5421  -15.2309  -42.5359 H         1 UNK         0.0600 
    163 H163       -1.9540  -16.9327  -42.7216 H         1 UNK         0.0600 
    164 H164       -0.7082  -14.0334  -45.0761 H         1 UNK         0.3000 
    165 H165       -1.5056  -12.6273  -46.8882 H         1 UNK         0.0600 
    166 H166       -4.5598  -12.4882  -47.0524 H         1 UNK         0.0600 
    167 H167       -3.4221  -11.4161  -47.8693 H         1 UNK         0.0600 
    168 H168       -3.4848  -13.1167  -48.2971 H         1 UNK         0.0600 
    169 H169       -3.4821  -11.3346  -45.1805 H         1 UNK         0.3000 
    170 H170       -2.3510   -9.6126  -43.7125 H         1 UNK         0.0600 
    171 H171       -2.5899  -12.1304  -41.9596 H         1 UNK         0.0600 
    172 H172       -3.1722  -10.5285  -41.5077 H         1 UNK         0.0600 
    173 H173       -3.8965  -11.3743  -42.8627 H         1 UNK         0.0600 
    174 H174       -0.4606  -10.9061  -41.8408 H         1 UNK         0.3000 
    175 H175        2.2681   -8.8823  -42.6644 H         1 UNK         0.0600 
    176 H176        0.6235   -8.8315  -40.0745 H         1 UNK         0.0600 
    177 H177        2.3354   -8.4303  -40.2209 H         1 UNK         0.0600 
    178 H178        1.1262   -7.4206  -40.9977 H         1 UNK         0.0600 
    179 H179        1.6952  -10.9536  -40.7117 H         1 UNK         0.3000 
    180 H180        2.9681  -13.0246  -41.0978 H         1 UNK         0.0600 
    181 H181        0.3679  -13.6035  -42.6207 H         1 UNK         0.0600 
    182 H182        0.4906  -13.0576  -40.9537 H         1 UNK         0.0600 
    183 H183        1.0711  -14.6534  -41.3959 H         1 UNK         0.0600 
    184 H184        2.4655  -14.4085  -43.6349 H         1 UNK         0.3000 
    185 H185        5.8984  -14.4681  -44.5932 H         1 UNK         0.0600 
    186 H186        5.4839  -16.9332  -44.6256 H         1 UNK         0.0600 
    187 H187        5.8098  -16.3524  -42.9998 H         1 UNK         0.0600 
    188 H188        4.1613  -16.7288  -43.4756 H         1 UNK         0.0600 
    189 H189        3.4076  -15.6118  -45.5651 H         1 UNK         0.3000 
    190 H190       -0.9563  -23.6793  -44.0484 H         1 UNK         0.3000 
    191 H191       -2.8903  -25.5998  -43.0623 H         1 UNK         0.0600 
    192 H192        0.1595  -25.4975  -42.7681 H         1 UNK         0.0600 
    193 H193       -0.9999  -24.7569  -41.6644 H         1 UNK         0.0600 
    194 H194       -0.9382  -26.5040  -41.8353 H         1 UNK         0.0600 
    195 H195       -0.8163  -25.4432  -45.8347 H         1 UNK         0.3000 
    196 H196       -0.9710  -28.3503  -46.4169 H         1 UNK         0.0600 
    197 H197        1.2395  -27.1785  -46.6619 H         1 UNK         0.0600 
    198 H198        0.5293  -26.1038  -47.8639 H         1 UNK         0.0600 
    199 H199        0.6560  -27.8274  -48.1850 H         1 UNK         0.0600 
    200 H200       -3.3548  -26.6440  -46.3430 H         1 UNK         0.3000 
    201 H201       -5.2562  -26.2264  -47.3956 H         1 UNK         0.0600 
    202 H202       -5.9959  -27.7711  -49.1791 H         1 UNK         0.0600 
    203 H203       -5.1499  -28.6674  -47.9285 H         1 UNK         0.0600 
    204 H204       -4.3459  -28.3094  -49.4557 H         1 UNK         0.0600 
    205 H205       -3.3946  -24.3401  -47.7921 H         1 UNK         0.3000 
    206 H206       -2.8493  -22.4919  -48.9193 H         1 UNK         0.0600 
    207 H207       -5.1887  -23.0607  -50.8105 H         1 UNK         0.0600 
    208 H208       -4.4118  -21.5156  -50.5155 H         1 UNK         0.0600 
    209 H209       -5.3404  -22.2738  -49.2418 H         1 UNK         0.0600 
    210 H210       -1.3036  -24.5588  -49.3170 H         1 UNK         0.3000 
    211 H211        0.1998  -25.6716  -50.5159 H         1 UNK         0.0600 
    212 H212        1.1777  -23.4689  -50.9237 H         1 UNK         0.0600 
    213 H213        1.3505  -24.4169  -52.3846 H         1 UNK         0.0600 
    214 H214        0.1078  -23.1747  -52.2912 H         1 UNK         0.0600 
    215 H215       -2.0668  -26.8452  -50.8132 H         1 UNK         0.3000 
    216 H216       -3.4921  -28.0915  -51.9684 H         1 UNK         0.0600 
    217 H217       -2.6099  -29.4216  -53.8587 H         1 UNK         0.0600 
    218 H218       -1.2550  -28.3179  -54.0537 H         1 UNK         0.0600 
    219 H219       -1.3971  -29.2972  -52.5944 H         1 UNK         0.0600 
    220 H220       -4.1769  -25.5835  -52.1156 H         1 UNK         0.3000 
    221 H221       -5.3957  -24.0274  -53.0240 H         1 UNK         0.0600 
    222 H222       -6.1511  -26.0362  -55.2056 H         1 UNK         0.0600 
    223 H223       -6.8844  -25.9552  -53.6035 H         1 UNK         0.0600 
    224 H224       -7.0680  -24.6168  -54.7229 H         1 UNK         0.0600 
    225 H225       -2.5249  -24.3581  -54.0933 H         1 UNK         0.3000 
    226 H226       -2.5399  -23.0477  -56.6800 H         1 UNK         0.0600 
    227 H227       -0.6218  -24.4461  -55.9308 H         1 UNK         0.0600 
    228 H228       -0.1105  -22.8043  -56.2931 H         1 UNK         0.0600 
    229 H229       -0.2927  -23.3125  -54.6207 H         1 UNK         0.0600 
    230 H230       -2.4848  -21.9748  -53.2864 H         1 UNK         0.3000 
    231 H231       -2.3871  -19.1008  -54.0305 H         1 UNK         0.0600 
    232 H232       -2.5547  -18.7729  -51.5578 H         1 UNK         0.0600 
    233 H233       -1.1586  -19.7399  -52.0080 H         1 UNK         0.0600 
    234 H234       -2.5782  -20.5135  -51.3218 H         1 UNK         0.0600 
    235 H235       -4.2114  -19.4425  -55.4613 H         1 UNK         0.3000 
    236 H236       -6.7086  -20.4379  -54.8100 H         1 UNK         0.0600 
    237 H237       -5.9010  -20.0377  -57.1154 H         1 UNK         0.0600 
    238 H238       -7.4462  -19.2375  -56.8812 H         1 UNK         0.0600 
    239 H239       -5.9622  -18.2915  -56.8675 H         1 UNK         0.0600 
    240 H240       -5.4405  -17.4543  -53.7223 H         1 UNK         0.3000 
    241 H241       -7.8700  -16.0530  -53.1071 H         1 UNK         0.0600 
    242 H242       -7.4518  -18.8522  -50.1781 H         1 UNK         0.3800 
    243 H243       -6.4093  -18.9110  -51.5807 H         1 UNK         0.3800 
    244 H244       -5.8343  -14.7824  -53.2226 H         1 UNK         0.0800 
    245 H245       -6.3874  -14.7063  -51.5805 H         1 UNK         0.0800 
    246 H246       -5.3986  -16.1506  -49.6353 H         1 UNK         0.0800 
    247 H247       -4.4451  -14.6971  -49.7854 H         1 UNK         0.0800 
@<TRIPOS>BOND
     1    1    2 1    
     2    1  127 1    
     3    1  128 1    
     4    1  129 1    
     5    2    3 2    
     6    2    4 am   BACKBONE|DICT|INTERRES
     7    4    5 1    
     8    4  130 1    
     9    5    6 1    
    10    5   65 1    
    11    5  131 1    
    12    6    7 1    
    13    6  132 1    
    14    6  133 1    
    15    7    8 1    
    16    8    9 1    
    17    8  134 1    
    18    8  135 1    
    19    9   10 ar   
    20    9   14 ar   
    21   10   11 ar   
    22   10  136 1    
    23   11   12 ar   
    24   11  126 1    
    25   12   13 ar   
    26   12  137 1    
    27   13   14 ar   
    28   13   15 1    
    29   14  138 1    
    30   15   16 1    
    31   15  139 1    
    32   15  140 1    
    33   16   17 1    
    34   17   18 1    
    35   17  141 1    
    36   17  142 1    
    37   18   19 1    
    38   18   67 1    
    39   18  143 1    
    40   19   20 am   BACKBONE|DICT|INTERRES
    41   19  144 1    
    42   20   21 2    
    43   20   22 1    
    44   22   23 1    
    45   22   24 1    
    46   22  145 1    
    47   23  146 1    
    48   23  147 1    
    49   23  148 1    
    50   24   25 am   BACKBONE|DICT|INTERRES
    51   24  149 1    
    52   25   26 2    
    53   25   27 1    
    54   27   28 1    
    55   27   29 1    
    56   27  150 1    
    57   28  151 1    
    58   28  152 1    
    59   28  153 1    
    60   29   30 am   BACKBONE|DICT|INTERRES
    61   29  154 1    
    62   30   31 2    
    63   30   32 1    
    64   32   33 1    
    65   32   34 1    
    66   32  155 1    
    67   33  156 1    
    68   33  157 1    
    69   33  158 1    
    70   34   35 am   BACKBONE|DICT|INTERRES
    71   34  159 1    
    72   35   36 2    
    73   35   37 1    
    74   37   38 1    
    75   37   39 1    
    76   37  160 1    
    77   38  161 1    
    78   38  162 1    
    79   38  163 1    
    80   39   40 am   BACKBONE|DICT|INTERRES
    81   39  164 1    
    82   40   41 2    
    83   40   42 1    
    84   42   43 1    
    85   42   44 1    
    86   42  165 1    
    87   43  166 1    
    88   43  167 1    
    89   43  168 1    
    90   44   45 am   BACKBONE|DICT|INTERRES
    91   44  169 1    
    92   45   46 2    
    93   45   47 1    
    94   47   48 1    
    95   47   49 1    
    96   47  170 1    
    97   48  171 1    
    98   48  172 1    
    99   48  173 1    
   100   49   50 am   BACKBONE|DICT|INTERRES
   101   49  174 1    
   102   50   51 2    
   103   50   52 1    
   104   52   53 1    
   105   52   54 1    
   106   52  175 1    
   107   53  176 1    
   108   53  177 1    
   109   53  178 1    
   110   54   55 am   BACKBONE|DICT|INTERRES
   111   54  179 1    
   112   55   56 2    
   113   55   57 1    
   114   57   58 1    
   115   57   59 1    
   116   57  180 1    
   117   58  181 1    
   118   58  182 1    
   119   58  183 1    
   120   59   60 am   BACKBONE|DICT|INTERRES
   121   59  184 1    
   122   60   61 2    
   123   60   62 1    
   124   62   63 1    
   125   62   64 1    
   126   62  185 1    
   127   63  186 1    
   128   63  187 1    
   129   63  188 1    
   130   64   65 am   BACKBONE|DICT|INTERRES
   131   64  189 1    
   132   65   66 2    
   133   67   68 2    
   134   67   69 am   BACKBONE|DICT|INTERRES
   135   69   70 1    
   136   69  190 1    
   137   70   71 1    
   138   70   72 1    
   139   70  191 1    
   140   71  192 1    
   141   71  193 1    
   142   71  194 1    
   143   72   73 2    
   144   72   74 am   BACKBONE|DICT|INTERRES
   145   74   75 1    
   146   74  195 1    
   147   75   76 1    
   148   75   77 1    
   149   75  196 1    
   150   76  197 1    
   151   76  198 1    
   152   76  199 1    
   153   77   78 2    
   154   77   79 am   BACKBONE|DICT|INTERRES
   155   79   80 1    
   156   79  200 1    
   157   80   81 1    
   158   80   82 1    
   159   80  201 1    
   160   81  202 1    
   161   81  203 1    
   162   81  204 1    
   163   82   83 2    
   164   82   84 am   BACKBONE|DICT|INTERRES
   165   84   85 1    
   166   84  205 1    
   167   85   86 1    
   168   85   87 1    
   169   85  206 1    
   170   86  207 1    
   171   86  208 1    
   172   86  209 1    
   173   87   88 2    
   174   87   89 am   BACKBONE|DICT|INTERRES
   175   89   90 1    
   176   89  210 1    
   177   90   91 1    
   178   90   92 1    
   179   90  211 1    
   180   91  212 1    
   181   91  213 1    
   182   91  214 1    
   183   92   93 2    
   184   92   94 am   BACKBONE|DICT|INTERRES
   185   94   95 1    
   186   94  215 1    
   187   95   96 1    
   188   95   97 1    
   189   95  216 1    
   190   96  217 1    
   191   96  218 1    
   192   96  219 1    
   193   97   98 2    
   194   97   99 am   BACKBONE|DICT|INTERRES
   195   99  100 1    
   196   99  220 1    
   197  100  101 1    
   198  100  102 1    
   199  100  221 1    
   200  101  222 1    
   201  101  223 1    
   202  101  224 1    
   203  102  103 2    
   204  102  104 am   BACKBONE|DICT|INTERRES
   205  104  105 1    
   206  104  225 1    
   207  105  106 1    
   208  105  107 1    
   209  105  226 1    
   210  106  227 1    
   211  106  228 1    
   212  106  229 1    
   213  107  108 2    
   214  107  109 am   BACKBONE|DICT|INTERRES
   215  109  110 1    
   216  109  230 1    
   217  110  111 1    
   218  110  112 1    
   219  110  231 1    
   220  111  232 1    
   221  111  233 1    
   222  111  234 1    
   223  112  113 2    
   224  112  114 am   BACKBONE|DICT|INTERRES
   225  114  115 1    
   226  114  235 1    
   227  115  116 1    
   228  115  117 1    
   229  115  236 1    
   230  116  237 1    
   231  116  238 1    
   232  116  239 1    
   233  117  118 2    
   234  117  119 am   BACKBONE|DICT|INTERRES
   235  119  120 1    
   236  119  240 1    
   237  120  121 1    
   238  120  124 1    
   239  120  241 1    
   240  121  122 am   BACKBONE|DICT|INTERRES
   241  121  123 2    
   242  122  242 1    
   243  122  243 1    
   244  124  125 1    
   245  124  244 1    
   246  124  245 1    
   247  125  126 1    
   248  126  246 1    
   249  126  247 1    
@<TRIPOS>SUBSTRUCTURE
     1 UNK         1 GROUP             0       ****    0 ROOT    
