@<TRIPOS>MOLECULE
3R540
247   249    1
SMALL
USER_CHARGES


@<TRIPOS>ATOM
      1 CA         -2.8397  -14.7650  -53.0602 C.3       0 UNK        -0.1800 
      2 C          -1.6806  -14.4752  -52.1217 C.2       0 UNK         0.5000 
      3 O          -0.8763  -13.5844  -52.3987 O.2       0 UNK        -0.5000 
      4 N          -1.5883  -15.2288  -51.0209 N.am      1 UNK        -0.5000 
      5 CA         -0.5812  -15.0573  -49.9689 C.3       1 UNK         0.1400 
      6 C6         -0.4835  -16.2993  -49.0478 C.3       23 UNK        -0.0398 
      7 S7         -0.2081  -17.8496  -49.9737 S.3       23 UNK        -0.2404 
      8 C8          1.6084  -17.8633  -50.0744 C.3       23 UNK        -0.0205 
      9 C9          2.1502  -18.9767  -50.9635 C.ar      23 UNK        -0.0193 
     10 C10         1.8079  -19.0287  -52.3203 C.ar      23 UNK        -0.1150 
     11 C11         2.3847  -19.9772  -53.1724 C.ar      23 UNK        -0.0193 
     12 C12         3.3171  -20.8788  -52.6446 C.ar      23 UNK        -0.1150 
     13 C13         3.6692  -20.8413  -51.2930 C.ar      23 UNK        -0.0193 
     14 C14         3.0718  -19.8972  -50.4530 C.ar      23 UNK        -0.1150 
     15 C15         4.7591  -21.7693  -50.7754 C.3       23 UNK        -0.0205 
     16 S16         4.0978  -23.3484  -50.1605 S.3       23 UNK        -0.2404 
     17 C17         3.9427  -23.0172  -48.3730 C.3       23 UNK        -0.0398 
     18 CA          2.5985  -23.5123  -47.7904 C.3       11 UNK         0.1400 
     19 N           2.6976  -23.7723  -46.3512 N.am      11 UNK        -0.5000 
     20 C           1.7640  -24.4060  -45.6269 C.2       10 UNK         0.5000 
     21 O           0.7412  -24.8882  -46.1108 O.2       10 UNK        -0.5000 
     22 CA          1.9866  -24.4688  -44.1036 C.3       10 UNK         0.1400 
     23 CB          2.7232  -25.7605  -43.7203 C.3       10 UNK        -0.1800 
     24 N           2.7271  -23.3150  -43.5848 N.am      10 UNK        -0.5000 
     25 C           2.2688  -22.0565  -43.5846 C.2       9 UNK         0.5000 
     26 O           1.1592  -21.7324  -44.0130 O.2       9 UNK        -0.5000 
     27 CA          3.2461  -20.9793  -43.0982 C.3       9 UNK         0.1400 
     28 CB          3.6624  -20.0681  -44.2645 C.3       9 UNK        -0.1800 
     29 N           2.6320  -20.1609  -42.0579 N.am      9 UNK        -0.5000 
     30 C           2.9495  -20.2190  -40.7587 C.2       8 UNK         0.5000 
     31 O           3.7371  -21.0385  -40.2834 O.2       8 UNK        -0.5000 
     32 CA          2.3015  -19.1796  -39.8310 C.3       8 UNK         0.1400 
     33 CB          2.9393  -17.7967  -40.0441 C.3       8 UNK        -0.1800 
     34 N           0.8611  -19.0767  -40.0530 N.am      8 UNK        -0.5000 
     35 C          -0.0791  -19.4436  -39.1705 C.2       7 UNK         0.5000 
     36 O           0.1717  -19.9496  -38.0757 O.2       7 UNK        -0.5000 
     37 CA         -1.5526  -19.1912  -39.5526 C.3       7 UNK         0.1400 
     38 CB         -2.0908  -17.9521  -38.8206 C.3       7 UNK        -0.1800 
     39 N          -1.7511  -19.0142  -40.9907 N.am      7 UNK        -0.5000 
     40 C          -1.7027  -20.0130  -41.8840 C.2       6 UNK         0.5000 
     41 O          -1.5796  -21.1961  -41.5685 O.2       6 UNK        -0.5000 
     42 CA         -1.7921  -19.6350  -43.3766 C.3       6 UNK         0.1400 
     43 CB         -3.2188  -19.8635  -43.8984 C.3       6 UNK        -0.1800 
     44 N          -1.4067  -18.2552  -43.6807 N.am      6 UNK        -0.5000 
     45 C          -0.2262  -17.6782  -43.4132 C.2       5 UNK         0.5000 
     46 O           0.7258  -18.2696  -42.9054 O.2       5 UNK        -0.5000 
     47 CA         -0.1115  -16.1724  -43.7136 C.3       5 UNK         0.1400 
     48 CB          0.5386  -15.9462  -45.0868 C.3       5 UNK        -0.1800 
     49 N          -1.3971  -15.4700  -43.6737 N.am      5 UNK        -0.5000 
     50 C          -2.2156  -15.3726  -42.6175 C.2       4 UNK         0.5000 
     51 O          -1.9631  -15.8875  -41.5269 O.2       4 UNK        -0.5000 
     52 CA         -3.5450  -14.6081  -42.8253 C.3       4 UNK         0.1400 
     53 CB         -4.1930  -14.1899  -41.4931 C.3       4 UNK        -0.1800 
     54 N          -3.4241  -13.4217  -43.6794 N.am      4 UNK        -0.5000 
     55 C          -3.2708  -13.4132  -45.0098 C.2       3 UNK         0.5000 
     56 O          -3.1847  -14.4417  -45.6839 O.2       3 UNK        -0.5000 
     57 CA         -3.1729  -12.0440  -45.7132 C.3       3 UNK         0.1400 
     58 CB         -3.1246  -10.8316  -44.7552 C.3       3 UNK        -0.1800 
     59 N          -2.0498  -12.0090  -46.6524 N.am      3 UNK        -0.5000 
     60 C          -0.7479  -12.1616  -46.3782 C.2       2 UNK         0.5000 
     61 O          -0.2992  -12.3385  -45.2441 O.2       2 UNK        -0.5000 
     62 CA          0.2066  -12.1125  -47.5915 C.3       2 UNK         0.1400 
     63 CB          1.6617  -11.8317  -47.1749 C.3       2 UNK        -0.1800 
     64 N           0.1845  -13.3377  -48.3952 N.am      2 UNK        -0.5000 
     65 C          -0.8350  -13.7690  -49.1507 C.2       1 UNK         0.5000 
     66 O          -1.9232  -13.1895  -49.2202 O.2       1 UNK        -0.5000 
     67 C           1.4441  -22.5408  -48.1102 C.2       11 UNK         0.5000 
     68 O           0.6945  -22.7749  -49.0560 O.2       11 UNK        -0.5000 
     69 N           1.2797  -21.5039  -47.2753 N.am      12 UNK        -0.5000 
     70 CA          0.1766  -20.5512  -47.3797 C.3       12 UNK         0.1400 
     71 CB          0.4770  -19.3107  -46.5326 C.3       12 UNK        -0.1800 
     72 C          -1.1768  -21.1708  -46.9916 C.2       12 UNK         0.5000 
     73 O          -2.1970  -20.7990  -47.5700 O.2       12 UNK        -0.5000 
     74 N          -1.1653  -22.1247  -46.0491 N.am      13 UNK        -0.5000 
     75 CA         -2.3336  -22.9253  -45.6814 C.3       13 UNK         0.1400 
     76 CB         -2.0588  -23.6970  -44.3830 C.3       13 UNK        -0.1800 
     77 C          -2.7666  -23.8675  -46.8179 C.2       13 UNK         0.5000 
     78 O          -3.9572  -23.9339  -47.1221 O.2       13 UNK        -0.5000 
     79 N          -1.7949  -24.5259  -47.4668 N.am      14 UNK        -0.5000 
     80 CA         -1.9987  -25.3481  -48.6633 C.3       14 UNK         0.1400 
     81 CB         -0.6967  -26.0860  -49.0100 C.3       14 UNK        -0.1800 
     82 C          -2.5068  -24.5297  -49.8670 C.2       14 UNK         0.5000 
     83 O          -3.3774  -25.0010  -50.5989 O.2       14 UNK        -0.5000 
     84 N          -1.9981  -23.2978  -50.0088 N.am      15 UNK        -0.5000 
     85 CA         -2.4361  -22.3123  -50.9975 C.3       15 UNK         0.1400 
     86 CB         -1.3788  -21.2022  -51.0981 C.3       15 UNK        -0.1800 
     87 C          -3.8167  -21.6924  -50.7008 C.2       15 UNK         0.5000 
     88 O          -4.3509  -20.9931  -51.5644 O.2       15 UNK        -0.5000 
     89 N          -4.3502  -21.9398  -49.4950 N.am      16 UNK        -0.5000 
     90 CA         -5.5933  -21.4060  -48.9381 C.3       16 UNK         0.1400 
     91 CB         -6.8199  -22.0225  -49.6409 C.3       16 UNK        -0.1800 
     92 C          -5.5947  -19.8647  -48.8612 C.2       16 UNK         0.5000 
     93 O          -6.5944  -19.2174  -49.1796 O.2       16 UNK        -0.5000 
     94 N          -4.4534  -19.3147  -48.4214 N.am      17 UNK        -0.5000 
     95 CA         -4.1669  -17.8999  -48.1977 C.3       17 UNK         0.1400 
     96 CB         -4.9095  -17.4032  -46.9372 C.3       17 UNK        -0.1800 
     97 C          -4.4183  -17.0448  -49.4573 C.2       17 UNK         0.5000 
     98 O          -3.6776  -17.1647  -50.4345 O.2       17 UNK        -0.5000 
     99 N          -5.4560  -16.2007  -49.4191 N.am      18 UNK        -0.5000 
    100 CA        -5.8508  -15.2903  -50.4933 C.3       18 UNK         0.1400 
    101 CB        -6.8502  -14.2705  -49.9256 C.3       18 UNK        -0.1800 
    102 C         -6.4340  -15.9878  -51.7403 C.2       18 UNK         0.5000 
    103 O         -6.5615  -15.3344  -52.7763 O.2       18 UNK        -0.5000 
    104 N         -6.7805  -17.2812  -51.6387 N.am      19 UNK        -0.5000 
    105 CA        -7.3177  -18.0836  -52.7432 C.3       19 UNK         0.1400 
    106 CB        -7.8453  -19.4132  -52.1940 C.3       19 UNK        -0.1800 
    107 C         -6.3018  -18.3471  -53.8727 C.2       19 UNK         0.5000 
    108 O         -6.7207  -18.5804  -55.0073 O.2       19 UNK        -0.5000 
    109 N         -5.0005  -18.2869  -53.5476 N.am      20 UNK        -0.5000 
    110 CA        -3.8597  -18.3823  -54.4644 C.3       20 UNK         0.1400 
    111 CB        -3.8828  -17.2132  -55.4749 C.3       20 UNK        -0.1800 
    112 C         -3.7415  -19.7502  -55.1703 C.2       20 UNK         0.5000 
    113 O         -3.3152  -19.8048  -56.3257 O.2       20 UNK        -0.5000 
    114 N         -4.1052  -20.8386  -54.4751 N.am      21 UNK        -0.5000 
    115 CA        -4.0449  -22.2023  -55.0157 C.3       21 UNK         0.1400 
    116 CB        -4.9003  -23.1402  -54.1494 C.3       21 UNK        -0.1800 
    117 C         -2.6038  -22.7361  -55.1599 C.2       21 UNK         0.5000 
    118 O         -2.3715  -23.6342  -55.9701 O.2       21 UNK        -0.5000 
    119 N         -1.6692  -22.1511  -54.3974 N.am      22 UNK        -0.5000 
    120 CA        -0.2324  -22.4623  -54.3712 C.3       22 UNK         0.1400 
    121 C          0.1013  -23.9120  -53.8932 C.2       22 UNK         0.5000 
    122 N          1.3152  -24.3952  -54.1184 N.am      22 UNK        -0.7600 
    123 O         -0.7145  -24.5936  -53.2774 O.2       22 UNK        -0.5000 
    124 C124        0.4502  -22.0431  -55.7047 C.3       23 UNK        -0.0398 
    125 S125        2.1967  -21.5469  -55.5278 S.3       23 UNK        -0.2404 
    126 C126        2.0629  -19.9368  -54.6684 C.3       23 UNK        -0.0205 
    127 H127       -3.5578  -13.9454  -53.0380 H         1 UNK         0.0600 
    128 H128       -3.3595  -15.6825  -52.7844 H         1 UNK         0.0600 
    129 H129       -2.4716  -14.8716  -54.0803 H         1 UNK         0.0600 
    130 H130       -2.2802  -15.9544  -50.8504 H         1 UNK         0.3000 
    131 H131        0.3846  -14.9343  -50.4636 H         1 UNK         0.0600 
    132 H132        0.3226  -16.1831  -48.3222 H         1 UNK         0.0800 
    133 H133       -1.3973  -16.4073  -48.4644 H         1 UNK         0.0800 
    134 H134        2.0175  -17.9418  -49.0665 H         1 UNK         0.0800 
    135 H135        1.9529  -16.9089  -50.4741 H         1 UNK         0.0800 
    136 H136        1.1151  -18.3006  -52.7186 H         1 UNK         0.1150 
    137 H137        3.8059  -21.5935  -53.2906 H         1 UNK         0.1150 
    138 H138        3.3600  -19.8500  -49.4125 H         1 UNK         0.1150 
    139 H139        5.4614  -21.9870  -51.5816 H         1 UNK         0.0800 
    140 H140        5.3491  -21.2729  -50.0036 H         1 UNK         0.0800 
    141 H141        4.1002  -21.9595  -48.1558 H         1 UNK         0.0800 
    142 H142        4.7701  -23.5429  -47.8943 H         1 UNK         0.0800 
    143 H143        2.3563  -24.4685  -48.2603 H         1 UNK         0.0600 
    144 H144        3.5142  -23.4184  -45.8758 H         1 UNK         0.3000 
    145 H145        1.0049  -24.4807  -43.6259 H         1 UNK         0.0600 
    146 H146        2.8184  -25.8541  -42.6384 H         1 UNK         0.0600 
    147 H147        2.1807  -26.6383  -44.0743 H         1 UNK         0.0600 
    148 H148        3.7246  -25.7976  -44.1510 H         1 UNK         0.0600 
    149 H149        3.6483  -23.5022  -43.2153 H         1 UNK         0.3000 
    150 H150        4.1489  -21.4647  -42.7217 H         1 UNK         0.0600 
    151 H151        4.0849  -20.6457  -45.0876 H         1 UNK         0.0600 
    152 H152        4.4212  -19.3525  -43.9476 H         1 UNK         0.0600 
    153 H153        2.8187  -19.4998  -44.6557 H         1 UNK         0.0600 
    154 H154        1.9353  -19.4901  -42.3769 H         1 UNK         0.3000 
    155 H155        2.5114  -19.4844  -38.8037 H         1 UNK         0.0600 
    156 H156        2.7595  -17.4173  -41.0509 H         1 UNK         0.0600 
    157 H157        4.0191  -17.8367  -39.8953 H         1 UNK         0.0600 
    158 H158        2.5408  -17.0685  -39.3376 H         1 UNK         0.0600 
    159 H159        0.5727  -18.7129  -40.9542 H         1 UNK         0.3000 
    160 H160       -2.1324  -20.0569  -39.2255 H         1 UNK         0.0600 
    161 H161       -1.5277  -17.0553  -39.0818 H         1 UNK         0.0600 
    162 H162       -2.0238  -18.0774  -37.7392 H         1 UNK         0.0600 
    163 H163       -3.1385  -17.7726  -39.0629 H         1 UNK         0.0600 
    164 H164       -1.8541  -18.0604  -41.3175 H         1 UNK         0.3000 
    165 H165       -1.1133  -20.2983  -43.9126 H         1 UNK         0.0600 
    166 H166       -3.2608  -19.7699  -44.9837 H         1 UNK         0.0600 
    167 H167       -3.5765  -20.8613  -43.6422 H         1 UNK         0.0600 
    168 H168       -3.9224  -19.1484  -43.4705 H         1 UNK         0.0600 
    169 H169       -2.1230  -17.6739  -44.0889 H         1 UNK         0.3000 
    170 H170        0.5333  -15.7364  -42.9482 H         1 UNK         0.0600 
    171 H171        1.4751  -16.4985  -45.1767 H         1 UNK         0.0600 
    172 H172       -0.1163  -16.2683  -45.8961 H         1 UNK         0.0600 
    173 H173        0.7685  -14.8925  -45.2436 H         1 UNK         0.0600 
    174 H174       -1.7125  -15.0438  -44.5390 H         1 UNK         0.3000 
    175 H175       -4.2264  -15.3062  -43.3157 H         1 UNK         0.0600 
    176 H176       -3.5526  -13.5078  -40.9327 H         1 UNK         0.0600 
    177 H177       -5.1500  -13.6944  -41.6575 H         1 UNK         0.0600 
    178 H178       -4.3863  -15.0561  -40.8587 H         1 UNK         0.0600 
    179 H179       -3.4356  -12.5326  -43.2012 H         1 UNK         0.3000 
    180 H180       -4.0770  -11.9519  -46.3164 H         1 UNK         0.0600 
    181 H181       -2.2680  -10.8717  -44.0813 H         1 UNK         0.0600 
    182 H182       -4.0276  -10.7713  -44.1465 H         1 UNK         0.0600 
    183 H183       -3.0582   -9.8983  -45.3145 H         1 UNK         0.0600 
    184 H184       -2.3047  -12.0243  -47.6350 H         1 UNK         0.3000 
    185 H185       -0.1174  -11.2849  -48.2262 H         1 UNK         0.0600 
    186 H186        2.0748  -12.6443  -46.5756 H         1 UNK         0.0600 
    187 H187        2.3031  -11.6977  -48.0462 H         1 UNK         0.0600 
    188 H188        1.7290  -10.9190  -46.5815 H         1 UNK         0.0600 
    189 H189        1.0401  -13.8730  -48.3847 H         1 UNK         0.3000 
    190 H190        1.8903  -21.4069  -46.4784 H         1 UNK         0.3000 
    191 H191        0.1086  -20.2379  -48.4209 H         1 UNK         0.0600 
    192 H192       -0.3339  -18.5859  -46.6101 H         1 UNK         0.0600 
    193 H193        1.3910  -18.8165  -46.8601 H         1 UNK         0.0600 
    194 H194        0.5929  -19.5674  -45.4814 H         1 UNK         0.0600 
    195 H195       -0.2942  -22.3324  -45.5772 H         1 UNK         0.3000 
    196 H196       -3.1634  -22.2420  -45.4971 H         1 UNK         0.0600 
    197 H197       -2.9636  -24.1928  -44.0300 H         1 UNK         0.0600 
    198 H198       -1.7219  -23.0300  -43.5898 H         1 UNK         0.0600 
    199 H199       -1.2997  -24.4662  -44.5176 H         1 UNK         0.0600 
    200 H200       -0.8436  -24.4638  -47.1146 H         1 UNK         0.3000 
    201 H201       -2.7587  -26.0953  -48.4261 H         1 UNK         0.0600 
    202 H202       -0.3647  -26.7114  -48.1811 H         1 UNK         0.0600 
    203 H203        0.1096  -25.3927  -49.2493 H         1 UNK         0.0600 
    204 H204       -0.8361  -26.7359  -49.8747 H         1 UNK         0.0600 
    205 H205       -1.2163  -23.0271  -49.4195 H         1 UNK         0.3000 
    206 H206       -2.5033  -22.8225  -51.9571 H         1 UNK         0.0600 
    207 H207       -0.3860  -21.6066  -51.2948 H         1 UNK         0.0600 
    208 H208       -1.6130  -20.4974  -51.8963 H         1 UNK         0.0600 
    209 H209       -1.3258  -20.6291  -50.1743 H         1 UNK         0.0600 
    210 H210       -3.8154  -22.5199  -48.8615 H         1 UNK         0.3000 
    211 H211       -5.6245  -21.7388  -47.8998 H         1 UNK         0.0600 
    212 H212       -6.7775  -21.9093  -50.7222 H         1 UNK         0.0600 
    213 H213       -7.7509  -21.5740  -49.2927 H         1 UNK         0.0600 
    214 H214       -6.8815  -23.0906  -49.4328 H         1 UNK         0.0600 
    215 H215       -3.6764  -19.9411  -48.2158 H         1 UNK         0.3000 
    216 H216       -3.0985  -17.8425  -47.9924 H         1 UNK         0.0600 
    217 H217       -4.6962  -16.3522  -46.7416 H         1 UNK         0.0600 
    218 H218       -4.5928  -17.9605  -46.0561 H         1 UNK         0.0600 
    219 H219       -5.9909  -17.5142  -47.0224 H         1 UNK         0.0600 
    220 H220       -6.0320  -16.1925  -48.5900 H         1 UNK         0.3000 
    221 H221       -4.9600  -14.7473  -50.8156 H         1 UNK         0.0600 
    222 H222       -7.7600  -14.7553  -49.5694 H         1 UNK         0.0600 
    223 H223       -6.4168  -13.7140  -49.0942 H         1 UNK         0.0600 
    224 H224       -7.1414  -13.5423  -50.6838 H         1 UNK         0.0600 
    225 H225       -6.6539  -17.7579  -50.7521 H         1 UNK         0.3000 
    226 H226       -8.1580  -17.5367  -53.1757 H         1 UNK         0.0600 
    227 H227       -7.0266  -20.0136  -51.8029 H         1 UNK         0.0600 
    228 H228       -8.5683  -19.2595  -51.3928 H         1 UNK         0.0600 
    229 H229       -8.3362  -19.9952  -52.9748 H         1 UNK         0.0600 
    230 H230       -4.7692  -18.1286  -52.5752 H         1 UNK         0.3000 
    231 H231       -2.9681  -18.2722  -53.8455 H         1 UNK         0.0600 
    232 H232       -2.9084  -17.0871  -55.9479 H         1 UNK         0.0600 
    233 H233       -4.1440  -16.2706  -54.9977 H         1 UNK         0.0600 
    234 H234       -4.6113  -17.3810  -56.2690 H         1 UNK         0.0600 
    235 H235       -4.4174  -20.7361  -53.5128 H         1 UNK         0.3000 
    236 H236       -4.4851  -22.1863  -56.0152 H         1 UNK         0.0600 
    237 H237       -5.9205  -22.7683  -54.0520 H         1 UNK         0.0600 
    238 H238       -4.9575  -24.1335  -54.5960 H         1 UNK         0.0600 
    239 H239       -4.4909  -23.2612  -53.1478 H         1 UNK         0.0600 
    240 H240       -1.9739  -21.4221  -53.7720 H         1 UNK         0.3000 
    241 H241        0.1592  -21.8214  -53.5828 H         1 UNK         0.0600 
    242 H242        1.5449  -25.3221  -53.7967 H         1 UNK         0.3800 
    243 H243        2.0106  -23.8415  -54.5965 H         1 UNK         0.3800 
    244 H244        0.3813  -22.8461  -56.4405 H         1 UNK         0.0800 
    245 H245       -0.0761  -21.1982  -56.1520 H         1 UNK         0.0800 
    246 H246        2.7619  -19.2447  -55.1394 H         1 UNK         0.0800 
    247 H247        1.0683  -19.5182  -54.8293 H         1 UNK         0.0800 
@<TRIPOS>BOND
     1    1    2 1    
     2    1  127 1    
     3    1  128 1    
     4    1  129 1    
     5    2    3 2    
     6    2    4 am   BACKBONE|DICT|INTERRES
     7    4    5 1    
     8    4  130 1    
     9    5    6 1    
    10    5   65 1    
    11    5  131 1    
    12    6    7 1    
    13    6  132 1    
    14    6  133 1    
    15    7    8 1    
    16    8    9 1    
    17    8  134 1    
    18    8  135 1    
    19    9   10 ar   
    20    9   14 ar   
    21   10   11 ar   
    22   10  136 1    
    23   11   12 ar   
    24   11  126 1    
    25   12   13 ar   
    26   12  137 1    
    27   13   14 ar   
    28   13   15 1    
    29   14  138 1    
    30   15   16 1    
    31   15  139 1    
    32   15  140 1    
    33   16   17 1    
    34   17   18 1    
    35   17  141 1    
    36   17  142 1    
    37   18   19 1    
    38   18   67 1    
    39   18  143 1    
    40   19   20 am   BACKBONE|DICT|INTERRES
    41   19  144 1    
    42   20   21 2    
    43   20   22 1    
    44   22   23 1    
    45   22   24 1    
    46   22  145 1    
    47   23  146 1    
    48   23  147 1    
    49   23  148 1    
    50   24   25 am   BACKBONE|DICT|INTERRES
    51   24  149 1    
    52   25   26 2    
    53   25   27 1    
    54   27   28 1    
    55   27   29 1    
    56   27  150 1    
    57   28  151 1    
    58   28  152 1    
    59   28  153 1    
    60   29   30 am   BACKBONE|DICT|INTERRES
    61   29  154 1    
    62   30   31 2    
    63   30   32 1    
    64   32   33 1    
    65   32   34 1    
    66   32  155 1    
    67   33  156 1    
    68   33  157 1    
    69   33  158 1    
    70   34   35 am   BACKBONE|DICT|INTERRES
    71   34  159 1    
    72   35   36 2    
    73   35   37 1    
    74   37   38 1    
    75   37   39 1    
    76   37  160 1    
    77   38  161 1    
    78   38  162 1    
    79   38  163 1    
    80   39   40 am   BACKBONE|DICT|INTERRES
    81   39  164 1    
    82   40   41 2    
    83   40   42 1    
    84   42   43 1    
    85   42   44 1    
    86   42  165 1    
    87   43  166 1    
    88   43  167 1    
    89   43  168 1    
    90   44   45 am   BACKBONE|DICT|INTERRES
    91   44  169 1    
    92   45   46 2    
    93   45   47 1    
    94   47   48 1    
    95   47   49 1    
    96   47  170 1    
    97   48  171 1    
    98   48  172 1    
    99   48  173 1    
   100   49   50 am   BACKBONE|DICT|INTERRES
   101   49  174 1    
   102   50   51 2    
   103   50   52 1    
   104   52   53 1    
   105   52   54 1    
   106   52  175 1    
   107   53  176 1    
   108   53  177 1    
   109   53  178 1    
   110   54   55 am   BACKBONE|DICT|INTERRES
   111   54  179 1    
   112   55   56 2    
   113   55   57 1    
   114   57   58 1    
   115   57   59 1    
   116   57  180 1    
   117   58  181 1    
   118   58  182 1    
   119   58  183 1    
   120   59   60 am   BACKBONE|DICT|INTERRES
   121   59  184 1    
   122   60   61 2    
   123   60   62 1    
   124   62   63 1    
   125   62   64 1    
   126   62  185 1    
   127   63  186 1    
   128   63  187 1    
   129   63  188 1    
   130   64   65 am   BACKBONE|DICT|INTERRES
   131   64  189 1    
   132   65   66 2    
   133   67   68 2    
   134   67   69 am   BACKBONE|DICT|INTERRES
   135   69   70 1    
   136   69  190 1    
   137   70   71 1    
   138   70   72 1    
   139   70  191 1    
   140   71  192 1    
   141   71  193 1    
   142   71  194 1    
   143   72   73 2    
   144   72   74 am   BACKBONE|DICT|INTERRES
   145   74   75 1    
   146   74  195 1    
   147   75   76 1    
   148   75   77 1    
   149   75  196 1    
   150   76  197 1    
   151   76  198 1    
   152   76  199 1    
   153   77   78 2    
   154   77   79 am   BACKBONE|DICT|INTERRES
   155   79   80 1    
   156   79  200 1    
   157   80   81 1    
   158   80   82 1    
   159   80  201 1    
   160   81  202 1    
   161   81  203 1    
   162   81  204 1    
   163   82   83 2    
   164   82   84 am   BACKBONE|DICT|INTERRES
   165   84   85 1    
   166   84  205 1    
   167   85   86 1    
   168   85   87 1    
   169   85  206 1    
   170   86  207 1    
   171   86  208 1    
   172   86  209 1    
   173   87   88 2    
   174   87   89 am   BACKBONE|DICT|INTERRES
   175   89   90 1    
   176   89  210 1    
   177   90   91 1    
   178   90   92 1    
   179   90  211 1    
   180   91  212 1    
   181   91  213 1    
   182   91  214 1    
   183   92   93 2    
   184   92   94 am   BACKBONE|DICT|INTERRES
   185   94   95 1    
   186   94  215 1    
   187   95   96 1    
   188   95   97 1    
   189   95  216 1    
   190   96  217 1    
   191   96  218 1    
   192   96  219 1    
   193   97   98 2    
   194   97   99 am   BACKBONE|DICT|INTERRES
   195   99  100 1    
   196   99  220 1    
   197  100  101 1    
   198  100  102 1    
   199  100  221 1    
   200  101  222 1    
   201  101  223 1    
   202  101  224 1    
   203  102  103 2    
   204  102  104 am   BACKBONE|DICT|INTERRES
   205  104  105 1    
   206  104  225 1    
   207  105  106 1    
   208  105  107 1    
   209  105  226 1    
   210  106  227 1    
   211  106  228 1    
   212  106  229 1    
   213  107  108 2    
   214  107  109 am   BACKBONE|DICT|INTERRES
   215  109  110 1    
   216  109  230 1    
   217  110  111 1    
   218  110  112 1    
   219  110  231 1    
   220  111  232 1    
   221  111  233 1    
   222  111  234 1    
   223  112  113 2    
   224  112  114 am   BACKBONE|DICT|INTERRES
   225  114  115 1    
   226  114  235 1    
   227  115  116 1    
   228  115  117 1    
   229  115  236 1    
   230  116  237 1    
   231  116  238 1    
   232  116  239 1    
   233  117  118 2    
   234  117  119 am   BACKBONE|DICT|INTERRES
   235  119  120 1    
   236  119  240 1    
   237  120  121 1    
   238  120  124 1    
   239  120  241 1    
   240  121  122 am   BACKBONE|DICT|INTERRES
   241  121  123 2    
   242  122  242 1    
   243  122  243 1    
   244  124  125 1    
   245  124  244 1    
   246  124  245 1    
   247  125  126 1    
   248  126  246 1    
   249  126  247 1    
@<TRIPOS>SUBSTRUCTURE
     1 UNK         1 GROUP             0       ****    0 ROOT    
