@<TRIPOS>MOLECULE
3R540
247   249    1
SMALL
USER_CHARGES


@<TRIPOS>ATOM
      1 CA          2.9285   -9.4561  -47.3312 C.3       0 UNK        -0.1800 
      2 C           3.3574  -10.8030  -47.8954 C.2       0 UNK         0.5000 
      3 O           4.4794  -10.9336  -48.3849 O.2       0 UNK        -0.5000 
      4 N           2.4696  -11.8035  -47.8284 N.am      1 UNK        -0.5000 
      5 CA          2.7030  -13.1719  -48.3132 C.3       1 UNK         0.1400 
      6 C6          1.3847  -13.9712  -48.4416 C.3       23 UNK        -0.0398 
      7 S7          0.2571  -13.2350  -49.6709 S.3       23 UNK        -0.2404 
      8 C8          0.6429  -14.2290  -51.1473 C.3       23 UNK        -0.0205 
      9 C9          0.0511  -15.6275  -51.0595 C.ar      23 UNK        -0.0193 
     10 C10        -1.3175  -15.8156  -51.2670 C.ar      23 UNK        -0.1150 
     11 C11        -1.8789  -17.0925  -51.1982 C.ar      23 UNK        -0.0193 
     12 C12        -1.0592  -18.1866  -50.9071 C.ar      23 UNK        -0.1150 
     13 C13         0.3159  -18.0167  -50.7110 C.ar      23 UNK        -0.0193 
     14 C14         0.8651  -16.7330  -50.7927 C.ar      23 UNK        -0.1150 
     15 C15         1.2108  -19.2288  -50.4759 C.3       23 UNK        -0.0205 
     16 S16         2.2099  -19.1438  -48.9493 S.3       23 UNK        -0.2404 
     17 C17         0.9673  -18.9889  -47.6234 C.3       23 UNK        -0.0398 
     18 CA          0.2829  -20.3323  -47.2456 C.3       11 UNK         0.1400 
     19 N           0.0740  -20.4763  -45.8000 N.am      11 UNK        -0.5000 
     20 C          -0.4313  -21.5624  -45.1940 C.2       10 UNK         0.5000 
     21 O          -0.6894  -22.6145  -45.7780 O.2       10 UNK        -0.5000 
     22 CA         -0.7679  -21.4342  -43.6958 C.3       10 UNK         0.1400 
     23 CB          0.4626  -21.7244  -42.8244 C.3       10 UNK        -0.1800 
     24 N          -1.3288  -20.1238  -43.3576 N.am      10 UNK        -0.5000 
     25 C          -2.5001  -19.6650  -43.8236 C.2       9 UNK         0.5000 
     26 O          -3.2616  -20.3339  -44.5206 O.2       9 UNK        -0.5000 
     27 CA         -2.8605  -18.2016  -43.5104 C.3       9 UNK         0.1400 
     28 CB         -3.5035  -18.0806  -42.1213 C.3       9 UNK        -0.1800 
     29 N          -1.7079  -17.3048  -43.6066 N.am      9 UNK        -0.5000 
     30 C          -1.0265  -17.0581  -44.7348 C.2       8 UNK         0.5000 
     31 O          -1.3419  -17.5145  -45.8341 O.2       8 UNK        -0.5000 
     32 CA          0.2592  -16.2185  -44.6010 C.3       8 UNK         0.1400 
     33 CB         -0.0528  -14.7157  -44.5694 C.3       8 UNK        -0.1800 
     34 N           1.0378  -16.5880  -43.4171 N.am      8 UNK        -0.5000 
     35 C           1.6318  -17.7784  -43.2504 C.2       7 UNK         0.5000 
     36 O           1.6388  -18.6577  -44.1105 O.2       7 UNK        -0.5000 
     37 CA          2.2719  -18.0577  -41.8786 C.3       7 UNK         0.1400 
     38 CB          3.7117  -17.5307  -41.8031 C.3       7 UNK        -0.1800 
     39 N           1.4848  -17.4928  -40.7844 N.am      7 UNK        -0.5000 
     40 C           0.3089  -17.9863  -40.3733 C.2       6 UNK         0.5000 
     41 O          -0.2115  -18.9941  -40.8504 O.2       6 UNK        -0.5000 
     42 CA         -0.4251  -17.1957  -39.2748 C.3       6 UNK         0.1400 
     43 CB          0.0823  -17.6038  -37.8839 C.3       6 UNK        -0.1800 
     44 N          -0.2838  -15.7475  -39.4369 N.am      6 UNK        -0.5000 
     45 C          -0.7989  -15.0463  -40.4568 C.2       5 UNK         0.5000 
     46 O          -1.4855  -15.5434  -41.3476 O.2       5 UNK        -0.5000 
     47 CA         -0.4434  -13.5498  -40.5208 C.3       5 UNK         0.1400 
     48 CB         -1.4545  -12.7201  -39.7158 C.3       5 UNK        -0.1800 
     49 N           0.9126  -13.2593  -40.0472 N.am      5 UNK        -0.5000 
     50 C           2.0331  -13.7089  -40.6262 C.2       4 UNK         0.5000 
     51 O           2.0488  -14.4393  -41.6211 O.2       4 UNK        -0.5000 
     52 CA          3.3497  -13.3239  -39.9434 C.3       4 UNK         0.1400 
     53 CB          3.7013  -14.3347  -38.8388 C.3       4 UNK        -0.1800 
     54 N           4.4165  -13.3047  -40.9371 N.am      4 UNK        -0.5000 
     55 C           5.4354  -12.4378  -40.9615 C.2       3 UNK         0.5000 
     56 O           5.6024  -11.5635  -40.1095 O.2       3 UNK        -0.5000 
     57 CA          6.4545  -12.5616  -42.1144 C.3       3 UNK         0.1400 
     58 CB          7.7930  -13.1050  -41.5885 C.3       3 UNK        -0.1800 
     59 N           6.0136  -13.4095  -43.2257 N.am      3 UNK        -0.5000 
     60 C           5.0719  -13.0803  -44.1176 C.2       2 UNK         0.5000 
     61 O           4.4409  -12.0196  -44.0931 O.2       2 UNK        -0.5000 
     62 CA          4.7855  -14.1236  -45.2075 C.3       2 UNK         0.1400 
     63 CB          4.1757  -15.4034  -44.6115 C.3       2 UNK        -0.1800 
     64 N           3.8678  -13.5471  -46.1796 N.am      2 UNK        -0.5000 
     65 C           3.7096  -13.9537  -47.4431 C.2       1 UNK         0.5000 
     66 O           4.3174  -14.9061  -47.9335 O.2       1 UNK        -0.5000 
     67 C          -1.0408  -20.5074  -48.0143 C.2       11 UNK         0.5000 
     68 O          -1.1095  -21.3218  -48.9339 O.2       11 UNK        -0.5000 
     69 N          -2.0777  -19.7696  -47.5928 N.am      12 UNK        -0.5000 
     70 CA         -3.4212  -19.8305  -48.1651 C.3       12 UNK         0.1400 
     71 CB         -4.2966  -18.7269  -47.5553 C.3       12 UNK        -0.1800 
     72 C          -4.0786  -21.2146  -48.0236 C.2       12 UNK         0.5000 
     73 O          -4.6850  -21.6902  -48.9818 O.2       12 UNK        -0.5000 
     74 N          -3.9091  -21.8567  -46.8599 N.am      13 UNK        -0.5000 
     75 CA         -4.3657  -23.2209  -46.5927 C.3       13 UNK         0.1400 
     76 CB         -4.1658  -23.5547  -45.1071 C.3       13 UNK        -0.1800 
     77 C          -3.6740  -24.2639  -47.4896 C.2       13 UNK         0.5000 
     78 O          -4.3537  -25.1232  -48.0505 O.2       13 UNK        -0.5000 
     79 N          -2.3473  -24.1487  -47.6455 N.am      14 UNK        -0.5000 
     80 CA         -1.5455  -24.9888  -48.5368 C.3       14 UNK         0.1400 
     81 CB         -0.0521  -24.7155  -48.3039 C.3       14 UNK        -0.1800 
     82 C          -1.9158  -24.7948  -50.0180 C.2       14 UNK         0.5000 
     83 O          -2.0547  -25.7780  -50.7446 O.2       14 UNK        -0.5000 
     84 N          -2.1139  -23.5357  -50.4277 N.am      15 UNK        -0.5000 
     85 CA         -2.5577  -23.1534  -51.7670 C.3       15 UNK         0.1400 
     86 CB         -2.4646  -21.6289  -51.9085 C.3       15 UNK        -0.1800 
     87 C          -3.9729  -23.6614  -52.0986 C.2       15 UNK         0.5000 
     88 O          -4.2066  -24.0971  -53.2237 O.2       15 UNK        -0.5000 
     89 N          -4.8806  -23.6307  -51.1129 N.am      16 UNK        -0.5000 
     90 CA         -6.2337  -24.1778  -51.2160 C.3       16 UNK         0.1400 
     91 CB         -7.0897  -23.6587  -50.0516 C.3       16 UNK        -0.1800 
     92 C          -6.2621  -25.7161  -51.2762 C.2       16 UNK         0.5000 
     93 O          -7.1122  -26.2725  -51.9721 O.2       16 UNK        -0.5000 
     94 N          -5.3430  -26.3756  -50.5563 N.am      17 UNK        -0.5000 
     95 CA         -5.1594  -27.8283  -50.5839 C.3       17 UNK         0.1400 
     96 CB         -4.2795  -28.2598  -49.4005 C.3       17 UNK        -0.1800 
     97 C          -4.5683  -28.3195  -51.9195 C.2       17 UNK         0.5000 
     98 O          -4.9898  -29.3621  -52.4230 O.2       17 UNK        -0.5000 
     99 N          -3.6178  -27.5524  -52.4676 N.am      18 UNK        -0.5000 
    100 CA        -3.0432  -27.7273  -53.7989 C.3       18 UNK         0.1400 
    101 CB        -1.5524  -27.3348  -53.7417 C.3       18 UNK        -0.1800 
    102 C         -3.8669  -26.9234  -54.8299 C.2       18 UNK         0.5000 
    103 O         -5.0896  -27.0717  -54.8823 O.2       18 UNK        -0.5000 
    104 N         -3.1981  -26.0887  -55.6325 N.am      19 UNK        -0.5000 
    105 CA        -3.7908  -25.1315  -56.5600 C.3       19 UNK         0.1400 
    106 CB        -4.2580  -25.8541  -57.8384 C.3       19 UNK        -0.1800 
    107 C         -2.7285  -24.0632  -56.8892 C.2       19 UNK         0.5000 
    108 O         -1.5373  -24.3695  -56.8005 O.2       19 UNK        -0.5000 
    109 N         -3.1010  -22.8442  -57.3052 N.am      20 UNK        -0.5000 
    110 CA        -4.4474  -22.2675  -57.2896 C.3       20 UNK         0.1400 
    111 CB        -4.4992  -21.1101  -58.2984 C.3       20 UNK        -0.1800 
    112 C         -4.7955  -21.7591  -55.8793 C.2       20 UNK         0.5000 
    113 O         -3.9016  -21.3397  -55.1456 O.2       20 UNK        -0.5000 
    114 N         -6.0886  -21.7799  -55.5382 N.am      21 UNK        -0.5000 
    115 CA        -6.6129  -21.4780  -54.2010 C.3       21 UNK         0.1400 
    116 CB        -7.9928  -22.1453  -54.0653 C.3       21 UNK        -0.1800 
    117 C         -6.6833  -19.9776  -53.8388 C.2       21 UNK         0.5000 
    118 O         -7.2247  -19.6477  -52.7830 O.2       21 UNK        -0.5000 
    119 N         -6.1694  -19.0990  -54.7102 N.am      22 UNK        -0.5000 
    120 CA        -6.1797  -17.6276  -54.5825 C.3       22 UNK         0.1400 
    121 C         -7.5851  -16.9730  -54.7676 C.2       22 UNK         0.5000 
    122 N         -8.5832  -17.6773  -55.2880 N.am      22 UNK        -0.7600 
    123 O         -7.7720  -15.7964  -54.4689 O.2       22 UNK        -0.5000 
    124 C124       -5.4485  -17.1008  -53.3117 C.3       23 UNK        -0.0398 
    125 S125       -3.6993  -17.6095  -53.2121 S.3       23 UNK        -0.2404 
    126 C126       -3.3669  -17.2782  -51.4538 C.3       23 UNK        -0.0205 
    127 H127        2.9893   -8.6889  -48.1031 H         1 UNK         0.0600 
    128 H128        3.5848   -9.1685  -46.5097 H         1 UNK         0.0600 
    129 H129        1.9050   -9.4806  -46.9562 H         1 UNK         0.0600 
    130 H130        1.5544  -11.6279  -47.4388 H         1 UNK         0.3000 
    131 H131        3.1482  -13.0991  -49.3081 H         1 UNK         0.0600 
    132 H132        1.5814  -15.0092  -48.7125 H         1 UNK         0.0800 
    133 H133        0.8663  -14.0091  -47.4825 H         1 UNK         0.0800 
    134 H134        1.7237  -14.2705  -51.2909 H         1 UNK         0.0800 
    135 H135        0.2392  -13.7239  -52.0260 H         1 UNK         0.0800 
    136 H136       -1.9455  -14.9639  -51.4885 H         1 UNK         0.1150 
    137 H137       -1.4918  -19.1739  -50.8566 H         1 UNK         0.1150 
    138 H138        1.9285  -16.5983  -50.6517 H         1 UNK         0.1150 
    139 H139        0.6296  -20.1505  -50.4739 H         1 UNK         0.0800 
    140 H140        1.8928  -19.3154  -51.3227 H         1 UNK         0.0800 
    141 H141        0.2524  -18.2049  -47.8804 H         1 UNK         0.0800 
    142 H142        1.5120  -18.5986  -46.7637 H         1 UNK         0.0800 
    143 H143        0.9398  -21.1552  -47.5352 H         1 UNK         0.0600 
    144 H144        0.3194  -19.6779  -45.2241 H         1 UNK         0.3000 
    145 H145       -1.5249  -22.1853  -43.4621 H         1 UNK         0.0600 
    146 H146        1.2718  -21.0212  -43.0158 H         1 UNK         0.0600 
    147 H147        0.2165  -21.6722  -41.7638 H         1 UNK         0.0600 
    148 H148        0.8482  -22.7257  -43.0201 H         1 UNK         0.0600 
    149 H149       -0.7883  -19.5414  -42.7271 H         1 UNK         0.3000 
    150 H150       -3.5945  -17.8768  -44.2505 H         1 UNK         0.0600 
    151 H151       -4.3823  -18.7215  -42.0413 H         1 UNK         0.0600 
    152 H152       -3.8274  -17.0584  -41.9250 H         1 UNK         0.0600 
    153 H153       -2.8130  -18.3702  -41.3296 H         1 UNK         0.0600 
    154 H154       -1.4278  -16.8321  -42.7517 H         1 UNK         0.3000 
    155 H155        0.8756  -16.4129  -45.4813 H         1 UNK         0.0600 
    156 H156        0.8622  -14.1239  -44.5305 H         1 UNK         0.0600 
    157 H157       -0.6014  -14.4132  -45.4620 H         1 UNK         0.0600 
    158 H158       -0.6617  -14.4482  -43.7065 H         1 UNK         0.0600 
    159 H159        1.1242  -15.8922  -42.6839 H         1 UNK         0.3000 
    160 H160        2.3097  -19.1414  -41.7493 H         1 UNK         0.0600 
    161 H161        4.3156  -17.9299  -42.6188 H         1 UNK         0.0600 
    162 H162        4.1895  -17.8305  -40.8703 H         1 UNK         0.0600 
    163 H163        3.7513  -16.4439  -41.8602 H         1 UNK         0.0600 
    164 H164        1.8195  -16.6315  -40.3799 H         1 UNK         0.3000 
    165 H165       -1.4868  -17.4434  -39.3382 H         1 UNK         0.0600 
    166 H166       -0.4827  -17.1051  -37.0962 H         1 UNK         0.0600 
    167 H167       -0.0260  -18.6783  -37.7294 H         1 UNK         0.0600 
    168 H168        1.1363  -17.3572  -37.7494 H         1 UNK         0.0600 
    169 H169        0.2644  -15.2596  -38.7443 H         1 UNK         0.3000 
    170 H170       -0.5049  -13.2404  -41.5660 H         1 UNK         0.0600 
    171 H171       -2.4726  -12.9025  -40.0626 H         1 UNK         0.0600 
    172 H172       -1.4212  -12.9629  -38.6530 H         1 UNK         0.0600 
    173 H173       -1.2630  -11.6523  -39.8233 H         1 UNK         0.0600 
    174 H174        0.9850  -12.6738  -39.2274 H         1 UNK         0.3000 
    175 H175        3.2277  -12.3313  -39.5044 H         1 UNK         0.0600 
    176 H176        3.8295  -15.3410  -39.2400 H         1 UNK         0.0600 
    177 H177        4.6267  -14.0576  -38.3336 H         1 UNK         0.0600 
    178 H178        2.9192  -14.3785  -38.0800 H         1 UNK         0.0600 
    179 H179        4.2959  -13.9508  -41.7048 H         1 UNK         0.3000 
    180 H180        6.6254  -11.5549  -42.5016 H         1 UNK         0.0600 
    181 H181        7.6889  -14.1167  -41.1945 H         1 UNK         0.0600 
    182 H182        8.1825  -12.4787  -40.7847 H         1 UNK         0.0600 
    183 H183        8.5478  -13.1254  -42.3748 H         1 UNK         0.0600 
    184 H184        6.4802  -14.3007  -43.3145 H         1 UNK         0.3000 
    185 H185        5.7285  -14.3615  -45.7042 H         1 UNK         0.0600 
    186 H186        3.8870  -16.1152  -45.3850 H         1 UNK         0.0600 
    187 H187        4.8902  -15.9095  -43.9631 H         1 UNK         0.0600 
    188 H188        3.2898  -15.1746  -44.0203 H         1 UNK         0.0600 
    189 H189        3.3934  -12.7123  -45.8580 H         1 UNK         0.3000 
    190 H190       -1.9279  -19.1017  -46.8420 H         1 UNK         0.3000 
    191 H191       -3.3242  -19.6317  -49.2320 H         1 UNK         0.0600 
    192 H192       -4.4245  -18.8600  -46.4812 H         1 UNK         0.0600 
    193 H193       -5.2893  -18.7236  -48.0069 H         1 UNK         0.0600 
    194 H194       -3.8594  -17.7419  -47.7210 H         1 UNK         0.0600 
    195 H195       -3.4511  -21.3677  -46.0950 H         1 UNK         0.3000 
    196 H196       -5.4359  -23.2587  -46.8060 H         1 UNK         0.0600 
    197 H197       -3.1138  -23.5230  -44.8245 H         1 UNK         0.0600 
    198 H198       -4.5371  -24.5546  -44.8790 H         1 UNK         0.0600 
    199 H199       -4.7045  -22.8535  -44.4696 H         1 UNK         0.0600 
    200 H200       -1.8486  -23.4334  -47.1236 H         1 UNK         0.3000 
    201 H201       -1.7427  -26.0316  -48.2799 H         1 UNK         0.0600 
    202 H202        0.2306  -24.9308  -47.2734 H         1 UNK         0.0600 
    203 H203        0.2058  -23.6762  -48.5093 H         1 UNK         0.0600 
    204 H204        0.5650  -25.3419  -48.9491 H         1 UNK         0.0600 
    205 H205       -1.9255  -22.7759  -49.7774 H         1 UNK         0.3000 
    206 H206       -1.8704  -23.6028  -52.4868 H         1 UNK         0.0600 
    207 H207       -1.4399  -21.2902  -51.7593 H         1 UNK         0.0600 
    208 H208       -2.7671  -21.3028  -52.9012 H         1 UNK         0.0600 
    209 H209       -3.1018  -21.1161  -51.1885 H         1 UNK         0.0600 
    210 H210       -4.6370  -23.1823  -50.2343 H         1 UNK         0.3000 
    211 H211       -6.6751  -23.8132  -52.1437 H         1 UNK         0.0600 
    212 H212       -6.6795  -23.9573  -49.0865 H         1 UNK         0.0600 
    213 H213       -8.1079  -24.0450  -50.1115 H         1 UNK         0.0600 
    214 H214       -7.1536  -22.5705  -50.0663 H         1 UNK         0.0600 
    215 H215       -4.7303  -25.8478  -49.9441 H         1 UNK         0.3000 
    216 H216       -6.1387  -28.2959  -50.4616 H         1 UNK         0.0600 
    217 H217       -4.1549  -29.3431  -49.3822 H         1 UNK         0.0600 
    218 H218       -4.7264  -27.9671  -48.4502 H         1 UNK         0.0600 
    219 H219       -3.2853  -27.8161  -49.4523 H         1 UNK         0.0600 
    220 H220       -3.3039  -26.7364  -51.9516 H         1 UNK         0.3000 
    221 H221       -3.1008  -28.7779  -54.0898 H         1 UNK         0.0600 
    222 H222       -1.4189  -26.2820  -53.4879 H         1 UNK         0.0600 
    223 H223       -1.0257  -27.9210  -52.9883 H         1 UNK         0.0600 
    224 H224       -1.0541  -27.5204  -54.6939 H         1 UNK         0.0600 
    225 H225       -2.1946  -25.9930  -55.5370 H         1 UNK         0.3000 
    226 H226       -4.6416  -24.6658  -56.0611 H         1 UNK         0.0600 
    227 H227       -5.0397  -26.5821  -57.6220 H         1 UNK         0.0600 
    228 H228       -4.6656  -25.1514  -58.5655 H         1 UNK         0.0600 
    229 H229       -3.4347  -26.3819  -58.3211 H         1 UNK         0.0600 
    230 H230       -2.3663  -22.1807  -57.4992 H         1 UNK         0.3000 
    231 H231       -5.1799  -23.0152  -57.5964 H         1 UNK         0.0600 
    232 H232       -5.4950  -20.6665  -58.3364 H         1 UNK         0.0600 
    233 H233       -4.2603  -21.4542  -59.3050 H         1 UNK         0.0600 
    234 H234       -3.7962  -20.3168  -58.0402 H         1 UNK         0.0600 
    235 H235       -6.7686  -22.0938  -56.2160 H         1 UNK         0.3000 
    236 H236       -5.9470  -21.9326  -53.4669 H         1 UNK         0.0600 
    237 H237       -8.3926  -22.0277  -53.0571 H         1 UNK         0.0600 
    238 H238       -7.9348  -23.2161  -54.2625 H         1 UNK         0.0600 
    239 H239       -8.7168  -21.7147  -54.7579 H         1 UNK         0.0600 
    240 H240       -5.7287  -19.4643  -55.5410 H         1 UNK         0.3000 
    241 H241       -5.6099  -17.2692  -55.4404 H         1 UNK         0.0600 
    242 H242       -9.4837  -17.2422  -55.4146 H         1 UNK         0.3800 
    243 H243       -8.4493  -18.6394  -55.5533 H         1 UNK         0.3800 
    244 H244       -5.9693  -17.4181  -52.4077 H         1 UNK         0.0800 
    245 H245       -5.4571  -16.0097  -53.2933 H         1 UNK         0.0800 
    246 H246       -3.7629  -18.0982  -50.8562 H         1 UNK         0.0800 
    247 H247       -3.9047  -16.3824  -51.1394 H         1 UNK         0.0800 
@<TRIPOS>BOND
     1    1    2 1    
     2    1  127 1    
     3    1  128 1    
     4    1  129 1    
     5    2    3 2    
     6    2    4 am   BACKBONE|DICT|INTERRES
     7    4    5 1    
     8    4  130 1    
     9    5    6 1    
    10    5   65 1    
    11    5  131 1    
    12    6    7 1    
    13    6  132 1    
    14    6  133 1    
    15    7    8 1    
    16    8    9 1    
    17    8  134 1    
    18    8  135 1    
    19    9   10 ar   
    20    9   14 ar   
    21   10   11 ar   
    22   10  136 1    
    23   11   12 ar   
    24   11  126 1    
    25   12   13 ar   
    26   12  137 1    
    27   13   14 ar   
    28   13   15 1    
    29   14  138 1    
    30   15   16 1    
    31   15  139 1    
    32   15  140 1    
    33   16   17 1    
    34   17   18 1    
    35   17  141 1    
    36   17  142 1    
    37   18   19 1    
    38   18   67 1    
    39   18  143 1    
    40   19   20 am   BACKBONE|DICT|INTERRES
    41   19  144 1    
    42   20   21 2    
    43   20   22 1    
    44   22   23 1    
    45   22   24 1    
    46   22  145 1    
    47   23  146 1    
    48   23  147 1    
    49   23  148 1    
    50   24   25 am   BACKBONE|DICT|INTERRES
    51   24  149 1    
    52   25   26 2    
    53   25   27 1    
    54   27   28 1    
    55   27   29 1    
    56   27  150 1    
    57   28  151 1    
    58   28  152 1    
    59   28  153 1    
    60   29   30 am   BACKBONE|DICT|INTERRES
    61   29  154 1    
    62   30   31 2    
    63   30   32 1    
    64   32   33 1    
    65   32   34 1    
    66   32  155 1    
    67   33  156 1    
    68   33  157 1    
    69   33  158 1    
    70   34   35 am   BACKBONE|DICT|INTERRES
    71   34  159 1    
    72   35   36 2    
    73   35   37 1    
    74   37   38 1    
    75   37   39 1    
    76   37  160 1    
    77   38  161 1    
    78   38  162 1    
    79   38  163 1    
    80   39   40 am   BACKBONE|DICT|INTERRES
    81   39  164 1    
    82   40   41 2    
    83   40   42 1    
    84   42   43 1    
    85   42   44 1    
    86   42  165 1    
    87   43  166 1    
    88   43  167 1    
    89   43  168 1    
    90   44   45 am   BACKBONE|DICT|INTERRES
    91   44  169 1    
    92   45   46 2    
    93   45   47 1    
    94   47   48 1    
    95   47   49 1    
    96   47  170 1    
    97   48  171 1    
    98   48  172 1    
    99   48  173 1    
   100   49   50 am   BACKBONE|DICT|INTERRES
   101   49  174 1    
   102   50   51 2    
   103   50   52 1    
   104   52   53 1    
   105   52   54 1    
   106   52  175 1    
   107   53  176 1    
   108   53  177 1    
   109   53  178 1    
   110   54   55 am   BACKBONE|DICT|INTERRES
   111   54  179 1    
   112   55   56 2    
   113   55   57 1    
   114   57   58 1    
   115   57   59 1    
   116   57  180 1    
   117   58  181 1    
   118   58  182 1    
   119   58  183 1    
   120   59   60 am   BACKBONE|DICT|INTERRES
   121   59  184 1    
   122   60   61 2    
   123   60   62 1    
   124   62   63 1    
   125   62   64 1    
   126   62  185 1    
   127   63  186 1    
   128   63  187 1    
   129   63  188 1    
   130   64   65 am   BACKBONE|DICT|INTERRES
   131   64  189 1    
   132   65   66 2    
   133   67   68 2    
   134   67   69 am   BACKBONE|DICT|INTERRES
   135   69   70 1    
   136   69  190 1    
   137   70   71 1    
   138   70   72 1    
   139   70  191 1    
   140   71  192 1    
   141   71  193 1    
   142   71  194 1    
   143   72   73 2    
   144   72   74 am   BACKBONE|DICT|INTERRES
   145   74   75 1    
   146   74  195 1    
   147   75   76 1    
   148   75   77 1    
   149   75  196 1    
   150   76  197 1    
   151   76  198 1    
   152   76  199 1    
   153   77   78 2    
   154   77   79 am   BACKBONE|DICT|INTERRES
   155   79   80 1    
   156   79  200 1    
   157   80   81 1    
   158   80   82 1    
   159   80  201 1    
   160   81  202 1    
   161   81  203 1    
   162   81  204 1    
   163   82   83 2    
   164   82   84 am   BACKBONE|DICT|INTERRES
   165   84   85 1    
   166   84  205 1    
   167   85   86 1    
   168   85   87 1    
   169   85  206 1    
   170   86  207 1    
   171   86  208 1    
   172   86  209 1    
   173   87   88 2    
   174   87   89 am   BACKBONE|DICT|INTERRES
   175   89   90 1    
   176   89  210 1    
   177   90   91 1    
   178   90   92 1    
   179   90  211 1    
   180   91  212 1    
   181   91  213 1    
   182   91  214 1    
   183   92   93 2    
   184   92   94 am   BACKBONE|DICT|INTERRES
   185   94   95 1    
   186   94  215 1    
   187   95   96 1    
   188   95   97 1    
   189   95  216 1    
   190   96  217 1    
   191   96  218 1    
   192   96  219 1    
   193   97   98 2    
   194   97   99 am   BACKBONE|DICT|INTERRES
   195   99  100 1    
   196   99  220 1    
   197  100  101 1    
   198  100  102 1    
   199  100  221 1    
   200  101  222 1    
   201  101  223 1    
   202  101  224 1    
   203  102  103 2    
   204  102  104 am   BACKBONE|DICT|INTERRES
   205  104  105 1    
   206  104  225 1    
   207  105  106 1    
   208  105  107 1    
   209  105  226 1    
   210  106  227 1    
   211  106  228 1    
   212  106  229 1    
   213  107  108 2    
   214  107  109 am   BACKBONE|DICT|INTERRES
   215  109  110 1    
   216  109  230 1    
   217  110  111 1    
   218  110  112 1    
   219  110  231 1    
   220  111  232 1    
   221  111  233 1    
   222  111  234 1    
   223  112  113 2    
   224  112  114 am   BACKBONE|DICT|INTERRES
   225  114  115 1    
   226  114  235 1    
   227  115  116 1    
   228  115  117 1    
   229  115  236 1    
   230  116  237 1    
   231  116  238 1    
   232  116  239 1    
   233  117  118 2    
   234  117  119 am   BACKBONE|DICT|INTERRES
   235  119  120 1    
   236  119  240 1    
   237  120  121 1    
   238  120  124 1    
   239  120  241 1    
   240  121  122 am   BACKBONE|DICT|INTERRES
   241  121  123 2    
   242  122  242 1    
   243  122  243 1    
   244  124  125 1    
   245  124  244 1    
   246  124  245 1    
   247  125  126 1    
   248  126  246 1    
   249  126  247 1    
@<TRIPOS>SUBSTRUCTURE
     1 UNK         1 GROUP             0       ****    0 ROOT    
