@<TRIPOS>MOLECULE
3R540
247   249    1
SMALL
USER_CHARGES


@<TRIPOS>ATOM
      1 CA         -1.1975  -16.1253  -50.2229 C.3       0 UNK        -0.1800 
      2 C          -0.6473  -15.5160  -48.9457 C.2       0 UNK         0.5000 
      3 O          -1.4082  -15.0062  -48.1242 O.2       0 UNK        -0.5000 
      4 N           0.6766  -15.5904  -48.7637 N.am      1 UNK        -0.5000 
      5 CA          1.4062  -15.0382  -47.6152 C.3       1 UNK         0.1400 
      6 C6          2.9400  -15.0898  -47.8236 C.3       23 UNK        -0.0398 
      7 S7          3.5984  -16.7724  -48.1139 S.3       23 UNK        -0.2404 
      8 C8          3.8790  -16.8161  -49.9162 C.3       23 UNK        -0.0205 
      9 C9          3.1631  -17.9853  -50.5829 C.ar      23 UNK        -0.0193 
     10 C10         2.3456  -17.7717  -51.6966 C.ar      23 UNK        -0.1150 
     11 C11         1.7227  -18.8465  -52.3386 C.ar      23 UNK        -0.0193 
     12 C12         1.8947  -20.1418  -51.8391 C.ar      23 UNK        -0.1150 
     13 C13         2.7158  -20.3741  -50.7306 C.ar      23 UNK        -0.0193 
     14 C14         3.3566  -19.2909  -50.1199 C.ar      23 UNK        -0.1150 
     15 C15         2.9540  -21.8006  -50.2398 C.3       23 UNK        -0.0205 
     16 S16         2.8597  -21.9766  -48.4249 S.3       23 UNK        -0.2404 
     17 C17         1.0928  -21.6574  -48.1205 C.3       23 UNK        -0.0398 
     18 CA          0.4393  -22.7613  -47.2557 C.3       11 UNK         0.1400 
     19 N           1.0345  -22.8798  -45.9170 N.am      11 UNK        -0.5000 
     20 C           0.8994  -23.9683  -45.1462 C.2       10 UNK         0.5000 
     21 O           0.2362  -24.9517  -45.4748 O.2       10 UNK        -0.5000 
     22 CA          1.5671  -23.9394  -43.7576 C.3       10 UNK         0.1400 
     23 CB          3.0808  -24.1699  -43.8807 C.3       10 UNK        -0.1800 
     24 N           1.3268  -22.7176  -42.9830 N.am      10 UNK        -0.5000 
     25 C           0.1351  -22.1594  -42.7303 C.2       9 UNK         0.5000 
     26 O          -0.9184  -22.5809  -43.2060 O.2       9 UNK        -0.5000 
     27 CA          0.0808  -20.9334  -41.7919 C.3       9 UNK         0.1400 
     28 CB         -0.7991  -21.2382  -40.5687 C.3       9 UNK        -0.1800 
     29 N           1.3710  -20.4209  -41.3171 N.am      9 UNK        -0.5000 
     30 C           2.3133  -19.8438  -42.0718 C.2       8 UNK         0.5000 
     31 O           2.2877  -19.8232  -43.3027 O.2       8 UNK        -0.5000 
     32 CA          3.4998  -19.2151  -41.3155 C.3       8 UNK         0.1400 
     33 CB          4.5767  -20.2753  -41.0373 C.3       8 UNK        -0.1800 
     34 N           4.1066  -18.1088  -42.0582 N.am      8 UNK        -0.5000 
     35 C           3.4821  -16.9718  -42.3920 C.2       7 UNK         0.5000 
     36 O           2.3419  -16.6785  -42.0183 O.2       7 UNK        -0.5000 
     37 CA          4.2685  -16.0165  -43.3057 C.3       7 UNK         0.1400 
     38 CB          4.5604  -16.6743  -44.6640 C.3       7 UNK        -0.1800 
     39 N           3.4773  -14.8136  -43.5345 N.am      7 UNK        -0.5000 
     40 C           3.8680  -13.5518  -43.3267 C.2       6 UNK         0.5000 
     41 O           5.0125  -13.2274  -43.0080 O.2       6 UNK        -0.5000 
     42 CA          2.7852  -12.4679  -43.4890 C.3       6 UNK         0.1400 
     43 CB          2.8300  -11.8647  -44.9016 C.3       6 UNK        -0.1800 
     44 N           1.4486  -13.0112  -43.2529 N.am      6 UNK        -0.5000 
     45 C           0.8880  -13.1918  -42.0503 C.2       5 UNK         0.5000 
     46 O           1.3940  -12.7973  -40.9982 O.2       5 UNK        -0.5000 
     47 CA         -0.4490  -13.9649  -42.0299 C.3       5 UNK         0.1400 
     48 CB         -1.3242  -13.6328  -40.8037 C.3       5 UNK        -0.1800 
     49 N          -1.2098  -13.8349  -43.2780 N.am      5 UNK        -0.5000 
     50 C          -1.7561  -12.7252  -43.7997 C.2       4 UNK         0.5000 
     51 O          -1.7409  -11.6255  -43.2460 O.2       4 UNK        -0.5000 
     52 CA         -2.4083  -12.8529  -45.1932 C.3       4 UNK         0.1400 
     53 CB         -1.5301  -12.1666  -46.2516 C.3       4 UNK        -0.1800 
     54 N          -2.6361  -14.2387  -45.6071 N.am      4 UNK        -0.5000 
     55 C          -3.5742  -15.0528  -45.1040 C.2       3 UNK         0.5000 
     56 O          -4.4214  -14.6985  -44.2840 O.2       3 UNK        -0.5000 
     57 CA         -3.5183  -16.5227  -45.5578 C.3       3 UNK         0.1400 
     58 CB         -4.3016  -16.7350  -46.8624 C.3       3 UNK        -0.1800 
     59 N          -2.1416  -16.9872  -45.7365 N.am      3 UNK        -0.5000 
     60 C          -1.2933  -17.2557  -44.7336 C.2       2 UNK         0.5000 
     61 O          -1.5834  -17.1529  -43.5428 O.2       2 UNK        -0.5000 
     62 CA          0.1224  -17.6991  -45.1366 C.3       2 UNK         0.1400 
     63 CB          0.1224  -19.1928  -45.4765 C.3       2 UNK        -0.1800 
     64 N           0.6363  -16.9564  -46.2858 N.am      2 UNK        -0.5000 
     65 C           0.9814  -15.6626  -46.2674 C.2       1 UNK         0.5000 
     66 O           0.9402  -14.9600  -45.2572 O.2       1 UNK        -0.5000 
     67 C          -1.0905  -22.5736  -47.2061 C.2       11 UNK         0.5000 
     68 O          -1.7600  -22.9075  -48.1829 O.2       11 UNK        -0.5000 
     69 N          -1.6296  -22.0526  -46.0953 N.am      12 UNK        -0.5000 
     70 CA         -3.0710  -21.9181  -45.8787 C.3       12 UNK         0.1400 
     71 CB         -3.3523  -20.8005  -44.8630 C.3       12 UNK        -0.1800 
     72 C          -3.6855  -23.2565  -45.4403 C.2       12 UNK         0.5000 
     73 O          -4.7478  -23.6243  -45.9395 O.2       12 UNK        -0.5000 
     74 N          -2.9735  -23.9928  -44.5753 N.am      13 UNK        -0.5000 
     75 CA         -3.3100  -25.3521  -44.1457 C.3       13 UNK         0.1400 
     76 CB         -2.3560  -25.7781  -43.0195 C.3       13 UNK        -0.1800 
     77 C          -3.2804  -26.3666  -45.3061 C.2       13 UNK         0.5000 
     78 O          -4.1446  -27.2408  -45.3740 O.2       13 UNK        -0.5000 
     79 N          -2.3175  -26.1987  -46.2236 N.am      14 UNK        -0.5000 
     80 CA         -2.2037  -26.9512  -47.4763 C.3       14 UNK         0.1400 
     81 CB         -0.7750  -26.7881  -48.0192 C.3       14 UNK        -0.1800 
     82 C          -3.2296  -26.5284  -48.5506 C.2       14 UNK         0.5000 
     83 O          -3.3340  -27.2044  -49.5743 O.2       14 UNK        -0.5000 
     84 N          -3.9422  -25.4155  -48.3159 N.am      15 UNK        -0.5000 
     85 CA         -4.9342  -24.7743  -49.1864 C.3       15 UNK         0.1400 
     86 CB         -6.1388  -25.7025  -49.4435 C.3       15 UNK        -0.1800 
     87 C          -4.3468  -24.1828  -50.4863 C.2       15 UNK         0.5000 
     88 O          -5.0973  -23.8917  -51.4181 O.2       15 UNK        -0.5000 
     89 N          -3.0259  -23.9656  -50.5149 N.am      16 UNK        -0.5000 
     90 CA         -2.3094  -23.3100  -51.6056 C.3       16 UNK         0.1400 
     91 CB         -0.8114  -23.6415  -51.5131 C.3       16 UNK        -0.1800 
     92 C          -2.5388  -21.7919  -51.5776 C.2       16 UNK         0.5000 
     93 O          -2.8597  -21.2077  -52.6109 O.2       16 UNK        -0.5000 
     94 N          -2.4224  -21.1918  -50.3853 N.am      17 UNK        -0.5000 
     95 CA         -2.6722  -19.7668  -50.1489 C.3       17 UNK         0.1400 
     96 CB         -1.9989  -19.3469  -48.8331 C.3       17 UNK        -0.1800 
     97 C          -4.1723  -19.4149  -50.1288 C.2       17 UNK         0.5000 
     98 O          -4.5218  -18.2434  -50.2655 O.2       17 UNK        -0.5000 
     99 N          -5.0285  -20.4306  -49.9502 N.am      18 UNK        -0.5000 
    100 CA        -6.4856  -20.3058  -49.9651 C.3       18 UNK         0.1400 
    101 CB        -7.0967  -21.5144  -49.2391 C.3       18 UNK        -0.1800 
    102 C         -7.0644  -20.1825  -51.3889 C.2       18 UNK         0.5000 
    103 O         -8.1839  -19.6906  -51.5386 O.2       18 UNK        -0.5000 
    104 N         -6.3136  -20.6333  -52.4047 N.am      19 UNK        -0.5000 
    105 CA        -6.6783  -20.5210  -53.8157 C.3       19 UNK         0.1400 
    106 CB        -5.7657  -21.4380  -54.6450 C.3       19 UNK        -0.1800 
    107 C         -6.5594  -19.0657  -54.3001 C.2       19 UNK         0.5000 
    108 O         -5.6003  -18.3827  -53.9376 O.2       19 UNK        -0.5000 
    109 N         -7.5053  -18.6289  -55.1421 N.am      20 UNK        -0.5000 
    110 CA        -7.5725  -17.2649  -55.6807 C.3       20 UNK         0.1400 
    111 CB        -8.9058  -17.0782  -56.4210 C.3       20 UNK        -0.1800 
    112 C         -6.3884  -16.9032  -56.5988 C.2       20 UNK         0.5000 
    113 O         -5.9429  -15.7552  -56.5956 O.2       20 UNK        -0.5000 
    114 N         -5.8887  -17.8954  -57.3474 N.am      21 UNK        -0.5000 
    115 CA        -4.7004  -17.7790  -58.1967 C.3       21 UNK         0.1400 
    116 CB        -4.7974  -18.8254  -59.3184 C.3       21 UNK        -0.1800 
    117 C         -3.3821  -17.9542  -57.4137 C.2       21 UNK         0.5000 
    118 O         -2.3262  -17.5911  -57.9324 O.2       21 UNK        -0.5000 
    119 N         -3.4746  -18.5030  -56.1944 N.am      22 UNK        -0.5000 
    120 CA        -2.3881  -18.9276  -55.3024 C.3       22 UNK         0.1400 
    121 C         -1.6243  -20.1704  -55.8420 C.2       22 UNK         0.5000 
    122 N         -1.6406  -21.2744  -55.1112 N.am      22 UNK        -0.7600 
    123 O         -0.9920  -20.1405  -56.8944 O.2       22 UNK        -0.5000 
    124 C124       -1.4325  -17.7710  -54.9084 C.3       23 UNK        -0.0398 
    125 S125       -0.7539  -17.9935  -53.2304 S.3       23 UNK        -0.2404 
    126 C126        0.9117  -18.6102  -53.6038 C.3       23 UNK        -0.0205 
    127 H127       -2.2618  -16.3394  -50.1235 H         1 UNK         0.0600 
    128 H128       -0.6831  -17.0581  -50.4525 H         1 UNK         0.0600 
    129 H129       -1.0641  -15.4392  -51.0590 H         1 UNK         0.0600 
    130 H130        1.2460  -16.0501  -49.4596 H         1 UNK         0.3000 
    131 H131        1.1312  -13.9832  -47.5552 H         1 UNK         0.0600 
    132 H132        3.4516  -14.6741  -46.9536 H         1 UNK         0.0800 
    133 H133        3.2196  -14.4384  -48.6519 H         1 UNK         0.0800 
    134 H134        3.5766  -15.8736  -50.3737 H         1 UNK         0.0800 
    135 H135        4.9499  -16.9121  -50.0995 H         1 UNK         0.0800 
    136 H136        2.2112  -16.7717  -52.0850 H         1 UNK         0.1150 
    137 H137        1.4139  -20.9729  -52.3359 H         1 UNK         0.1150 
    138 H138        4.0116  -19.4632  -49.2774 H         1 UNK         0.1150 
    139 H139        2.2474  -22.4935  -50.6994 H         1 UNK         0.0800 
    140 H140        3.9463  -22.1134  -50.5668 H         1 UNK         0.0800 
    141 H141        0.5822  -21.5761  -49.0818 H         1 UNK         0.0800 
    142 H142        1.0038  -20.6787  -47.6553 H         1 UNK         0.0800 
    143 H143        0.6086  -23.7078  -47.7733 H         1 UNK         0.0600 
    144 H144        1.5965  -22.1079  -45.5876 H         1 UNK         0.3000 
    145 H145        1.1463  -24.7666  -43.1828 H         1 UNK         0.0600 
    146 H146        3.5442  -24.2809  -42.9003 H         1 UNK         0.0600 
    147 H147        3.2940  -25.0795  -44.4440 H         1 UNK         0.0600 
    148 H148        3.5740  -23.3427  -44.3931 H         1 UNK         0.0600 
    149 H149        2.1389  -22.2758  -42.5791 H         1 UNK         0.3000 
    150 H150       -0.4017  -20.1306  -42.3518 H         1 UNK         0.0600 
    151 H151       -0.3676  -22.0265  -39.9506 H         1 UNK         0.0600 
    152 H152       -1.7953  -21.5659  -40.8696 H         1 UNK         0.0600 
    153 H153       -0.9293  -20.3537  -39.9448 H         1 UNK         0.0600 
    154 H154        1.4993  -20.4292  -40.3154 H         1 UNK         0.3000 
    155 H155        3.1370  -18.8211  -40.3639 H         1 UNK         0.0600 
    156 H156        4.9790  -20.6920  -41.9618 H         1 UNK         0.0600 
    157 H157        4.1725  -21.1031  -40.4533 H         1 UNK         0.0600 
    158 H158        5.4069  -19.8554  -40.4690 H         1 UNK         0.0600 
    159 H159        5.0295  -18.2800  -42.4286 H         1 UNK         0.3000 
    160 H160        5.2094  -15.7705  -42.8094 H         1 UNK         0.0600 
    161 H161        3.6448  -17.0343  -45.1347 H         1 UNK         0.0600 
    162 H162        5.2307  -17.5277  -44.5591 H         1 UNK         0.0600 
    163 H163        5.0387  -15.9732  -45.3480 H         1 UNK         0.0600 
    164 H164        2.5016  -14.9796  -43.7513 H         1 UNK         0.3000 
    165 H165        2.9871  -11.6740  -42.7669 H         1 UNK         0.0600 
    166 H166        2.0940  -11.0681  -45.0122 H         1 UNK         0.0600 
    167 H167        3.8100  -11.4346  -45.1119 H         1 UNK         0.0600 
    168 H168        2.6281  -12.6145  -45.6670 H         1 UNK         0.0600 
    169 H169        0.9937  -13.4411  -44.0522 H         1 UNK         0.3000 
    170 H170       -0.1776  -15.0195  -41.9595 H         1 UNK         0.0600 
    171 H171       -0.8109  -13.8911  -39.8769 H         1 UNK         0.0600 
    172 H172       -1.5703  -12.5719  -40.7544 H         1 UNK         0.0600 
    173 H173       -2.2580  -14.1947  -40.8232 H         1 UNK         0.0600 
    174 H174       -1.2686  -14.6788  -43.8310 H         1 UNK         0.3000 
    175 H175       -3.3712  -12.3396  -45.1568 H         1 UNK         0.0600 
    176 H176       -1.3792  -11.1129  -46.0139 H         1 UNK         0.0600 
    177 H177       -0.5462  -12.6320  -46.3179 H         1 UNK         0.0600 
    178 H178       -1.9903  -12.2147  -47.2388 H         1 UNK         0.0600 
    179 H179       -2.0357  -14.5933  -46.3468 H         1 UNK         0.3000 
    180 H180       -3.9879  -17.1290  -44.7800 H         1 UNK         0.0600 
    181 H181       -3.8669  -16.1782  -47.6932 H         1 UNK         0.0600 
    182 H182       -5.3359  -16.4065  -46.7538 H         1 UNK         0.0600 
    183 H183       -4.3247  -17.7886  -47.1414 H         1 UNK         0.0600 
    184 H184       -1.7994  -17.0274  -46.6845 H         1 UNK         0.3000 
    185 H185        0.7881  -17.5339  -44.2865 H         1 UNK         0.0600 
    186 H186       -0.2657  -19.7824  -44.6478 H         1 UNK         0.0600 
    187 H187       -0.4970  -19.4056  -46.3464 H         1 UNK         0.0600 
    188 H188        1.1344  -19.5423  -45.6779 H         1 UNK         0.0600 
    189 H189        0.7294  -17.4587  -47.1559 H         1 UNK         0.3000 
    190 H190       -1.0349  -21.8867  -45.2947 H         1 UNK         0.3000 
    191 H191       -3.5491  -21.6334  -46.8185 H         1 UNK         0.0600 
    192 H192       -2.9704  -19.8439  -45.2181 H         1 UNK         0.0600 
    193 H193       -4.4248  -20.6808  -44.7054 H         1 UNK         0.0600 
    194 H194       -2.9008  -21.0030  -43.8921 H         1 UNK         0.0600 
    195 H195       -2.1319  -23.5861  -44.1737 H         1 UNK         0.3000 
    196 H196       -4.3256  -25.3337  -43.7452 H         1 UNK         0.0600 
    197 H197       -2.6042  -26.7749  -42.6531 H         1 UNK         0.0600 
    198 H198       -2.4165  -25.0943  -42.1726 H         1 UNK         0.0600 
    199 H199       -1.3192  -25.7998  -43.3561 H         1 UNK         0.0600 
    200 H200       -1.5876  -25.5175  -46.0382 H         1 UNK         0.3000 
    201 H201       -2.3703  -28.0086  -47.2616 H         1 UNK         0.0600 
    202 H202       -0.6261  -27.3841  -48.9204 H         1 UNK         0.0600 
    203 H203       -0.0345  -27.1154  -47.2891 H         1 UNK         0.0600 
    204 H204       -0.5602  -25.7503  -48.2740 H         1 UNK         0.0600 
    205 H205       -3.7927  -24.9458  -47.4323 H         1 UNK         0.3000 
    206 H206       -5.3031  -23.9197  -48.6191 H         1 UNK         0.0600 
    207 H207       -6.5396  -26.0948  -48.5089 H         1 UNK         0.0600 
    208 H208       -6.9474  -25.1658  -49.9410 H         1 UNK         0.0600 
    209 H209       -5.8726  -26.5484  -50.0775 H         1 UNK         0.0600 
    210 H210       -2.4989  -24.1359  -49.6669 H         1 UNK         0.3000 
    211 H211       -2.6861  -23.6934  -52.5564 H         1 UNK         0.0600 
    212 H212       -0.3778  -23.3128  -50.5687 H         1 UNK         0.0600 
    213 H213       -0.2541  -23.1581  -52.3166 H         1 UNK         0.0600 
    214 H214       -0.6422  -24.7149  -51.6000 H         1 UNK         0.0600 
    215 H215       -2.1836  -21.7632  -49.5792 H         1 UNK         0.3000 
    216 H216       -2.2179  -19.1949  -50.9594 H         1 UNK         0.0600 
    217 H217       -2.1831  -18.2954  -48.6163 H         1 UNK         0.0600 
    218 H218       -0.9192  -19.4831  -48.8846 H         1 UNK         0.0600 
    219 H219       -2.3782  -19.9174  -47.9872 H         1 UNK         0.0600 
    220 H220       -4.6497  -21.3595  -49.8538 H         1 UNK         0.3000 
    221 H221       -6.7623  -19.4039  -49.4147 H         1 UNK         0.0600 
    222 H222       -6.9191  -22.4420  -49.7834 H         1 UNK         0.0600 
    223 H223       -6.6876  -21.6254  -48.2345 H         1 UNK         0.0600 
    224 H224       -8.1767  -21.4001  -49.1386 H         1 UNK         0.0600 
    225 H225       -5.3879  -20.9854  -52.2070 H         1 UNK         0.3000 
    226 H226       -7.7104  -20.8574  -53.9345 H         1 UNK         0.0600 
    227 H227       -6.0501  -21.4256  -55.6978 H         1 UNK         0.0600 
    228 H228       -4.7214  -21.1308  -54.5847 H         1 UNK         0.0600 
    229 H229       -5.8286  -22.4713  -54.3027 H         1 UNK         0.0600 
    230 H230       -8.2576  -19.2509  -55.4019 H         1 UNK         0.3000 
    231 H231       -7.5537  -16.5728  -54.8360 H         1 UNK         0.0600 
    232 H232       -9.0000  -17.7661  -57.2622 H         1 UNK         0.0600 
    233 H233       -8.9954  -16.0647  -56.8144 H         1 UNK         0.0600 
    234 H234       -9.7533  -17.2424  -55.7553 H         1 UNK         0.0600 
    235 H235       -6.3296  -18.8024  -57.3018 H         1 UNK         0.3000 
    236 H236       -4.6829  -16.7885  -58.6565 H         1 UNK         0.0600 
    237 H237       -5.6987  -18.6824  -59.9148 H         1 UNK         0.0600 
    238 H238       -3.9459  -18.7520  -59.9964 H         1 UNK         0.0600 
    239 H239       -4.8135  -19.8412  -58.9214 H         1 UNK         0.0600 
    240 H240       -4.4013  -18.6899  -55.8387 H         1 UNK         0.3000 
    241 H241       -2.9181  -19.2321  -54.3989 H         1 UNK         0.0600 
    242 H242       -1.1490  -22.0912  -55.4357 H         1 UNK         0.3800 
    243 H243       -2.1264  -21.2913  -54.2153 H         1 UNK         0.3800 
    244 H244       -0.6333  -17.6364  -55.6394 H         1 UNK         0.0800 
    245 H245       -1.9802  -16.8278  -54.8939 H         1 UNK         0.0800 
    246 H246        0.8351  -19.5323  -54.1818 H         1 UNK         0.0800 
    247 H247        1.4310  -17.8907  -54.2387 H         1 UNK         0.0800 
@<TRIPOS>BOND
     1    1    2 1    
     2    1  127 1    
     3    1  128 1    
     4    1  129 1    
     5    2    3 2    
     6    2    4 am   BACKBONE|DICT|INTERRES
     7    4    5 1    
     8    4  130 1    
     9    5    6 1    
    10    5   65 1    
    11    5  131 1    
    12    6    7 1    
    13    6  132 1    
    14    6  133 1    
    15    7    8 1    
    16    8    9 1    
    17    8  134 1    
    18    8  135 1    
    19    9   10 ar   
    20    9   14 ar   
    21   10   11 ar   
    22   10  136 1    
    23   11   12 ar   
    24   11  126 1    
    25   12   13 ar   
    26   12  137 1    
    27   13   14 ar   
    28   13   15 1    
    29   14  138 1    
    30   15   16 1    
    31   15  139 1    
    32   15  140 1    
    33   16   17 1    
    34   17   18 1    
    35   17  141 1    
    36   17  142 1    
    37   18   19 1    
    38   18   67 1    
    39   18  143 1    
    40   19   20 am   BACKBONE|DICT|INTERRES
    41   19  144 1    
    42   20   21 2    
    43   20   22 1    
    44   22   23 1    
    45   22   24 1    
    46   22  145 1    
    47   23  146 1    
    48   23  147 1    
    49   23  148 1    
    50   24   25 am   BACKBONE|DICT|INTERRES
    51   24  149 1    
    52   25   26 2    
    53   25   27 1    
    54   27   28 1    
    55   27   29 1    
    56   27  150 1    
    57   28  151 1    
    58   28  152 1    
    59   28  153 1    
    60   29   30 am   BACKBONE|DICT|INTERRES
    61   29  154 1    
    62   30   31 2    
    63   30   32 1    
    64   32   33 1    
    65   32   34 1    
    66   32  155 1    
    67   33  156 1    
    68   33  157 1    
    69   33  158 1    
    70   34   35 am   BACKBONE|DICT|INTERRES
    71   34  159 1    
    72   35   36 2    
    73   35   37 1    
    74   37   38 1    
    75   37   39 1    
    76   37  160 1    
    77   38  161 1    
    78   38  162 1    
    79   38  163 1    
    80   39   40 am   BACKBONE|DICT|INTERRES
    81   39  164 1    
    82   40   41 2    
    83   40   42 1    
    84   42   43 1    
    85   42   44 1    
    86   42  165 1    
    87   43  166 1    
    88   43  167 1    
    89   43  168 1    
    90   44   45 am   BACKBONE|DICT|INTERRES
    91   44  169 1    
    92   45   46 2    
    93   45   47 1    
    94   47   48 1    
    95   47   49 1    
    96   47  170 1    
    97   48  171 1    
    98   48  172 1    
    99   48  173 1    
   100   49   50 am   BACKBONE|DICT|INTERRES
   101   49  174 1    
   102   50   51 2    
   103   50   52 1    
   104   52   53 1    
   105   52   54 1    
   106   52  175 1    
   107   53  176 1    
   108   53  177 1    
   109   53  178 1    
   110   54   55 am   BACKBONE|DICT|INTERRES
   111   54  179 1    
   112   55   56 2    
   113   55   57 1    
   114   57   58 1    
   115   57   59 1    
   116   57  180 1    
   117   58  181 1    
   118   58  182 1    
   119   58  183 1    
   120   59   60 am   BACKBONE|DICT|INTERRES
   121   59  184 1    
   122   60   61 2    
   123   60   62 1    
   124   62   63 1    
   125   62   64 1    
   126   62  185 1    
   127   63  186 1    
   128   63  187 1    
   129   63  188 1    
   130   64   65 am   BACKBONE|DICT|INTERRES
   131   64  189 1    
   132   65   66 2    
   133   67   68 2    
   134   67   69 am   BACKBONE|DICT|INTERRES
   135   69   70 1    
   136   69  190 1    
   137   70   71 1    
   138   70   72 1    
   139   70  191 1    
   140   71  192 1    
   141   71  193 1    
   142   71  194 1    
   143   72   73 2    
   144   72   74 am   BACKBONE|DICT|INTERRES
   145   74   75 1    
   146   74  195 1    
   147   75   76 1    
   148   75   77 1    
   149   75  196 1    
   150   76  197 1    
   151   76  198 1    
   152   76  199 1    
   153   77   78 2    
   154   77   79 am   BACKBONE|DICT|INTERRES
   155   79   80 1    
   156   79  200 1    
   157   80   81 1    
   158   80   82 1    
   159   80  201 1    
   160   81  202 1    
   161   81  203 1    
   162   81  204 1    
   163   82   83 2    
   164   82   84 am   BACKBONE|DICT|INTERRES
   165   84   85 1    
   166   84  205 1    
   167   85   86 1    
   168   85   87 1    
   169   85  206 1    
   170   86  207 1    
   171   86  208 1    
   172   86  209 1    
   173   87   88 2    
   174   87   89 am   BACKBONE|DICT|INTERRES
   175   89   90 1    
   176   89  210 1    
   177   90   91 1    
   178   90   92 1    
   179   90  211 1    
   180   91  212 1    
   181   91  213 1    
   182   91  214 1    
   183   92   93 2    
   184   92   94 am   BACKBONE|DICT|INTERRES
   185   94   95 1    
   186   94  215 1    
   187   95   96 1    
   188   95   97 1    
   189   95  216 1    
   190   96  217 1    
   191   96  218 1    
   192   96  219 1    
   193   97   98 2    
   194   97   99 am   BACKBONE|DICT|INTERRES
   195   99  100 1    
   196   99  220 1    
   197  100  101 1    
   198  100  102 1    
   199  100  221 1    
   200  101  222 1    
   201  101  223 1    
   202  101  224 1    
   203  102  103 2    
   204  102  104 am   BACKBONE|DICT|INTERRES
   205  104  105 1    
   206  104  225 1    
   207  105  106 1    
   208  105  107 1    
   209  105  226 1    
   210  106  227 1    
   211  106  228 1    
   212  106  229 1    
   213  107  108 2    
   214  107  109 am   BACKBONE|DICT|INTERRES
   215  109  110 1    
   216  109  230 1    
   217  110  111 1    
   218  110  112 1    
   219  110  231 1    
   220  111  232 1    
   221  111  233 1    
   222  111  234 1    
   223  112  113 2    
   224  112  114 am   BACKBONE|DICT|INTERRES
   225  114  115 1    
   226  114  235 1    
   227  115  116 1    
   228  115  117 1    
   229  115  236 1    
   230  116  237 1    
   231  116  238 1    
   232  116  239 1    
   233  117  118 2    
   234  117  119 am   BACKBONE|DICT|INTERRES
   235  119  120 1    
   236  119  240 1    
   237  120  121 1    
   238  120  124 1    
   239  120  241 1    
   240  121  122 am   BACKBONE|DICT|INTERRES
   241  121  123 2    
   242  122  242 1    
   243  122  243 1    
   244  124  125 1    
   245  124  244 1    
   246  124  245 1    
   247  125  126 1    
   248  126  246 1    
   249  126  247 1    
@<TRIPOS>SUBSTRUCTURE
     1 UNK         1 GROUP             0       ****    0 ROOT    
