@<TRIPOS>MOLECULE
3R540
247   249    1
SMALL
USER_CHARGES


@<TRIPOS>ATOM
      1 CA          8.0880  -10.8873  -46.6950 C.3       0 UNK        -0.1800 
      2 C           7.0222  -11.9694  -46.5940 C.2       0 UNK         0.5000 
      3 O           7.1079  -12.8329  -45.7211 O.2       0 UNK        -0.5000 
      4 N           6.0257  -11.9302  -47.4887 N.am      1 UNK        -0.5000 
      5 CA          4.8864  -12.8543  -47.5132 C.3       1 UNK         0.1400 
      6 C6          4.1389  -12.7790  -48.8688 C.3       23 UNK        -0.0398 
      7 S7          2.9327  -14.1262  -49.1202 S.3       23 UNK        -0.2404 
      8 C8          3.7196  -15.0854  -50.4509 C.3       23 UNK        -0.0205 
      9 C9          2.8618  -16.2621  -50.9002 C.ar      23 UNK        -0.0193 
     10 C10         1.6311  -16.0367  -51.5272 C.ar      23 UNK        -0.1150 
     11 C11         0.8620  -17.1076  -51.9929 C.ar      23 UNK        -0.0193 
     12 C12         1.3411  -18.4105  -51.8449 C.ar      23 UNK        -0.1150 
     13 C13         2.5638  -18.6529  -51.2140 C.ar      23 UNK        -0.0193 
     14 C14         3.3168  -17.5752  -50.7361 C.ar      23 UNK        -0.1150 
     15 C15         3.0813  -20.0788  -51.0849 C.3       23 UNK        -0.0205 
     16 S16         2.6039  -20.8529  -49.5089 S.3       23 UNK        -0.2404 
     17 C17         0.7872  -20.9185  -49.6696 C.3       23 UNK        -0.0398 
     18 CA          0.1346  -21.8040  -48.5843 C.3       11 UNK         0.1400 
     19 N           0.2649  -21.2430  -47.2382 N.am      11 UNK        -0.5000 
     20 C          -0.0561  -21.8833  -46.1059 C.2       10 UNK         0.5000 
     21 O          -0.4673  -23.0440  -46.0695 O.2       10 UNK        -0.5000 
     22 CA          0.0557  -21.0754  -44.7990 C.3       10 UNK         0.1400 
     23 CB          1.5171  -20.9618  -44.3394 C.3       10 UNK        -0.1800 
     24 N          -0.5292  -19.7386  -44.9145 N.am      10 UNK        -0.5000 
     25 C          -1.8292  -19.4994  -45.1387 C.2       9 UNK         0.5000 
     26 O          -2.6825  -20.3816  -45.2275 O.2       9 UNK        -0.5000 
     27 CA         -2.2402  -18.0313  -45.3435 C.3       9 UNK         0.1400 
     28 CB         -2.3957  -17.3044  -43.9988 C.3       9 UNK        -0.1800 
     29 N          -1.2972  -17.3061  -46.1940 N.am      9 UNK        -0.5000 
     30 C          -1.1084  -17.5608  -47.4970 C.2       8 UNK         0.5000 
     31 O          -1.7200  -18.4245  -48.1210 O.2       8 UNK        -0.5000 
     32 CA         -0.0170  -16.7439  -48.2082 C.3       8 UNK         0.1400 
     33 CB         -0.5568  -15.3550  -48.5841 C.3       8 UNK        -0.1800 
     34 N           1.1991  -16.6045  -47.4049 N.am      8 UNK        -0.5000 
     35 C           1.9359  -17.6327  -46.9583 C.2       7 UNK         0.5000 
     36 O           1.6781  -18.8099  -47.1898 O.2       7 UNK        -0.5000 
     37 CA          3.1010  -17.2987  -46.0145 C.3       7 UNK         0.1400 
     38 CB          4.3651  -16.9213  -46.7989 C.3       7 UNK        -0.1800 
     39 N           2.7537  -16.2347  -45.0735 N.am      7 UNK        -0.5000 
     40 C           1.8146  -16.3479  -44.1269 C.2       6 UNK         0.5000 
     41 O           1.1347  -17.3630  -43.9513 O.2       6 UNK        -0.5000 
     42 CA          1.5539  -15.0884  -43.2820 C.3       6 UNK         0.1400 
     43 CB          0.4718  -14.2240  -43.9493 C.3       6 UNK        -0.1800 
     44 N           1.1394  -15.3871  -41.9095 N.am      6 UNK        -0.5000 
     45 C           1.8466  -16.0904  -41.0146 C.2       5 UNK         0.5000 
     46 O           2.9657  -16.5585  -41.2315 O.2       5 UNK        -0.5000 
     47 CA          1.2353  -16.1773  -39.6084 C.3       5 UNK         0.1400 
     48 CB          1.8511  -17.2962  -38.7491 C.3       5 UNK        -0.1800 
     49 N           1.4901  -14.8890  -38.9787 N.am      5 UNK        -0.5000 
     50 C           0.5733  -14.0737  -38.4464 C.2       4 UNK         0.5000 
     51 O          -0.6018  -14.3874  -38.2538 O.2       4 UNK        -0.5000 
     52 CA          1.0514  -12.6422  -38.1197 C.3       4 UNK         0.1400 
     53 CB          1.5467  -12.5554  -36.6680 C.3       4 UNK        -0.1800 
     54 N           2.1128  -12.1756  -39.0229 N.am      4 UNK        -0.5000 
     55 C           1.9549  -11.9919  -40.3415 C.2       3 UNK         0.5000 
     56 O           0.8685  -12.1038  -40.9186 O.2       3 UNK        -0.5000 
     57 CA          3.2198  -11.6733  -41.1569 C.3       3 UNK         0.1400 
     58 CB          4.2561  -12.8130  -41.0469 C.3       3 UNK        -0.1800 
     59 N           2.8077  -11.4827  -42.5437 N.am      3 UNK        -0.5000 
     60 C           3.5509  -11.0372  -43.5588 C.2       2 UNK         0.5000 
     61 O           4.7343  -10.7047  -43.4602 O.2       2 UNK        -0.5000 
     62 CA          2.8263  -10.9005  -44.9087 C.3       2 UNK         0.1400 
     63 CB          2.3944   -9.4455  -45.1468 C.3       2 UNK        -0.1800 
     64 N           3.6758  -11.3320  -46.0152 N.am      2 UNK        -0.5000 
     65 C           3.9376  -12.6108  -46.3180 C.2       1 UNK         0.5000 
     66 O           3.4730  -13.5699  -45.6993 O.2       1 UNK        -0.5000 
     67 C          -1.3343  -22.1057  -48.9339 C.2       11 UNK         0.5000 
     68 O          -1.6092  -23.1914  -49.4393 O.2       11 UNK        -0.5000 
     69 N          -2.2546  -21.1802  -48.6245 N.am      12 UNK        -0.5000 
     70 CA         -3.6960  -21.3616  -48.8044 C.3       12 UNK         0.1400 
     71 CB         -4.4359  -20.0525  -48.4951 C.3       12 UNK        -0.1800 
     72 C          -4.2572  -22.5184  -47.9604 C.2       12 UNK         0.5000 
     73 O          -5.0307  -23.3191  -48.4799 O.2       12 UNK        -0.5000 
     74 N          -3.8321  -22.6226  -46.6930 N.am      13 UNK        -0.5000 
     75 CA         -4.1987  -23.7175  -45.7917 C.3       13 UNK         0.1400 
     76 CB         -3.6597  -23.4360  -44.3813 C.3       13 UNK        -0.1800 
     77 C          -3.7256  -25.0930  -46.2991 C.2       13 UNK         0.5000 
     78 O          -4.4967  -26.0528  -46.2555 O.2       13 UNK        -0.5000 
     79 N          -2.4874  -25.1544  -46.8095 N.am      14 UNK        -0.5000 
     80 CA         -1.9117  -26.3427  -47.4421 C.3       14 UNK         0.1400 
     81 CB         -0.4080  -26.1223  -47.6662 C.3       14 UNK        -0.1800 
     82 C          -2.6134  -26.7167  -48.7631 C.2       14 UNK         0.5000 
     83 O          -2.8237  -27.9006  -49.0273 O.2       14 UNK        -0.5000 
     84 N          -2.9902  -25.7028  -49.5512 N.am      15 UNK        -0.5000 
     85 CA         -3.6604  -25.8196  -50.8465 C.3       15 UNK         0.1400 
     86 CB         -3.1881  -24.6704  -51.7503 C.3       15 UNK        -0.1800 
     87 C          -5.2000  -25.8681  -50.7442 C.2       15 UNK         0.5000 
     88 O          -5.8777  -25.4702  -51.6937 O.2       15 UNK        -0.5000 
     89 N          -5.7281  -26.3588  -49.6116 N.am      16 UNK        -0.5000 
     90 CA         -7.1461  -26.6165  -49.3286 C.3       16 UNK         0.1400 
     91 CB         -7.6171  -27.8692  -50.0933 C.3       16 UNK        -0.1800 
     92 C          -8.0502  -25.3888  -49.5683 C.2       16 UNK         0.5000 
     93 O          -9.0524  -25.4722  -50.2819 O.2       16 UNK        -0.5000 
     94 N          -7.6337  -24.2567  -48.9914 N.am      17 UNK        -0.5000 
     95 CA         -8.1748  -22.9033  -49.1094 C.3       17 UNK         0.1400 
     96 CB         -9.6732  -22.8225  -48.7557 C.3       17 UNK        -0.1800 
     97 C          -7.8587  -22.2642  -50.4702 C.2       17 UNK         0.5000 
     98 O          -7.2052  -21.2213  -50.5026 O.2       17 UNK        -0.5000 
     99 N          -8.3150  -22.8849  -51.5637 N.am      18 UNK        -0.5000 
    100 CA        -8.1849  -22.3536  -52.9192 C.3       18 UNK         0.1400 
    101 CB        -9.1891  -21.2010  -53.1380 C.3       18 UNK        -0.1800 
    102 C         -8.2969  -23.4524  -53.9896 C.2       18 UNK         0.5000 
    103 O         -8.8200  -23.1892  -55.0743 O.2       18 UNK        -0.5000 
    104 N         -7.7903  -24.6610  -53.7018 N.am      19 UNK        -0.5000 
    105 CA        -7.6330  -25.7144  -54.7129 C.3       19 UNK         0.1400 
    106 CB        -7.5465  -27.0899  -54.0355 C.3       19 UNK        -0.1800 
    107 C         -6.4049  -25.4627  -55.6121 C.2       19 UNK         0.5000 
    108 O         -6.3658  -25.9563  -56.7399 O.2       19 UNK        -0.5000 
    109 N         -5.4448  -24.6777  -55.1105 N.am      20 UNK        -0.5000 
    110 CA        -4.2754  -24.1732  -55.8169 C.3       20 UNK         0.1400 
    111 CB        -3.1707  -25.2472  -55.8443 C.3       20 UNK        -0.1800 
    112 C         -3.8051  -22.8821  -55.1256 C.2       20 UNK         0.5000 
    113 O         -4.2971  -22.5469  -54.0418 O.2       20 UNK        -0.5000 
    114 N         -2.8523  -22.1895  -55.7654 N.am      21 UNK        -0.5000 
    115 CA        -2.2055  -20.9555  -55.3061 C.3       21 UNK         0.1400 
    116 CB        -1.2477  -21.2689  -54.1310 C.3       21 UNK        -0.1800 
    117 C         -3.2299  -19.8367  -55.0071 C.2       21 UNK         0.5000 
    118 O         -4.1250  -19.6034  -55.8224 O.2       21 UNK        -0.5000 
    119 N         -3.0845  -19.1796  -53.8533 N.am      22 UNK        -0.5000 
    120 CA        -4.0199  -18.1935  -53.2943 C.3       22 UNK         0.1400 
    121 C         -5.0435  -18.8037  -52.2888 C.2       22 UNK         0.5000 
    122 N         -5.1554  -20.1213  -52.1609 N.am      22 UNK        -0.7600 
    123 O         -5.7764  -18.0680  -51.6336 O.2       22 UNK        -0.5000 
    124 C124       -3.2738  -16.9481  -52.7377 C.3       23 UNK        -0.0398 
    125 S125       -1.8770  -17.3251  -51.6175 S.3       23 UNK        -0.2404 
    126 C126       -0.4718  -16.8651  -52.6812 C.3       23 UNK        -0.0205 
    127 H127        8.1199  -10.3067  -45.7730 H         1 UNK         0.0600 
    128 H128        7.8951  -10.2026  -47.5213 H         1 UNK         0.0600 
    129 H129        9.0681  -11.3386  -46.8493 H         1 UNK         0.0600 
    130 H130        6.0236  -11.2029  -48.1900 H         1 UNK         0.3000 
    131 H131        5.2898  -13.8637  -47.4099 H         1 UNK         0.0600 
    132 H132        3.6152  -11.8268  -48.9701 H         1 UNK         0.0800 
    133 H133        4.8608  -12.8047  -49.6862 H         1 UNK         0.0800 
    134 H134        3.8991  -14.4346  -51.3078 H         1 UNK         0.0800 
    135 H135        4.6975  -15.4289  -50.1098 H         1 UNK         0.0800 
    136 H136        1.2765  -15.0235  -51.6544 H         1 UNK         0.1150 
    137 H137        0.7560  -19.2384  -52.2182 H         1 UNK         0.1150 
    138 H138        4.2672  -17.7607  -50.2558 H         1 UNK         0.1150 
    139 H139        2.7208  -20.6903  -51.9135 H         1 UNK         0.0800 
    140 H140        4.1696  -20.0814  -51.1600 H         1 UNK         0.0800 
    141 H141        0.5544  -21.2989  -50.6661 H         1 UNK         0.0800 
    142 H142        0.3882  -19.9036  -49.6194 H         1 UNK         0.0800 
    143 H143        0.6565  -22.7636  -48.5815 H         1 UNK         0.0600 
    144 H144        0.6533  -20.3025  -47.1817 H         1 UNK         0.3000 
    145 H145       -0.4992  -21.6144  -44.0283 H         1 UNK         0.0600 
    146 H146        1.5916  -20.4310  -43.3900 H         1 UNK         0.0600 
    147 H147        1.9581  -21.9492  -44.1976 H         1 UNK         0.0600 
    148 H148        2.1304  -20.4306  -45.0671 H         1 UNK         0.0600 
    149 H149        0.1045  -18.9508  -44.8309 H         1 UNK         0.3000 
    150 H150       -3.2117  -18.0259  -45.8421 H         1 UNK         0.0600 
    151 H151       -3.1290  -17.8092  -43.3686 H         1 UNK         0.0600 
    152 H152       -2.7411  -16.2804  -44.1414 H         1 UNK         0.0600 
    153 H153       -1.4589  -17.2684  -43.4429 H         1 UNK         0.0600 
    154 H154       -0.7096  -16.6214  -45.7439 H         1 UNK         0.3000 
    155 H155        0.2474  -17.2739  -49.1250 H         1 UNK         0.0600 
    156 H156       -0.7271  -14.7338  -47.7042 H         1 UNK         0.0600 
    157 H157       -1.5045  -15.4362  -49.1181 H         1 UNK         0.0600 
    158 H158        0.1306  -14.8272  -49.2424 H         1 UNK         0.0600 
    159 H159        1.4945  -15.6659  -47.1802 H         1 UNK         0.3000 
    160 H160        3.3233  -18.1964  -45.4338 H         1 UNK         0.0600 
    161 H161        4.2204  -16.0142  -47.3814 H         1 UNK         0.0600 
    162 H162        4.6436  -17.7152  -47.4932 H         1 UNK         0.0600 
    163 H163        5.2107  -16.7586  -46.1307 H         1 UNK         0.0600 
    164 H164        3.2000  -15.3304  -45.2155 H         1 UNK         0.3000 
    165 H165        2.4784  -14.5106  -43.2302 H         1 UNK         0.0600 
    166 H166        0.3127  -13.2954  -43.4018 H         1 UNK         0.0600 
    167 H167        0.7565  -13.9536  -44.9670 H         1 UNK         0.0600 
    168 H168       -0.4834  -14.7472  -44.0037 H         1 UNK         0.0600 
    169 H169        0.2479  -15.0087  -41.6249 H         1 UNK         0.3000 
    170 H170        0.1643  -16.3642  -39.7125 H         1 UNK         0.0600 
    171 H171        1.7166  -18.2692  -39.2231 H         1 UNK         0.0600 
    172 H172        2.9206  -17.1488  -38.5938 H         1 UNK         0.0600 
    173 H173        1.3761  -17.3420  -37.7691 H         1 UNK         0.0600 
    174 H174        2.4227  -14.5243  -39.1094 H         1 UNK         0.3000 
    175 H175        0.1946  -11.9742  -38.2305 H         1 UNK         0.0600 
    176 H176        2.4185  -13.1891  -36.5006 H         1 UNK         0.0600 
    177 H177        1.8178  -11.5330  -36.4040 H         1 UNK         0.0600 
    178 H178        0.7703  -12.8745  -35.9714 H         1 UNK         0.0600 
    179 H179        3.0270  -12.0463  -38.6135 H         1 UNK         0.3000 
    180 H180        3.6477  -10.7418  -40.7820 H         1 UNK         0.0600 
    181 H181        3.8539  -13.7594  -41.4072 H         1 UNK         0.0600 
    182 H182        4.5757  -12.9639  -40.0156 H         1 UNK         0.0600 
    183 H183        5.1555  -12.5969  -41.6228 H         1 UNK         0.0600 
    184 H184        1.8235  -11.6817  -42.6822 H         1 UNK         0.3000 
    185 H185        1.9304  -11.5255  -44.8977 H         1 UNK         0.0600 
    186 H186        1.7365   -9.0983  -44.3490 H         1 UNK         0.0600 
    187 H187        3.2511   -8.7712  -45.1823 H         1 UNK         0.0600 
    188 H188        1.8478   -9.3444  -46.0847 H         1 UNK         0.0600 
    189 H189        4.1494  -10.6047  -46.5294 H         1 UNK         0.3000 
    190 H190       -1.9582  -20.2796  -48.2554 H         1 UNK         0.3000 
    191 H191       -3.8711  -21.6055  -49.8544 H         1 UNK         0.0600 
    192 H192       -4.2504  -19.7149  -47.4754 H         1 UNK         0.0600 
    193 H193       -5.5132  -20.1743  -48.6113 H         1 UNK         0.0600 
    194 H194       -4.1270  -19.2580  -49.1748 H         1 UNK         0.0600 
    195 H195       -3.2282  -21.8995  -46.3117 H         1 UNK         0.3000 
    196 H196       -5.2888  -23.7455  -45.7355 H         1 UNK         0.0600 
    197 H197       -3.9308  -24.2366  -43.6920 H         1 UNK         0.0600 
    198 H198       -4.0711  -22.5093  -43.9810 H         1 UNK         0.0600 
    199 H199       -2.5731  -23.3491  -44.3736 H         1 UNK         0.0600 
    200 H200       -1.9020  -24.3257  -46.7728 H         1 UNK         0.3000 
    201 H201       -2.0319  -27.1814  -46.7533 H         1 UNK         0.0600 
    202 H202        0.1052  -25.9227  -46.7253 H         1 UNK         0.0600 
    203 H203       -0.2185  -25.2813  -48.3336 H         1 UNK         0.0600 
    204 H204        0.0546  -27.0049  -48.1095 H         1 UNK         0.0600 
    205 H205       -2.7374  -24.7582  -49.2744 H         1 UNK         0.3000 
    206 H206       -3.3514  -26.7537  -51.3193 H         1 UNK         0.0600 
    207 H207       -2.1012  -24.6406  -51.8256 H         1 UNK         0.0600 
    208 H208       -3.5774  -24.7905  -52.7592 H         1 UNK         0.0600 
    209 H209       -3.5284  -23.7023  -51.3805 H         1 UNK         0.0600 
    210 H210       -5.0834  -26.6103  -48.8751 H         1 UNK         0.3000 
    211 H211       -7.2115  -26.8385  -48.2625 H         1 UNK         0.0600 
    212 H212       -7.5726  -27.7221  -51.1714 H         1 UNK         0.0600 
    213 H213       -8.6468  -28.1218  -49.8379 H         1 UNK         0.0600 
    214 H214       -7.0008  -28.7343  -49.8487 H         1 UNK         0.0600 
    215 H215       -6.7114  -24.2747  -48.5636 H         1 UNK         0.3000 
    216 H216       -7.6419  -22.3166  -48.3595 H         1 UNK         0.0600 
    217 H217      -10.0038  -21.7838  -48.7238 H         1 UNK         0.0600 
    218 H218       -9.8703  -23.2567  -47.7755 H         1 UNK         0.0600 
    219 H219      -10.3014  -23.3363  -49.4832 H         1 UNK         0.0600 
    220 H220       -8.8001  -23.7700  -51.4534 H         1 UNK         0.3000 
    221 H221       -7.1775  -21.9491  -53.0341 H         1 UNK         0.0600 
    222 H222      -10.2186  -21.5464  -53.0392 H         1 UNK         0.0600 
    223 H223       -9.0361  -20.3941  -52.4213 H         1 UNK         0.0600 
    224 H224       -9.0797  -20.7631  -54.1308 H         1 UNK         0.0600 
    225 H225       -7.3169  -24.8191  -52.8150 H         1 UNK         0.3000 
    226 H226       -8.5164  -25.7230  -55.3550 H         1 UNK         0.0600 
    227 H227       -8.4000  -27.2591  -53.3791 H         1 UNK         0.0600 
    228 H228       -7.5464  -27.8868  -54.7799 H         1 UNK         0.0600 
    229 H229       -6.6358  -27.1992  -53.4476 H         1 UNK         0.0600 
    230 H230       -5.5629  -24.2856  -54.1837 H         1 UNK         0.3000 
    231 H231       -4.5617  -23.9184  -56.8393 H         1 UNK         0.0600 
    232 H232       -2.2906  -24.8962  -56.3837 H         1 UNK         0.0600 
    233 H233       -3.5123  -26.1528  -56.3456 H         1 UNK         0.0600 
    234 H234       -2.8497  -25.5251  -54.8407 H         1 UNK         0.0600 
    235 H235       -2.5427  -22.5259  -56.6662 H         1 UNK         0.3000 
    236 H236       -1.6000  -20.5953  -56.1389 H         1 UNK         0.0600 
    237 H237       -0.5480  -22.0598  -54.4014 H         1 UNK         0.0600 
    238 H238       -0.6493  -20.3979  -53.8627 H         1 UNK         0.0600 
    239 H239       -1.7840  -21.5985  -53.2398 H         1 UNK         0.0600 
    240 H240       -2.3341  -19.4484  -53.2342 H         1 UNK         0.3000 
    241 H241       -4.6487  -17.8233  -54.1059 H         1 UNK         0.0600 
    242 H242       -4.6257  -20.7586  -52.7404 H         1 UNK         0.3800 
    243 H243       -5.8553  -20.4853  -51.5179 H         1 UNK         0.3800 
    244 H244       -3.9606  -16.2788  -52.2173 H         1 UNK         0.0800 
    245 H245       -2.9002  -16.3629  -53.5787 H         1 UNK         0.0800 
    246 H246       -0.5116  -17.4421  -53.6064 H         1 UNK         0.0800 
    247 H247       -0.5655  -15.8159  -52.9659 H         1 UNK         0.0800 
@<TRIPOS>BOND
     1    1    2 1    
     2    1  127 1    
     3    1  128 1    
     4    1  129 1    
     5    2    3 2    
     6    2    4 am   BACKBONE|DICT|INTERRES
     7    4    5 1    
     8    4  130 1    
     9    5    6 1    
    10    5   65 1    
    11    5  131 1    
    12    6    7 1    
    13    6  132 1    
    14    6  133 1    
    15    7    8 1    
    16    8    9 1    
    17    8  134 1    
    18    8  135 1    
    19    9   10 ar   
    20    9   14 ar   
    21   10   11 ar   
    22   10  136 1    
    23   11   12 ar   
    24   11  126 1    
    25   12   13 ar   
    26   12  137 1    
    27   13   14 ar   
    28   13   15 1    
    29   14  138 1    
    30   15   16 1    
    31   15  139 1    
    32   15  140 1    
    33   16   17 1    
    34   17   18 1    
    35   17  141 1    
    36   17  142 1    
    37   18   19 1    
    38   18   67 1    
    39   18  143 1    
    40   19   20 am   BACKBONE|DICT|INTERRES
    41   19  144 1    
    42   20   21 2    
    43   20   22 1    
    44   22   23 1    
    45   22   24 1    
    46   22  145 1    
    47   23  146 1    
    48   23  147 1    
    49   23  148 1    
    50   24   25 am   BACKBONE|DICT|INTERRES
    51   24  149 1    
    52   25   26 2    
    53   25   27 1    
    54   27   28 1    
    55   27   29 1    
    56   27  150 1    
    57   28  151 1    
    58   28  152 1    
    59   28  153 1    
    60   29   30 am   BACKBONE|DICT|INTERRES
    61   29  154 1    
    62   30   31 2    
    63   30   32 1    
    64   32   33 1    
    65   32   34 1    
    66   32  155 1    
    67   33  156 1    
    68   33  157 1    
    69   33  158 1    
    70   34   35 am   BACKBONE|DICT|INTERRES
    71   34  159 1    
    72   35   36 2    
    73   35   37 1    
    74   37   38 1    
    75   37   39 1    
    76   37  160 1    
    77   38  161 1    
    78   38  162 1    
    79   38  163 1    
    80   39   40 am   BACKBONE|DICT|INTERRES
    81   39  164 1    
    82   40   41 2    
    83   40   42 1    
    84   42   43 1    
    85   42   44 1    
    86   42  165 1    
    87   43  166 1    
    88   43  167 1    
    89   43  168 1    
    90   44   45 am   BACKBONE|DICT|INTERRES
    91   44  169 1    
    92   45   46 2    
    93   45   47 1    
    94   47   48 1    
    95   47   49 1    
    96   47  170 1    
    97   48  171 1    
    98   48  172 1    
    99   48  173 1    
   100   49   50 am   BACKBONE|DICT|INTERRES
   101   49  174 1    
   102   50   51 2    
   103   50   52 1    
   104   52   53 1    
   105   52   54 1    
   106   52  175 1    
   107   53  176 1    
   108   53  177 1    
   109   53  178 1    
   110   54   55 am   BACKBONE|DICT|INTERRES
   111   54  179 1    
   112   55   56 2    
   113   55   57 1    
   114   57   58 1    
   115   57   59 1    
   116   57  180 1    
   117   58  181 1    
   118   58  182 1    
   119   58  183 1    
   120   59   60 am   BACKBONE|DICT|INTERRES
   121   59  184 1    
   122   60   61 2    
   123   60   62 1    
   124   62   63 1    
   125   62   64 1    
   126   62  185 1    
   127   63  186 1    
   128   63  187 1    
   129   63  188 1    
   130   64   65 am   BACKBONE|DICT|INTERRES
   131   64  189 1    
   132   65   66 2    
   133   67   68 2    
   134   67   69 am   BACKBONE|DICT|INTERRES
   135   69   70 1    
   136   69  190 1    
   137   70   71 1    
   138   70   72 1    
   139   70  191 1    
   140   71  192 1    
   141   71  193 1    
   142   71  194 1    
   143   72   73 2    
   144   72   74 am   BACKBONE|DICT|INTERRES
   145   74   75 1    
   146   74  195 1    
   147   75   76 1    
   148   75   77 1    
   149   75  196 1    
   150   76  197 1    
   151   76  198 1    
   152   76  199 1    
   153   77   78 2    
   154   77   79 am   BACKBONE|DICT|INTERRES
   155   79   80 1    
   156   79  200 1    
   157   80   81 1    
   158   80   82 1    
   159   80  201 1    
   160   81  202 1    
   161   81  203 1    
   162   81  204 1    
   163   82   83 2    
   164   82   84 am   BACKBONE|DICT|INTERRES
   165   84   85 1    
   166   84  205 1    
   167   85   86 1    
   168   85   87 1    
   169   85  206 1    
   170   86  207 1    
   171   86  208 1    
   172   86  209 1    
   173   87   88 2    
   174   87   89 am   BACKBONE|DICT|INTERRES
   175   89   90 1    
   176   89  210 1    
   177   90   91 1    
   178   90   92 1    
   179   90  211 1    
   180   91  212 1    
   181   91  213 1    
   182   91  214 1    
   183   92   93 2    
   184   92   94 am   BACKBONE|DICT|INTERRES
   185   94   95 1    
   186   94  215 1    
   187   95   96 1    
   188   95   97 1    
   189   95  216 1    
   190   96  217 1    
   191   96  218 1    
   192   96  219 1    
   193   97   98 2    
   194   97   99 am   BACKBONE|DICT|INTERRES
   195   99  100 1    
   196   99  220 1    
   197  100  101 1    
   198  100  102 1    
   199  100  221 1    
   200  101  222 1    
   201  101  223 1    
   202  101  224 1    
   203  102  103 2    
   204  102  104 am   BACKBONE|DICT|INTERRES
   205  104  105 1    
   206  104  225 1    
   207  105  106 1    
   208  105  107 1    
   209  105  226 1    
   210  106  227 1    
   211  106  228 1    
   212  106  229 1    
   213  107  108 2    
   214  107  109 am   BACKBONE|DICT|INTERRES
   215  109  110 1    
   216  109  230 1    
   217  110  111 1    
   218  110  112 1    
   219  110  231 1    
   220  111  232 1    
   221  111  233 1    
   222  111  234 1    
   223  112  113 2    
   224  112  114 am   BACKBONE|DICT|INTERRES
   225  114  115 1    
   226  114  235 1    
   227  115  116 1    
   228  115  117 1    
   229  115  236 1    
   230  116  237 1    
   231  116  238 1    
   232  116  239 1    
   233  117  118 2    
   234  117  119 am   BACKBONE|DICT|INTERRES
   235  119  120 1    
   236  119  240 1    
   237  120  121 1    
   238  120  124 1    
   239  120  241 1    
   240  121  122 am   BACKBONE|DICT|INTERRES
   241  121  123 2    
   242  122  242 1    
   243  122  243 1    
   244  124  125 1    
   245  124  244 1    
   246  124  245 1    
   247  125  126 1    
   248  126  246 1    
   249  126  247 1    
@<TRIPOS>SUBSTRUCTURE
     1 UNK         1 GROUP             0       ****    0 ROOT    
