@<TRIPOS>MOLECULE
3R540
247   249    1
SMALL
USER_CHARGES


@<TRIPOS>ATOM
      1 CA          3.5856  -13.6681  -44.5843 C.3       0 UNK        -0.1800 
      2 C           2.6110  -14.3964  -45.4966 C.2       0 UNK         0.5000 
      3 O           1.4839  -13.9430  -45.6842 O.2       0 UNK        -0.5000 
      4 N           3.0245  -15.5359  -46.0612 N.am      1 UNK        -0.5000 
      5 CA          2.2189  -16.3326  -46.9936 C.3       1 UNK         0.1400 
      6 C6          2.7574  -17.7738  -47.1459 C.3       23 UNK        -0.0398 
      7 S7          4.5333  -17.9044  -47.5876 S.3       23 UNK        -0.2404 
      8 C8          4.5297  -18.1319  -49.4003 C.3       23 UNK        -0.0205 
      9 C9          3.5563  -19.2092  -49.8488 C.ar      23 UNK        -0.0193 
     10 C10         2.3721  -18.8483  -50.4956 C.ar      23 UNK        -0.1150 
     11 C11         1.4199  -19.8156  -50.8218 C.ar      23 UNK        -0.0193 
     12 C12         1.6769  -21.1562  -50.5299 C.ar      23 UNK        -0.1150 
     13 C13         2.8586  -21.5342  -49.8868 C.ar      23 UNK        -0.0193 
     14 C14         3.8054  -20.5551  -49.5652 C.ar      23 UNK        -0.1150 
     15 C15         3.0765  -23.0028  -49.5405 C.3       23 UNK        -0.0205 
     16 S16         3.7579  -23.2908  -47.8727 S.3       23 UNK        -0.2404 
     17 C17         2.4626  -22.5771  -46.8038 C.3       23 UNK        -0.0398 
     18 CA          1.8337  -23.6102  -45.8279 C.3       11 UNK         0.1400 
     19 N           1.5227  -22.9729  -44.5470 N.am      11 UNK        -0.5000 
     20 C           2.1505  -23.1798  -43.3823 C.2       10 UNK         0.5000 
     21 O           3.0653  -23.9907  -43.2367 O.2       10 UNK        -0.5000 
     22 CA          1.6915  -22.3383  -42.1708 C.3       10 UNK         0.1400 
     23 CB          2.7727  -21.3157  -41.7870 C.3       10 UNK        -0.1800 
     24 N           0.4323  -21.6265  -42.4050 N.am      10 UNK        -0.5000 
     25 C          -0.7783  -22.2050  -42.4077 C.2       9 UNK         0.5000 
     26 O          -0.9603  -23.3899  -42.1306 O.2       9 UNK        -0.5000 
     27 CA         -1.9798  -21.3369  -42.8408 C.3       9 UNK         0.1400 
     28 CB         -2.7267  -20.7993  -41.6117 C.3       9 UNK        -0.1800 
     29 N          -1.6144  -20.2117  -43.7050 N.am      9 UNK        -0.5000 
     30 C          -1.0288  -20.3163  -44.9064 C.2       8 UNK         0.5000 
     31 O          -0.7916  -21.3916  -45.4539 O.2       8 UNK        -0.5000 
     32 CA         -0.5735  -19.0132  -45.5866 C.3       8 UNK         0.1400 
     33 CB         -1.5267  -18.6430  -46.7231 C.3       8 UNK        -0.1800 
     34 N          -0.4271  -17.8724  -44.6728 N.am      8 UNK        -0.5000 
     35 C           0.4911  -17.8032  -43.6960 C.2       7 UNK         0.5000 
     36 O           1.2908  -18.7117  -43.4696 O.2       7 UNK        -0.5000 
     37 CA          0.5086  -16.5380  -42.8184 C.3       7 UNK         0.1400 
     38 CB          1.9295  -16.1771  -42.3507 C.3       7 UNK        -0.1800 
     39 N          -0.0950  -15.3920  -43.5054 N.am      7 UNK        -0.5000 
     40 C          -1.1156  -14.6677  -43.0292 C.2       6 UNK         0.5000 
     41 O          -1.6358  -14.8551  -41.9284 O.2       6 UNK        -0.5000 
     42 CA         -1.6746  -13.5585  -43.9426 C.3       6 UNK         0.1400 
     43 CB         -0.9495  -12.2308  -43.6767 C.3       6 UNK        -0.1800 
     44 N          -1.6335  -13.8603  -45.3786 N.am      6 UNK        -0.5000 
     45 C          -2.2278  -14.9104  -45.9667 C.2       5 UNK         0.5000 
     46 O          -2.8003  -15.7986  -45.3337 O.2       5 UNK        -0.5000 
     47 CA         -2.1459  -15.0195  -47.5047 C.3       5 UNK         0.1400 
     48 CB         -3.3893  -15.7026  -48.1167 C.3       5 UNK        -0.1800 
     49 N          -1.8503  -13.7568  -48.1871 N.am      5 UNK        -0.5000 
     50 C          -2.6389  -12.6752  -48.2772 C.2       4 UNK         0.5000 
     51 O          -3.7529  -12.5893  -47.7577 O.2       4 UNK        -0.5000 
     52 CA         -2.0697  -11.4918  -49.0918 C.3       4 UNK         0.1400 
     53 CB         -2.7792  -10.1562  -48.7846 C.3       4 UNK        -0.1800 
     54 N          -0.6139  -11.3407  -48.9646 N.am      4 UNK        -0.5000 
     55 C           0.0776  -11.1368  -47.8347 C.2       3 UNK         0.5000 
     56 O          -0.4361  -11.0976  -46.7166 O.2       3 UNK        -0.5000 
     57 CA          1.6019  -10.9924  -47.9953 C.3       3 UNK         0.1400 
     58 CB          2.2951  -10.5532  -46.6928 C.3       3 UNK        -0.1800 
     59 N           2.1994  -12.2471  -48.4497 N.am      3 UNK        -0.5000 
     60 C           2.2519  -12.6747  -49.7188 C.2       2 UNK         0.5000 
     61 O           1.7585  -12.0544  -50.6614 O.2       2 UNK        -0.5000 
     62 CA          2.9652  -14.0162  -49.9815 C.3       2 UNK         0.1400 
     63 CB          4.3937  -13.7736  -50.4912 C.3       2 UNK        -0.1800 
     64 N           3.0278  -14.8605  -48.7878 N.am      2 UNK        -0.5000 
     65 C           2.0174  -15.6242  -48.3509 C.2       1 UNK         0.5000 
     66 O           0.9481  -15.7389  -48.9485 O.2       1 UNK        -0.5000 
     67 C           0.5703  -24.2897  -46.4064 C.2       11 UNK         0.5000 
     68 O           0.5042  -24.5308  -47.6127 O.2       11 UNK        -0.5000 
     69 N          -0.4219  -24.5713  -45.5434 N.am      12 UNK        -0.5000 
     70 CA         -1.7987  -24.9614  -45.8717 C.3       12 UNK         0.1400 
     71 CB         -2.5614  -25.2707  -44.5753 C.3       12 UNK        -0.1800 
     72 C          -1.9578  -26.1270  -46.8630 C.2       12 UNK         0.5000 
     73 O          -2.9099  -26.1183  -47.6437 O.2       12 UNK        -0.5000 
     74 N          -1.0249  -27.0866  -46.8315 N.am      13 UNK        -0.5000 
     75 CA         -0.9953  -28.2495  -47.7202 C.3       13 UNK         0.1400 
     76 CB          0.0760  -29.2313  -47.2219 C.3       13 UNK        -0.1800 
     77 C          -0.7523  -27.8952  -49.2012 C.2       13 UNK         0.5000 
     78 O          -1.2370  -28.6145  -50.0755 O.2       13 UNK        -0.5000 
     79 N          -0.0187  -26.8032  -49.4545 N.am      14 UNK        -0.5000 
     80 CA          0.2984  -26.3017  -50.7933 C.3       14 UNK         0.1400 
     81 CB          1.8221  -26.1533  -50.9271 C.3       14 UNK        -0.1800 
     82 C          -0.4418  -24.9882  -51.1090 C.2       14 UNK         0.5000 
     83 O          -0.7068  -24.7170  -52.2800 O.2       14 UNK        -0.5000 
     84 N          -0.8122  -24.2189  -50.0745 N.am      15 UNK        -0.5000 
     85 CA         -1.6526  -23.0206  -50.1734 C.3       15 UNK         0.1400 
     86 CB         -1.4312  -22.1450  -48.9289 C.3       15 UNK        -0.1800 
     87 C          -3.1537  -23.3323  -50.3441 C.2       15 UNK         0.5000 
     88 O          -3.9422  -22.3962  -50.4832 O.2       15 UNK        -0.5000 
     89 N          -3.5247  -24.6213  -50.2904 N.am      16 UNK        -0.5000 
     90 CA         -4.8794  -25.1715  -50.4051 C.3       16 UNK         0.1400 
     91 CB         -5.4213  -24.9857  -51.8370 C.3       16 UNK        -0.1800 
     92 C          -5.8179  -24.6238  -49.3120 C.2       16 UNK         0.5000 
     93 O          -6.9074  -24.1316  -49.6087 O.2       16 UNK        -0.5000 
     94 N          -5.3361  -24.6981  -48.0625 N.am      17 UNK        -0.5000 
     95 CA         -5.9477  -24.1649  -46.8408 C.3       17 UNK         0.1400 
     96 CB         -7.2512  -24.9180  -46.5023 C.3       17 UNK        -0.1800 
     97 C          -6.1181  -22.6306  -46.8806 C.2       17 UNK         0.5000 
     98 O          -7.1323  -22.1105  -46.4128 O.2       17 UNK        -0.5000 
     99 N          -5.1058  -21.9468  -47.4383 N.am      18 UNK        -0.5000 
    100 CA        -5.0222  -20.4992  -47.6594 C.3       18 UNK         0.1400 
    101 CB        -4.9977  -19.7340  -46.3187 C.3       18 UNK        -0.1800 
    102 C         -6.1146  -20.0052  -48.6292 C.2       18 UNK         0.5000 
    103 O         -6.9280  -19.1489  -48.2749 O.2       18 UNK        -0.5000 
    104 N         -6.1213  -20.5845  -49.8368 N.am      19 UNK        -0.5000 
    105 CA        -7.0299  -20.2374  -50.9296 C.3       19 UNK         0.1400 
    106 CB        -6.8781  -21.2826  -52.0452 C.3       19 UNK        -0.1800 
    107 C         -6.7790  -18.8223  -51.4850 C.2       19 UNK         0.5000 
    108 O         -5.6909  -18.2698  -51.3131 O.2       19 UNK        -0.5000 
    109 N         -7.7784  -18.2805  -52.1944 N.am      20 UNK        -0.5000 
    110 CA        -7.7803  -16.9331  -52.7802 C.3       20 UNK         0.1400 
    111 CB        -9.1676  -16.6599  -53.3824 C.3       20 UNK        -0.1800 
    112 C         -6.6771  -16.6695  -53.8286 C.2       20 UNK         0.5000 
    113 O         -6.3704  -15.5086  -54.1009 O.2       20 UNK        -0.5000 
    114 N         -6.0968  -17.7389  -54.3900 N.am      21 UNK        -0.5000 
    115 CA        -4.9375  -17.6903  -55.2826 C.3       21 UNK         0.1400 
    116 CB        -4.8365  -19.0303  -56.0285 C.3       21 UNK        -0.1800 
    117 C         -3.6136  -17.3812  -54.5497 C.2       21 UNK         0.5000 
    118 O         -2.6539  -16.9614  -55.1982 O.2       21 UNK        -0.5000 
    119 N         -3.5734  -17.6099  -53.2305 N.am      22 UNK        -0.5000 
    120 CA        -2.4375  -17.3162  -52.3475 C.3       22 UNK         0.1400 
    121 C         -2.3235  -15.8032  -51.9833 C.2       22 UNK         0.5000 
    122 N         -1.2713  -15.3981  -51.2856 N.am      22 UNK        -0.7600 
    123 O         -3.1694  -14.9805  -52.3270 O.2       22 UNK        -0.5000 
    124 C124       -2.4797  -18.2585  -51.1134 C.3       23 UNK        -0.0398 
    125 S125       -0.8928  -18.4593  -50.2435 S.3       23 UNK        -0.2404 
    126 C126        0.0983  -19.4003  -51.4443 C.3       23 UNK        -0.0205 
    127 H127        3.0910  -13.3924  -43.6529 H         1 UNK         0.0600 
    128 H128        3.9430  -12.7578  -45.0648 H         1 UNK         0.0600 
    129 H129        4.4483  -14.2880  -44.3396 H         1 UNK         0.0600 
    130 H130        3.9556  -15.8846  -45.8781 H         1 UNK         0.3000 
    131 H131        1.2209  -16.4207  -46.5591 H         1 UNK         0.0600 
    132 H132        2.6496  -18.2808  -46.1861 H         1 UNK         0.0800 
    133 H133        2.1301  -18.3467  -47.8278 H         1 UNK         0.0800 
    134 H134        4.2995  -17.1807  -49.8816 H         1 UNK         0.0800 
    135 H135        5.5363  -18.3987  -49.7247 H         1 UNK         0.0800 
    136 H136        2.1637  -17.8074  -50.7011 H         1 UNK         0.1150 
    137 H137        0.9454  -21.9079  -50.7853 H         1 UNK         0.1150 
    138 H138        4.7188  -20.8319  -49.0580 H         1 UNK         0.1150 
    139 H139        2.1277  -23.5341  -49.6062 H         1 UNK         0.0800 
    140 H140        3.7421  -23.4468  -50.2813 H         1 UNK         0.0800 
    141 H141        1.7001  -22.0693  -47.3970 H         1 UNK         0.0800 
    142 H142        2.9555  -21.7816  -46.2426 H         1 UNK         0.0800 
    143 H143        2.5485  -24.4178  -45.6592 H         1 UNK         0.0600 
    144 H144        0.7578  -22.3067  -44.5840 H         1 UNK         0.3000 
    145 H145        1.5550  -23.0207  -41.3293 H         1 UNK         0.0600 
    146 H146        2.4681  -20.7212  -40.9255 H         1 UNK         0.0600 
    147 H147        3.7063  -21.8142  -41.5235 H         1 UNK         0.0600 
    148 H148        2.9885  -20.6313  -42.6081 H         1 UNK         0.0600 
    149 H149        0.5133  -20.6499  -42.6620 H         1 UNK         0.3000 
    150 H150       -2.6613  -21.9773  -43.4040 H         1 UNK         0.0600 
    151 H151       -3.0403  -21.6141  -40.9576 H         1 UNK         0.0600 
    152 H152       -3.6252  -20.2546  -41.9027 H         1 UNK         0.0600 
    153 H153       -2.1010  -20.1274  -41.0228 H         1 UNK         0.0600 
    154 H154       -1.7764  -19.2873  -43.3346 H         1 UNK         0.3000 
    155 H155        0.4027  -19.2224  -46.0269 H         1 UNK         0.0600 
    156 H156       -1.7164  -19.4949  -47.3757 H         1 UNK         0.0600 
    157 H157       -2.4857  -18.2988  -46.3405 H         1 UNK         0.0600 
    158 H158       -1.0992  -17.8572  -47.3415 H         1 UNK         0.0600 
    159 H159       -1.1006  -17.1212  -44.7662 H         1 UNK         0.3000 
    160 H160       -0.0732  -16.7916  -41.9304 H         1 UNK         0.0600 
    161 H161        2.6251  -16.1037  -43.1849 H         1 UNK         0.0600 
    162 H162        2.3196  -16.9392  -41.6749 H         1 UNK         0.0600 
    163 H163        1.9432  -15.2297  -41.8117 H         1 UNK         0.0600 
    164 H164        0.2966  -15.1271  -44.4027 H         1 UNK         0.3000 
    165 H165       -2.7248  -13.4256  -43.6755 H         1 UNK         0.0600 
    166 H166       -1.4369  -11.4064  -44.1970 H         1 UNK         0.0600 
    167 H167       -0.9506  -11.9868  -42.6136 H         1 UNK         0.0600 
    168 H168        0.0898  -12.2668  -44.0056 H         1 UNK         0.0600 
    169 H169       -1.1515  -13.1846  -45.9592 H         1 UNK         0.3000 
    170 H170       -1.2912  -15.6600  -47.7087 H         1 UNK         0.0600 
    171 H171       -4.3104  -15.1871  -47.8446 H         1 UNK         0.0600 
    172 H172       -3.3322  -15.7285  -49.2034 H         1 UNK         0.0600 
    173 H173       -3.4864  -16.7328  -47.7770 H         1 UNK         0.0600 
    174 H174       -0.9369  -13.7087  -48.6155 H         1 UNK         0.3000 
    175 H175       -2.2609  -11.7307  -50.1389 H         1 UNK         0.0600 
    176 H176       -2.3691   -9.3444  -49.3853 H         1 UNK         0.0600 
    177 H177       -2.6822   -9.8788  -47.7344 H         1 UNK         0.0600 
    178 H178       -3.8446  -10.2172  -49.0095 H         1 UNK         0.0600 
    179 H179       -0.0812  -11.4066  -49.8255 H         1 UNK         0.3000 
    180 H180        1.7836  -10.2172  -48.7428 H         1 UNK         0.0600 
    181 H181        2.1255  -11.2635  -45.8834 H         1 UNK         0.0600 
    182 H182        1.9173   -9.5858  -46.3599 H         1 UNK         0.0600 
    183 H183        3.3714  -10.4512  -46.8315 H         1 UNK         0.0600 
    184 H184        2.5509  -12.8556  -47.7261 H         1 UNK         0.3000 
    185 H185        2.4098  -14.5405  -50.7624 H         1 UNK         0.0600 
    186 H186        5.0031  -13.2523  -49.7519 H         1 UNK         0.0600 
    187 H187        4.8905  -14.7131  -50.7341 H         1 UNK         0.0600 
    188 H188        4.3871  -13.1672  -51.3980 H         1 UNK         0.0600 
    189 H189        3.8773  -14.8232  -48.2434 H         1 UNK         0.3000 
    190 H190       -0.2540  -24.3579  -44.5706 H         1 UNK         0.3000 
    191 H191       -2.2717  -24.0926  -46.3305 H         1 UNK         0.0600 
    192 H192       -2.6709  -24.3785  -43.9608 H         1 UNK         0.0600 
    193 H193       -3.5666  -25.6406  -44.7816 H         1 UNK         0.0600 
    194 H194       -2.0509  -26.0287  -43.9802 H         1 UNK         0.0600 
    195 H195       -0.2731  -27.0021  -46.1635 H         1 UNK         0.3000 
    196 H196       -1.9671  -28.7436  -47.6571 H         1 UNK         0.0600 
    197 H197        0.1084  -30.1249  -47.8467 H         1 UNK         0.0600 
    198 H198       -0.1304  -29.5570  -46.2022 H         1 UNK         0.0600 
    199 H199        1.0705  -28.7834  -47.2377 H         1 UNK         0.0600 
    200 H200        0.3090  -26.2448  -48.6734 H         1 UNK         0.3000 
    201 H201       -0.0228  -27.0156  -51.5546 H         1 UNK         0.0600 
    202 H202        2.2902  -27.1285  -51.0613 H         1 UNK         0.0600 
    203 H203        2.2663  -25.7062  -50.0396 H         1 UNK         0.0600 
    204 H204        2.0951  -25.5423  -51.7886 H         1 UNK         0.0600 
    205 H205       -0.4835  -24.4588  -49.1426 H         1 UNK         0.3000 
    206 H206       -1.3451  -22.4504  -51.0513 H         1 UNK         0.0600 
    207 H207       -0.3756  -21.9382  -48.7606 H         1 UNK         0.0600 
    208 H208       -1.9312  -21.1833  -49.0419 H         1 UNK         0.0600 
    209 H209       -1.8205  -22.6139  -48.0267 H         1 UNK         0.0600 
    210 H210       -2.7995  -25.2979  -50.0994 H         1 UNK         0.3000 
    211 H211       -4.7953  -26.2439  -50.2229 H         1 UNK         0.0600 
    212 H212       -5.5027  -23.9340  -52.1081 H         1 UNK         0.0600 
    213 H213       -6.4109  -25.4312  -51.9439 H         1 UNK         0.0600 
    214 H214       -4.7691  -25.4659  -52.5664 H         1 UNK         0.0600 
    215 H215       -4.4379  -25.1626  -47.9388 H         1 UNK         0.3000 
    216 H216       -5.2399  -24.3647  -46.0359 H         1 UNK         0.0600 
    217 H217       -7.6314  -24.6204  -45.5244 H         1 UNK         0.0600 
    218 H218       -7.0868  -25.9950  -46.4709 H         1 UNK         0.0600 
    219 H219       -8.0368  -24.7192  -47.2317 H         1 UNK         0.0600 
    220 H220       -4.3572  -22.4876  -47.8438 H         1 UNK         0.3000 
    221 H221       -4.0684  -20.3147  -48.1555 H         1 UNK         0.0600 
    222 H222       -5.9296  -19.8457  -45.7645 H         1 UNK         0.0600 
    223 H223       -4.1861  -20.0828  -45.6803 H         1 UNK         0.0600 
    224 H224       -4.8499  -18.6663  -46.4844 H         1 UNK         0.0600 
    225 H225       -5.4020  -21.2701  -50.0546 H         1 UNK         0.3000 
    226 H226       -8.0514  -20.2784  -50.5464 H         1 UNK         0.0600 
    227 H227       -7.1434  -22.2755  -51.6832 H         1 UNK         0.0600 
    228 H228       -7.5328  -21.0650  -52.8898 H         1 UNK         0.0600 
    229 H229       -5.8550  -21.3233  -52.4216 H         1 UNK         0.0600 
    230 H230       -8.6301  -18.8108  -52.3108 H         1 UNK         0.3000 
    231 H231       -7.6173  -16.2246  -51.9654 H         1 UNK         0.0600 
    232 H232       -9.4013  -17.3601  -54.1854 H         1 UNK         0.0600 
    233 H233       -9.2235  -15.6531  -53.7986 H         1 UNK         0.0600 
    234 H234       -9.9496  -16.7397  -52.6271 H         1 UNK         0.0600 
    235 H235       -6.4226  -18.6541  -54.1178 H         1 UNK         0.3000 
    236 H236       -5.0987  -16.9002  -56.0190 H         1 UNK         0.0600 
    237 H237       -5.7400  -19.2307  -56.6046 H         1 UNK         0.0600 
    238 H238       -4.0005  -19.0257  -56.7292 H         1 UNK         0.0600 
    239 H239       -4.6837  -19.8630  -55.3406 H         1 UNK         0.0600 
    240 H240       -4.4253  -17.8901  -52.7549 H         1 UNK         0.3000 
    241 H241       -1.5391  -17.5485  -52.9194 H         1 UNK         0.0600 
    242 H242       -0.5984  -16.0536  -50.9118 H         1 UNK         0.3800 
    243 H243       -1.1807  -14.4196  -51.0767 H         1 UNK         0.3800 
    244 H244       -2.8071  -19.2564  -51.4104 H         1 UNK         0.0800 
    245 H245       -3.2218  -17.9111  -50.3934 H         1 UNK         0.0800 
    246 H246       -0.4651  -20.2709  -51.7819 H         1 UNK         0.0800 
    247 H247        0.2980  -18.7912  -52.3261 H         1 UNK         0.0800 
@<TRIPOS>BOND
     1    1    2 1    
     2    1  127 1    
     3    1  128 1    
     4    1  129 1    
     5    2    3 2    
     6    2    4 am   BACKBONE|DICT|INTERRES
     7    4    5 1    
     8    4  130 1    
     9    5    6 1    
    10    5   65 1    
    11    5  131 1    
    12    6    7 1    
    13    6  132 1    
    14    6  133 1    
    15    7    8 1    
    16    8    9 1    
    17    8  134 1    
    18    8  135 1    
    19    9   10 ar   
    20    9   14 ar   
    21   10   11 ar   
    22   10  136 1    
    23   11   12 ar   
    24   11  126 1    
    25   12   13 ar   
    26   12  137 1    
    27   13   14 ar   
    28   13   15 1    
    29   14  138 1    
    30   15   16 1    
    31   15  139 1    
    32   15  140 1    
    33   16   17 1    
    34   17   18 1    
    35   17  141 1    
    36   17  142 1    
    37   18   19 1    
    38   18   67 1    
    39   18  143 1    
    40   19   20 am   BACKBONE|DICT|INTERRES
    41   19  144 1    
    42   20   21 2    
    43   20   22 1    
    44   22   23 1    
    45   22   24 1    
    46   22  145 1    
    47   23  146 1    
    48   23  147 1    
    49   23  148 1    
    50   24   25 am   BACKBONE|DICT|INTERRES
    51   24  149 1    
    52   25   26 2    
    53   25   27 1    
    54   27   28 1    
    55   27   29 1    
    56   27  150 1    
    57   28  151 1    
    58   28  152 1    
    59   28  153 1    
    60   29   30 am   BACKBONE|DICT|INTERRES
    61   29  154 1    
    62   30   31 2    
    63   30   32 1    
    64   32   33 1    
    65   32   34 1    
    66   32  155 1    
    67   33  156 1    
    68   33  157 1    
    69   33  158 1    
    70   34   35 am   BACKBONE|DICT|INTERRES
    71   34  159 1    
    72   35   36 2    
    73   35   37 1    
    74   37   38 1    
    75   37   39 1    
    76   37  160 1    
    77   38  161 1    
    78   38  162 1    
    79   38  163 1    
    80   39   40 am   BACKBONE|DICT|INTERRES
    81   39  164 1    
    82   40   41 2    
    83   40   42 1    
    84   42   43 1    
    85   42   44 1    
    86   42  165 1    
    87   43  166 1    
    88   43  167 1    
    89   43  168 1    
    90   44   45 am   BACKBONE|DICT|INTERRES
    91   44  169 1    
    92   45   46 2    
    93   45   47 1    
    94   47   48 1    
    95   47   49 1    
    96   47  170 1    
    97   48  171 1    
    98   48  172 1    
    99   48  173 1    
   100   49   50 am   BACKBONE|DICT|INTERRES
   101   49  174 1    
   102   50   51 2    
   103   50   52 1    
   104   52   53 1    
   105   52   54 1    
   106   52  175 1    
   107   53  176 1    
   108   53  177 1    
   109   53  178 1    
   110   54   55 am   BACKBONE|DICT|INTERRES
   111   54  179 1    
   112   55   56 2    
   113   55   57 1    
   114   57   58 1    
   115   57   59 1    
   116   57  180 1    
   117   58  181 1    
   118   58  182 1    
   119   58  183 1    
   120   59   60 am   BACKBONE|DICT|INTERRES
   121   59  184 1    
   122   60   61 2    
   123   60   62 1    
   124   62   63 1    
   125   62   64 1    
   126   62  185 1    
   127   63  186 1    
   128   63  187 1    
   129   63  188 1    
   130   64   65 am   BACKBONE|DICT|INTERRES
   131   64  189 1    
   132   65   66 2    
   133   67   68 2    
   134   67   69 am   BACKBONE|DICT|INTERRES
   135   69   70 1    
   136   69  190 1    
   137   70   71 1    
   138   70   72 1    
   139   70  191 1    
   140   71  192 1    
   141   71  193 1    
   142   71  194 1    
   143   72   73 2    
   144   72   74 am   BACKBONE|DICT|INTERRES
   145   74   75 1    
   146   74  195 1    
   147   75   76 1    
   148   75   77 1    
   149   75  196 1    
   150   76  197 1    
   151   76  198 1    
   152   76  199 1    
   153   77   78 2    
   154   77   79 am   BACKBONE|DICT|INTERRES
   155   79   80 1    
   156   79  200 1    
   157   80   81 1    
   158   80   82 1    
   159   80  201 1    
   160   81  202 1    
   161   81  203 1    
   162   81  204 1    
   163   82   83 2    
   164   82   84 am   BACKBONE|DICT|INTERRES
   165   84   85 1    
   166   84  205 1    
   167   85   86 1    
   168   85   87 1    
   169   85  206 1    
   170   86  207 1    
   171   86  208 1    
   172   86  209 1    
   173   87   88 2    
   174   87   89 am   BACKBONE|DICT|INTERRES
   175   89   90 1    
   176   89  210 1    
   177   90   91 1    
   178   90   92 1    
   179   90  211 1    
   180   91  212 1    
   181   91  213 1    
   182   91  214 1    
   183   92   93 2    
   184   92   94 am   BACKBONE|DICT|INTERRES
   185   94   95 1    
   186   94  215 1    
   187   95   96 1    
   188   95   97 1    
   189   95  216 1    
   190   96  217 1    
   191   96  218 1    
   192   96  219 1    
   193   97   98 2    
   194   97   99 am   BACKBONE|DICT|INTERRES
   195   99  100 1    
   196   99  220 1    
   197  100  101 1    
   198  100  102 1    
   199  100  221 1    
   200  101  222 1    
   201  101  223 1    
   202  101  224 1    
   203  102  103 2    
   204  102  104 am   BACKBONE|DICT|INTERRES
   205  104  105 1    
   206  104  225 1    
   207  105  106 1    
   208  105  107 1    
   209  105  226 1    
   210  106  227 1    
   211  106  228 1    
   212  106  229 1    
   213  107  108 2    
   214  107  109 am   BACKBONE|DICT|INTERRES
   215  109  110 1    
   216  109  230 1    
   217  110  111 1    
   218  110  112 1    
   219  110  231 1    
   220  111  232 1    
   221  111  233 1    
   222  111  234 1    
   223  112  113 2    
   224  112  114 am   BACKBONE|DICT|INTERRES
   225  114  115 1    
   226  114  235 1    
   227  115  116 1    
   228  115  117 1    
   229  115  236 1    
   230  116  237 1    
   231  116  238 1    
   232  116  239 1    
   233  117  118 2    
   234  117  119 am   BACKBONE|DICT|INTERRES
   235  119  120 1    
   236  119  240 1    
   237  120  121 1    
   238  120  124 1    
   239  120  241 1    
   240  121  122 am   BACKBONE|DICT|INTERRES
   241  121  123 2    
   242  122  242 1    
   243  122  243 1    
   244  124  125 1    
   245  124  244 1    
   246  124  245 1    
   247  125  126 1    
   248  126  246 1    
   249  126  247 1    
@<TRIPOS>SUBSTRUCTURE
     1 UNK         1 GROUP             0       ****    0 ROOT    
