@<TRIPOS>MOLECULE
3R540
247   249    1
SMALL
USER_CHARGES


@<TRIPOS>ATOM
      1 CA          0.2136   -8.9650  -50.4701 C.3       0 UNK        -0.1800 
      2 C           0.7841   -9.9956  -49.5069 C.2       0 UNK         0.5000 
      3 O           1.6387   -9.6616  -48.6854 O.2       0 UNK        -0.5000 
      4 N           0.3018  -11.2449  -49.5855 N.am      1 UNK        -0.5000 
      5 CA          0.7602  -12.3784  -48.7651 C.3       1 UNK         0.1400 
      6 C6          0.2774  -13.7458  -49.3231 C.3       23 UNK        -0.0398 
      7 S7          1.6389  -14.9606  -49.3968 S.3       23 UNK        -0.2404 
      8 C8          1.1729  -15.9560  -50.8473 C.3       23 UNK        -0.0205 
      9 C9          0.2346  -17.0910  -50.4702 C.ar      23 UNK        -0.0193 
     10 C10        -1.1331  -16.8570  -50.3007 C.ar      23 UNK        -0.1150 
     11 C11        -2.0004  -17.9075  -49.9871 C.ar      23 UNK        -0.0193 
     12 C12        -1.4817  -19.1933  -49.8107 C.ar      23 UNK        -0.1150 
     13 C13        -0.1158  -19.4388  -49.9678 C.ar      23 UNK        -0.0193 
     14 C14         0.7362  -18.3844  -50.3046 C.ar      23 UNK        -0.1150 
     15 C15         0.4420  -20.8383  -49.7702 C.3       23 UNK        -0.0205 
     16 S16         1.3947  -20.9302  -48.2274 S.3       23 UNK        -0.2404 
     17 C17         1.6557  -22.7198  -48.0398 C.3       23 UNK        -0.0398 
     18 CA          0.7268  -23.4086  -47.0104 C.3       11 UNK         0.1400 
     19 N           0.7542  -22.8138  -45.6681 N.am      11 UNK        -0.5000 
     20 C           0.3527  -23.4792  -44.5740 C.2       10 UNK         0.5000 
     21 O          -0.0476  -24.6437  -44.5995 O.2       10 UNK        -0.5000 
     22 CA          0.3517  -22.7218  -43.2354 C.3       10 UNK         0.1400 
     23 CB          1.7736  -22.5852  -42.6707 C.3       10 UNK        -0.1800 
     24 N          -0.2906  -21.4109  -43.3237 N.am      10 UNK        -0.5000 
     25 C          -1.5893  -21.2275  -43.6038 C.2       9 UNK         0.5000 
     26 O          -2.3767  -22.1478  -43.8179 O.2       9 UNK        -0.5000 
     27 CA         -2.0965  -19.7771  -43.6805 C.3       9 UNK         0.1400 
     28 CB         -2.4271  -19.2465  -42.2778 C.3       9 UNK        -0.1800 
     29 N          -1.1502  -18.8781  -44.3377 N.am      9 UNK        -0.5000 
     30 C          -0.7720  -18.9806  -45.6199 C.2       8 UNK         0.5000 
     31 O          -1.2280  -19.8186  -46.3963 O.2       8 UNK        -0.5000 
     32 CA          0.3417  -18.0240  -46.0875 C.3       8 UNK         0.1400 
     33 CB         -0.2181  -16.6215  -46.3704 C.3       8 UNK        -0.1800 
     34 N           1.4388  -17.9326  -45.1205 N.am      8 UNK        -0.5000 
     35 C           2.1920  -18.9658  -44.7112 C.2       7 UNK         0.5000 
     36 O           2.0731  -20.1186  -45.1247 O.2       7 UNK        -0.5000 
     37 CA          3.2150  -18.6727  -43.6032 C.3       7 UNK         0.1400 
     38 CB          4.4884  -18.0332  -44.1778 C.3       7 UNK        -0.1800 
     39 N           2.6445  -17.8118  -42.5686 N.am      7 UNK        -0.5000 
     40 C           1.7469  -18.2227  -41.6618 C.2       6 UNK         0.5000 
     41 O           1.3414  -19.3819  -41.5788 O.2       6 UNK        -0.5000 
     42 CA          1.1826  -17.1523  -40.7088 C.3       6 UNK         0.1400 
     43 CB          2.1158  -16.9523  -39.5054 C.3       6 UNK        -0.1800 
     44 N           0.9580  -15.8644  -41.3672 N.am      6 UNK        -0.5000 
     45 C           0.0500  -15.6598  -42.3311 C.2       5 UNK         0.5000 
     46 O          -0.7116  -16.5309  -42.7469 O.2       5 UNK        -0.5000 
     47 CA          0.0052  -14.2573  -42.9637 C.3       5 UNK         0.1400 
     48 CB         -0.9222  -13.3453  -42.1462 C.3       5 UNK        -0.1800 
     49 N           1.3125  -13.6109  -43.1258 N.am      5 UNK        -0.5000 
     50 C           2.3751  -14.1368  -43.7565 C.2       4 UNK         0.5000 
     51 O           2.4112  -15.2908  -44.1868 O.2       4 UNK        -0.5000 
     52 CA          3.5760  -13.1966  -43.9564 C.3       4 UNK         0.1400 
     53 CB          4.6675  -13.7934  -44.8634 C.3       4 UNK        -0.1800 
     54 N           3.0940  -11.9479  -44.5364 N.am      4 UNK        -0.5000 
     55 C           3.4481  -10.7133  -44.1569 C.2       3 UNK         0.5000 
     56 O           4.2988  -10.4832  -43.2966 O.2       3 UNK        -0.5000 
     57 CA          2.7219   -9.5294  -44.8352 C.3       3 UNK         0.1400 
     58 CB          3.6123   -8.9062  -45.9207 C.3       3 UNK        -0.1800 
     59 N           1.4352   -9.8958  -45.4330 N.am      3 UNK        -0.5000 
     60 C           0.3632  -10.3207  -44.7465 C.2       2 UNK         0.5000 
     61 O           0.3060  -10.3193  -43.5169 O.2       2 UNK        -0.5000 
     62 CA         -0.8226  -10.8916  -45.5554 C.3       2 UNK         0.1400 
     63 CB         -1.9722   -9.8750  -45.6151 C.3       2 UNK        -0.1800 
     64 N          -0.4784  -11.2989  -46.9209 N.am      2 UNK        -0.5000 
     65 C           0.4290  -12.2271  -47.2623 C.2       1 UNK         0.5000 
     66 O           1.0356  -12.9080  -46.4375 O.2       1 UNK        -0.5000 
     67 C          -0.7099  -23.6101  -47.5350 C.2       11 UNK         0.5000 
     68 O          -0.9624  -24.6251  -48.1834 O.2       11 UNK        -0.5000 
     69 N          -1.6383  -22.6970  -47.2065 N.am      12 UNK        -0.5000 
     70 CA         -3.0647  -22.8438  -47.5112 C.3       12 UNK         0.1400 
     71 CB         -3.8183  -21.5468  -47.1844 C.3       12 UNK        -0.1800 
     72 C          -3.7139  -24.0415  -46.7938 C.2       12 UNK         0.5000 
     73 O          -4.5509  -24.7129  -47.3924 O.2       12 UNK        -0.5000 
     74 N          -3.3125  -24.2986  -45.5414 N.am      13 UNK        -0.5000 
     75 CA         -3.7559  -25.4490  -44.7538 C.3       13 UNK         0.1400 
     76 CB         -3.4299  -25.2113  -43.2714 C.3       13 UNK        -0.1800 
     77 C          -3.1448  -26.7778  -45.2365 C.2       13 UNK         0.5000 
     78 O          -3.8209  -27.8058  -45.1790 O.2       13 UNK        -0.5000 
     79 N          -1.8814  -26.7422  -45.6846 N.am      14 UNK        -0.5000 
     80 CA         -1.1637  -27.8975  -46.2263 C.3       14 UNK         0.1400 
     81 CB          0.3381  -27.5818  -46.2986 C.3       14 UNK        -0.1800 
     82 C          -1.6977  -28.3296  -47.6045 C.2       14 UNK         0.5000 
     83 O          -1.8744  -29.5255  -47.8434 O.2       14 UNK        -0.5000 
     84 N          -1.9460  -27.3488  -48.4803 N.am      15 UNK        -0.5000 
     85 CA         -2.5613  -27.5279  -49.7932 C.3       15 UNK         0.1400 
     86 CB         -2.1691  -26.3264  -50.6715 C.3       15 UNK        -0.1800 
     87 C          -4.0949  -27.6556  -49.6933 C.2       15 UNK         0.5000 
     88 O          -4.6733  -27.5295  -48.6122 O.2       15 UNK        -0.5000 
     89 N          -4.7495  -27.8536  -50.8440 N.am      16 UNK        -0.5000 
     90 CA         -6.2060  -27.8038  -50.9933 C.3       16 UNK         0.1400 
     91 CB         -6.6064  -28.6363  -52.2248 C.3       16 UNK        -0.1800 
     92 C          -6.6805  -26.3373  -51.0829 C.2       16 UNK         0.5000 
     93 O          -7.1223  -25.8954  -52.1438 O.2       16 UNK        -0.5000 
     94 N          -6.4962  -25.5917  -49.9826 N.am      17 UNK        -0.5000 
     95 CA         -6.7353  -24.1508  -49.7959 C.3       17 UNK         0.1400 
     96 CB         -8.1928  -23.7692  -50.1278 C.3       17 UNK        -0.1800 
     97 C          -5.7277  -23.2349  -50.5265 C.2       17 UNK         0.5000 
     98 O          -5.8145  -22.0154  -50.3785 O.2       17 UNK        -0.5000 
     99 N          -4.7967  -23.8256  -51.2915 N.am      18 UNK        -0.5000 
    100 CA        -3.8156  -23.2195  -52.1995 C.3       18 UNK         0.1400 
    101 CB        -2.8176  -22.3078  -51.4601 C.3       18 UNK        -0.1800 
    102 C         -4.4749  -22.5106  -53.3962 C.2       18 UNK         0.5000 
    103 O         -4.3010  -22.9577  -54.5304 O.2       18 UNK        -0.5000 
    104 N         -5.2324  -21.4431  -53.1126 N.am      19 UNK        -0.5000 
    105 CA        -6.0624  -20.6150  -53.9946 C.3       19 UNK         0.1400 
    106 CB        -7.2139  -21.4392  -54.6004 C.3       19 UNK        -0.1800 
    107 C         -5.2928  -19.8445  -55.0844 C.2       19 UNK         0.5000 
    108 O         -5.4145  -18.6227  -55.1582 O.2       19 UNK        -0.5000 
    109 N         -4.5140  -20.5579  -55.9054 N.am      20 UNK        -0.5000 
    110 CA        -3.7365  -20.0181  -57.0228 C.3       20 UNK         0.1400 
    111 CB        -3.2583  -21.1808  -57.9055 C.3       20 UNK        -0.1800 
    112 C         -2.5437  -19.1551  -56.5721 C.2       20 UNK         0.5000 
    113 O         -2.1528  -18.2356  -57.2921 O.2       20 UNK        -0.5000 
    114 N         -1.9945  -19.4610  -55.3890 N.am      21 UNK        -0.5000 
    115 CA        -0.9272  -18.6917  -54.7475 C.3       21 UNK         0.1400 
    116 CB        -0.2476  -19.5762  -53.6904 C.3       21 UNK        -0.1800 
    117 C         -1.4401  -17.3909  -54.0995 C.2       21 UNK         0.5000 
    118 O         -0.6583  -16.4570  -53.9160 O.2       21 UNK        -0.5000 
    119 N         -2.7302  -17.3661  -53.7464 N.am      22 UNK        -0.5000 
    120 CA        -3.3935  -16.2638  -53.0435 C.3       22 UNK         0.1400 
    121 C         -3.7179  -15.0551  -53.9655 C.2       22 UNK         0.5000 
    122 N         -3.9127  -13.8730  -53.3953 N.am      22 UNK        -0.7600 
    123 O         -3.8254  -15.1730  -55.1843 O.2       22 UNK        -0.5000 
    124 C124       -4.6545  -16.7416  -52.2745 C.3       23 UNK        -0.0398 
    125 S125       -4.4268  -18.2610  -51.2780 S.3       23 UNK        -0.2404 
    126 C126       -3.4948  -17.6665  -49.8280 C.3       23 UNK        -0.0205 
    127 H127       -0.5385   -9.3983  -51.1297 H         1 UNK         0.0600 
    128 H128        1.0096   -8.5497  -51.0882 H         1 UNK         0.0600 
    129 H129       -0.2492   -8.1491  -49.9150 H         1 UNK         0.0600 
    130 H130       -0.4099  -11.4533  -50.2716 H         1 UNK         0.3000 
    131 H131        1.8508  -12.3475  -48.8231 H         1 UNK         0.0600 
    132 H132       -0.5434  -14.1680  -48.7396 H         1 UNK         0.0800 
    133 H133       -0.1182  -13.6220  -50.3316 H         1 UNK         0.0800 
    134 H134        0.7189  -15.3327  -51.6188 H         1 UNK         0.0800 
    135 H135        2.0827  -16.3607  -51.2930 H         1 UNK         0.0800 
    136 H136       -1.5189  -15.8557  -50.4176 H         1 UNK         0.1150 
    137 H137       -2.1447  -20.0043  -49.5499 H         1 UNK         0.1150 
    138 H138        1.7935  -18.5727  -50.4269 H         1 UNK         0.1150 
    139 H139       -0.3668  -21.5689  -49.7440 H         1 UNK         0.0800 
    140 H140        1.0802  -21.1045  -50.6139 H         1 UNK         0.0800 
    141 H141        1.5845  -23.2077  -49.0137 H         1 UNK         0.0800 
    142 H142        2.6907  -22.8565  -47.7242 H         1 UNK         0.0800 
    143 H143        1.1332  -24.4163  -46.9007 H         1 UNK         0.0600 
    144 H144        1.0722  -21.8513  -45.5905 H         1 UNK         0.3000 
    145 H145       -0.2263  -23.3182  -42.5261 H         1 UNK         0.0600 
    146 H146        1.7626  -22.1249  -41.6828 H         1 UNK         0.0600 
    147 H147        2.2457  -23.5629  -42.5672 H         1 UNK         0.0600 
    148 H148        2.4126  -21.9816  -43.3142 H         1 UNK         0.0600 
    149 H149        0.2927  -20.6037  -43.1423 H         1 UNK         0.3000 
    150 H150       -3.0168  -19.7779  -44.2678 H         1 UNK         0.0600 
    151 H151       -3.1336  -19.9023  -41.7675 H         1 UNK         0.0600 
    152 H152       -2.8812  -18.2568  -42.3284 H         1 UNK         0.0600 
    153 H153       -1.5350  -19.1739  -41.6547 H         1 UNK         0.0600 
    154 H154       -0.7733  -18.1229  -43.7708 H         1 UNK         0.3000 
    155 H155        0.7547  -18.4096  -47.0199 H         1 UNK         0.0600 
    156 H156       -0.9513  -16.6548  -47.1772 H         1 UNK         0.0600 
    157 H157        0.5709  -15.9337  -46.6754 H         1 UNK         0.0600 
    158 H158       -0.7102  -16.1975  -45.4960 H         1 UNK         0.0600 
    159 H159        1.6369  -17.0128  -44.7377 H         1 UNK         0.3000 
    160 H160        3.4962  -19.6228  -43.1436 H         1 UNK         0.0600 
    161 H161        4.2779  -17.0949  -44.6908 H         1 UNK         0.0600 
    162 H162        4.9619  -18.6988  -44.9004 H         1 UNK         0.0600 
    163 H163        5.2182  -17.8316  -43.3936 H         1 UNK         0.0600 
    164 H164        2.8512  -16.8245  -42.6393 H         1 UNK         0.3000 
    165 H165        0.2211  -17.5140  -40.3379 H         1 UNK         0.0600 
    166 H166        1.6862  -16.2565  -38.7845 H         1 UNK         0.0600 
    167 H167        2.2864  -17.8950  -38.9836 H         1 UNK         0.0600 
    168 H168        3.0889  -16.5643  -39.8090 H         1 UNK         0.0600 
    169 H169        1.5476  -15.0944  -41.0879 H         1 UNK         0.3000 
    170 H170       -0.4209  -14.3648  -43.9627 H         1 UNK         0.0600 
    171 H171       -1.8975  -13.8109  -41.9969 H         1 UNK         0.0600 
    172 H172       -0.5075  -13.1292  -41.1609 H         1 UNK         0.0600 
    173 H173       -1.0971  -12.3969  -42.6511 H         1 UNK         0.0600 
    174 H174        1.3702  -12.6481  -42.8244 H         1 UNK         0.3000 
    175 H175        4.0039  -13.0174  -42.9681 H         1 UNK         0.0600 
    176 H176        4.2776  -14.0317  -45.8541 H         1 UNK         0.0600 
    177 H177        5.4988  -13.0996  -44.9881 H         1 UNK         0.0600 
    178 H178        5.0723  -14.7116  -44.4367 H         1 UNK         0.0600 
    179 H179        2.3652  -12.0622  -45.2358 H         1 UNK         0.3000 
    180 H180        2.5354   -8.7752  -44.0680 H         1 UNK         0.0600 
    181 H181        3.8223   -9.6154  -46.7225 H         1 UNK         0.0600 
    182 H182        4.5687   -8.5844  -45.5066 H         1 UNK         0.0600 
    183 H183        3.1391   -8.0302  -46.3648 H         1 UNK         0.0600 
    184 H184        1.4005   -9.9120  -46.4454 H         1 UNK         0.3000 
    185 H185       -1.1756  -11.7802  -45.0290 H         1 UNK         0.0600 
    186 H186       -2.2790   -9.5719  -44.6131 H         1 UNK         0.0600 
    187 H187       -1.6832   -8.9736  -46.1571 H         1 UNK         0.0600 
    188 H188       -2.8486  -10.2977  -46.1069 H         1 UNK         0.0600 
    189 H189       -0.9163  -10.7779  -47.6664 H         1 UNK         0.3000 
    190 H190       -1.3597  -21.8525  -46.7160 H         1 UNK         0.3000 
    191 H191       -3.1587  -23.0214  -48.5831 H         1 UNK         0.0600 
    192 H192       -3.7454  -21.2951  -46.1265 H         1 UNK         0.0600 
    193 H193       -4.8770  -21.6392  -47.4300 H         1 UNK         0.0600 
    194 H194       -3.4288  -20.7061  -47.7565 H         1 UNK         0.0600 
    195 H195       -2.6814  -23.6489  -45.0826 H         1 UNK         0.3000 
    196 H196       -4.8407  -25.5303  -44.8504 H         1 UNK         0.0600 
    197 H197       -3.7567  -26.0523  -42.6587 H         1 UNK         0.0600 
    198 H198       -3.9337  -24.3205  -42.8959 H         1 UNK         0.0600 
    199 H199       -2.3591  -25.0825  -43.1101 H         1 UNK         0.0600 
    200 H200       -1.3681  -25.8701  -45.6227 H         1 UNK         0.3000 
    201 H201       -1.2986  -28.7342  -45.5375 H         1 UNK         0.0600 
    202 H202        0.7342  -27.3181  -45.3178 H         1 UNK         0.0600 
    203 H203        0.5431  -26.7537  -46.9770 H         1 UNK         0.0600 
    204 H204        0.9007  -28.4451  -46.6560 H         1 UNK         0.0600 
    205 H205       -1.7581  -26.3891  -48.2050 H         1 UNK         0.3000 
    206 H206       -2.1713  -28.4396  -50.2501 H         1 UNK         0.0600 
    207 H207       -1.0859  -26.2131  -50.7213 H         1 UNK         0.0600 
    208 H208       -2.5257  -26.4404  -51.6954 H         1 UNK         0.0600 
    209 H209       -2.5798  -25.3961  -50.2776 H         1 UNK         0.0600 
    210 H210       -4.2195  -27.9465  -51.6986 H         1 UNK         0.3000 
    211 H211       -6.6812  -28.2545  -50.1193 H         1 UNK         0.0600 
    212 H212       -6.1519  -28.2532  -53.1393 H         1 UNK         0.0600 
    213 H213       -7.6879  -28.6283  -52.3661 H         1 UNK         0.0600 
    214 H214       -6.3028  -29.6772  -52.1110 H         1 UNK         0.0600 
    215 H215       -6.0480  -26.0478  -49.1921 H         1 UNK         0.3000 
    216 H216       -6.5972  -23.9605  -48.7321 H         1 UNK         0.0600 
    217 H217       -8.4076  -22.7480  -49.8109 H         1 UNK         0.0600 
    218 H218       -8.8997  -24.4219  -49.6156 H         1 UNK         0.0600 
    219 H219       -8.3971  -23.8220  -51.1974 H         1 UNK         0.0600 
    220 H220       -4.8627  -24.8303  -51.3541 H         1 UNK         0.3000 
    221 H221       -3.2413  -24.0503  -52.6121 H         1 UNK         0.0600 
    222 H222       -3.3103  -21.4783  -50.9539 H         1 UNK         0.0600 
    223 H223       -2.2522  -22.8701  -50.7181 H         1 UNK         0.0600 
    224 H224       -2.0943  -21.8802  -52.1548 H         1 UNK         0.0600 
    225 H225       -5.3170  -21.2202  -52.1245 H         1 UNK         0.3000 
    226 H226       -6.5120  -19.8632  -53.3437 H         1 UNK         0.0600 
    227 H227       -7.8168  -21.9031  -53.8195 H         1 UNK         0.0600 
    228 H228       -7.8773  -20.8061  -55.1908 H         1 UNK         0.0600 
    229 H229       -6.8504  -22.2312  -55.2558 H         1 UNK         0.0600 
    230 H230       -4.4371  -21.5558  -55.7219 H         1 UNK         0.3000 
    231 H231       -4.3955  -19.3837  -57.6192 H         1 UNK         0.0600 
    232 H232       -2.6902  -20.8146  -58.7617 H         1 UNK         0.0600 
    233 H233       -4.1011  -21.7517  -58.2956 H         1 UNK         0.0600 
    234 H234       -2.6155  -21.8671  -57.3526 H         1 UNK         0.0600 
    235 H235       -2.3715  -20.2421  -54.8736 H         1 UNK         0.3000 
    236 H236       -0.1833  -18.4225  -55.5003 H         1 UNK         0.0600 
    237 H237        0.1378  -20.4969  -54.1286 H         1 UNK         0.0600 
    238 H238        0.5950  -19.0561  -53.2332 H         1 UNK         0.0600 
    239 H239       -0.9370  -19.8445  -52.8891 H         1 UNK         0.0600 
    240 H240       -3.3210  -18.1449  -53.9953 H         1 UNK         0.3000 
    241 H241       -2.6864  -15.8893  -52.3067 H         1 UNK         0.0600 
    242 H242       -4.1350  -13.0823  -53.9805 H         1 UNK         0.3800 
    243 H243       -3.8395  -13.7412  -52.3988 H         1 UNK         0.3800 
    244 H244       -5.0245  -15.9510  -51.6201 H         1 UNK         0.0800 
    245 H245       -5.4626  -16.9433  -52.9795 H         1 UNK         0.0800 
    246 H246       -3.7044  -16.6115  -49.6469 H         1 UNK         0.0800 
    247 H247       -3.8470  -18.2016  -48.9447 H         1 UNK         0.0800 
@<TRIPOS>BOND
     1    1    2 1    
     2    1  127 1    
     3    1  128 1    
     4    1  129 1    
     5    2    3 2    
     6    2    4 am   BACKBONE|DICT|INTERRES
     7    4    5 1    
     8    4  130 1    
     9    5    6 1    
    10    5   65 1    
    11    5  131 1    
    12    6    7 1    
    13    6  132 1    
    14    6  133 1    
    15    7    8 1    
    16    8    9 1    
    17    8  134 1    
    18    8  135 1    
    19    9   10 ar   
    20    9   14 ar   
    21   10   11 ar   
    22   10  136 1    
    23   11   12 ar   
    24   11  126 1    
    25   12   13 ar   
    26   12  137 1    
    27   13   14 ar   
    28   13   15 1    
    29   14  138 1    
    30   15   16 1    
    31   15  139 1    
    32   15  140 1    
    33   16   17 1    
    34   17   18 1    
    35   17  141 1    
    36   17  142 1    
    37   18   19 1    
    38   18   67 1    
    39   18  143 1    
    40   19   20 am   BACKBONE|DICT|INTERRES
    41   19  144 1    
    42   20   21 2    
    43   20   22 1    
    44   22   23 1    
    45   22   24 1    
    46   22  145 1    
    47   23  146 1    
    48   23  147 1    
    49   23  148 1    
    50   24   25 am   BACKBONE|DICT|INTERRES
    51   24  149 1    
    52   25   26 2    
    53   25   27 1    
    54   27   28 1    
    55   27   29 1    
    56   27  150 1    
    57   28  151 1    
    58   28  152 1    
    59   28  153 1    
    60   29   30 am   BACKBONE|DICT|INTERRES
    61   29  154 1    
    62   30   31 2    
    63   30   32 1    
    64   32   33 1    
    65   32   34 1    
    66   32  155 1    
    67   33  156 1    
    68   33  157 1    
    69   33  158 1    
    70   34   35 am   BACKBONE|DICT|INTERRES
    71   34  159 1    
    72   35   36 2    
    73   35   37 1    
    74   37   38 1    
    75   37   39 1    
    76   37  160 1    
    77   38  161 1    
    78   38  162 1    
    79   38  163 1    
    80   39   40 am   BACKBONE|DICT|INTERRES
    81   39  164 1    
    82   40   41 2    
    83   40   42 1    
    84   42   43 1    
    85   42   44 1    
    86   42  165 1    
    87   43  166 1    
    88   43  167 1    
    89   43  168 1    
    90   44   45 am   BACKBONE|DICT|INTERRES
    91   44  169 1    
    92   45   46 2    
    93   45   47 1    
    94   47   48 1    
    95   47   49 1    
    96   47  170 1    
    97   48  171 1    
    98   48  172 1    
    99   48  173 1    
   100   49   50 am   BACKBONE|DICT|INTERRES
   101   49  174 1    
   102   50   51 2    
   103   50   52 1    
   104   52   53 1    
   105   52   54 1    
   106   52  175 1    
   107   53  176 1    
   108   53  177 1    
   109   53  178 1    
   110   54   55 am   BACKBONE|DICT|INTERRES
   111   54  179 1    
   112   55   56 2    
   113   55   57 1    
   114   57   58 1    
   115   57   59 1    
   116   57  180 1    
   117   58  181 1    
   118   58  182 1    
   119   58  183 1    
   120   59   60 am   BACKBONE|DICT|INTERRES
   121   59  184 1    
   122   60   61 2    
   123   60   62 1    
   124   62   63 1    
   125   62   64 1    
   126   62  185 1    
   127   63  186 1    
   128   63  187 1    
   129   63  188 1    
   130   64   65 am   BACKBONE|DICT|INTERRES
   131   64  189 1    
   132   65   66 2    
   133   67   68 2    
   134   67   69 am   BACKBONE|DICT|INTERRES
   135   69   70 1    
   136   69  190 1    
   137   70   71 1    
   138   70   72 1    
   139   70  191 1    
   140   71  192 1    
   141   71  193 1    
   142   71  194 1    
   143   72   73 2    
   144   72   74 am   BACKBONE|DICT|INTERRES
   145   74   75 1    
   146   74  195 1    
   147   75   76 1    
   148   75   77 1    
   149   75  196 1    
   150   76  197 1    
   151   76  198 1    
   152   76  199 1    
   153   77   78 2    
   154   77   79 am   BACKBONE|DICT|INTERRES
   155   79   80 1    
   156   79  200 1    
   157   80   81 1    
   158   80   82 1    
   159   80  201 1    
   160   81  202 1    
   161   81  203 1    
   162   81  204 1    
   163   82   83 2    
   164   82   84 am   BACKBONE|DICT|INTERRES
   165   84   85 1    
   166   84  205 1    
   167   85   86 1    
   168   85   87 1    
   169   85  206 1    
   170   86  207 1    
   171   86  208 1    
   172   86  209 1    
   173   87   88 2    
   174   87   89 am   BACKBONE|DICT|INTERRES
   175   89   90 1    
   176   89  210 1    
   177   90   91 1    
   178   90   92 1    
   179   90  211 1    
   180   91  212 1    
   181   91  213 1    
   182   91  214 1    
   183   92   93 2    
   184   92   94 am   BACKBONE|DICT|INTERRES
   185   94   95 1    
   186   94  215 1    
   187   95   96 1    
   188   95   97 1    
   189   95  216 1    
   190   96  217 1    
   191   96  218 1    
   192   96  219 1    
   193   97   98 2    
   194   97   99 am   BACKBONE|DICT|INTERRES
   195   99  100 1    
   196   99  220 1    
   197  100  101 1    
   198  100  102 1    
   199  100  221 1    
   200  101  222 1    
   201  101  223 1    
   202  101  224 1    
   203  102  103 2    
   204  102  104 am   BACKBONE|DICT|INTERRES
   205  104  105 1    
   206  104  225 1    
   207  105  106 1    
   208  105  107 1    
   209  105  226 1    
   210  106  227 1    
   211  106  228 1    
   212  106  229 1    
   213  107  108 2    
   214  107  109 am   BACKBONE|DICT|INTERRES
   215  109  110 1    
   216  109  230 1    
   217  110  111 1    
   218  110  112 1    
   219  110  231 1    
   220  111  232 1    
   221  111  233 1    
   222  111  234 1    
   223  112  113 2    
   224  112  114 am   BACKBONE|DICT|INTERRES
   225  114  115 1    
   226  114  235 1    
   227  115  116 1    
   228  115  117 1    
   229  115  236 1    
   230  116  237 1    
   231  116  238 1    
   232  116  239 1    
   233  117  118 2    
   234  117  119 am   BACKBONE|DICT|INTERRES
   235  119  120 1    
   236  119  240 1    
   237  120  121 1    
   238  120  124 1    
   239  120  241 1    
   240  121  122 am   BACKBONE|DICT|INTERRES
   241  121  123 2    
   242  122  242 1    
   243  122  243 1    
   244  124  125 1    
   245  124  244 1    
   246  124  245 1    
   247  125  126 1    
   248  126  246 1    
   249  126  247 1    
@<TRIPOS>SUBSTRUCTURE
     1 UNK         1 GROUP             0       ****    0 ROOT    
