@<TRIPOS>MOLECULE
3R540
247   249    1
SMALL
USER_CHARGES


@<TRIPOS>ATOM
      1 CA         -2.3589  -11.3932  -48.4665 C.3       0 UNK        -0.1800 
      2 C          -3.5654  -12.2918  -48.7323 C.2       0 UNK         0.5000 
      3 O          -4.6303  -11.7855  -49.0785 O.2       0 UNK        -0.5000 
      4 N          -3.4557  -13.6197  -48.5868 N.am      1 UNK        -0.5000 
      5 CA         -2.2612  -14.3646  -48.1624 C.3       1 UNK         0.1400 
      6 C6         -2.2407  -15.8030  -48.7284 C.3       23 UNK        -0.0398 
      7 S7         -2.2815  -15.8660  -50.5497 S.3       23 UNK        -0.2404 
      8 C8         -0.5088  -15.8239  -50.9629 C.3       23 UNK        -0.0205 
      9 C9          0.2372  -17.0774  -50.5249 C.ar      23 UNK        -0.0193 
     10 C10         0.0414  -18.2836  -51.2041 C.ar      23 UNK        -0.1150 
     11 C11         0.7815  -19.4193  -50.8619 C.ar      23 UNK        -0.0193 
     12 C12         1.7099  -19.3447  -49.8213 C.ar      23 UNK        -0.1150 
     13 C13         1.9000  -18.1527  -49.1180 C.ar      23 UNK        -0.0193 
     14 C14         1.1598  -17.0211  -49.4742 C.ar      23 UNK        -0.1150 
     15 C15         2.9347  -18.0842  -48.0025 C.3       23 UNK        -0.0205 
     16 S16         2.5907  -19.2648  -46.6584 S.3       23 UNK        -0.2404 
     17 C17         1.0832  -18.5456  -45.9325 C.3       23 UNK        -0.0398 
     18 CA         -0.1593  -19.4397  -46.1383 C.3       11 UNK         0.1400 
     19 N          -0.0199  -20.7267  -45.4564 N.am      11 UNK        -0.5000 
     20 C          -0.8828  -21.7489  -45.5170 C.2       10 UNK         0.5000 
     21 O          -1.8873  -21.7562  -46.2302 O.2       10 UNK        -0.5000 
     22 CA         -0.6062  -22.9315  -44.5697 C.3       10 UNK         0.1400 
     23 CB          0.1847  -24.0252  -45.3013 C.3       10 UNK        -0.1800 
     24 N           0.1144  -22.5482  -43.3489 N.am      10 UNK        -0.5000 
     25 C          -0.3064  -21.6657  -42.4322 C.2       9 UNK         0.5000 
     26 O          -1.3726  -21.0594  -42.5226 O.2       9 UNK        -0.5000 
     27 CA          0.6281  -21.3581  -41.2474 C.3       9 UNK         0.1400 
     28 CB          0.5031  -22.4239  -40.1430 C.3       9 UNK        -0.1800 
     29 N           2.0289  -21.1262  -41.6204 N.am      9 UNK        -0.5000 
     30 C           2.9306  -21.9914  -42.1076 C.2       8 UNK         0.5000 
     31 O           2.6866  -23.1682  -42.3771 O.2       8 UNK        -0.5000 
     32 CA          4.3493  -21.4433  -42.3362 C.3       8 UNK         0.1400 
     33 CB          4.4481  -20.7680  -43.7127 C.3       8 UNK        -0.1800 
     34 N           4.7658  -20.4927  -41.3044 N.am      8 UNK        -0.5000 
     35 C           5.0054  -20.7972  -40.0190 C.2       7 UNK         0.5000 
     36 O           4.9113  -21.9365  -39.5609 O.2       7 UNK        -0.5000 
     37 CA          5.4447  -19.6460  -39.0892 C.3       7 UNK         0.1400 
     38 CB          6.9259  -19.7976  -38.7073 C.3       7 UNK        -0.1800 
     39 N           5.2532  -18.3319  -39.7055 N.am      7 UNK        -0.5000 
     40 C           4.1053  -17.6432  -39.6961 C.2       6 UNK         0.5000 
     41 O           3.1227  -17.9697  -39.0264 O.2       6 UNK        -0.5000 
     42 CA          4.0445  -16.3835  -40.5921 C.3       6 UNK         0.1400 
     43 CB          5.1242  -16.3569  -41.6983 C.3       6 UNK        -0.1800 
     44 N           2.7312  -16.1618  -41.2059 N.am      6 UNK        -0.5000 
     45 C           1.9927  -17.0373  -41.9068 C.2       5 UNK         0.5000 
     46 O           2.2716  -18.2276  -42.0696 O.2       5 UNK        -0.5000 
     47 CA          0.7445  -16.4478  -42.5912 C.3       5 UNK         0.1400 
     48 CB         -0.3610  -16.1737  -41.5614 C.3       5 UNK        -0.1800 
     49 N           1.0199  -15.2261  -43.3593 N.am      5 UNK        -0.5000 
     50 C           1.9460  -15.0961  -44.3269 C.2       4 UNK         0.5000 
     51 O           2.6848  -16.0117  -44.6873 O.2       4 UNK        -0.5000 
     52 CA          2.0745  -13.7233  -45.0178 C.3       4 UNK         0.1400 
     53 CB          2.3543  -13.8706  -46.5255 C.3       4 UNK        -0.1800 
     54 N           0.8638  -12.9234  -44.8501 N.am      4 UNK        -0.5000 
     55 C           0.7613  -11.7796  -44.1601 C.2       3 UNK         0.5000 
     56 O           1.7036  -11.2537  -43.5672 O.2       3 UNK        -0.5000 
     57 CA         -0.6266  -11.1017  -44.1192 C.3       3 UNK         0.1400 
     58 CB         -0.6510   -9.8754  -45.0451 C.3       3 UNK        -0.1800 
     59 N          -1.7277  -11.9944  -44.4912 N.am      3 UNK        -0.5000 
     60 C          -2.1389  -13.0440  -43.7674 C.2       2 UNK         0.5000 
     61 O          -1.6809  -13.3253  -42.6607 O.2       2 UNK        -0.5000 
     62 CA         -3.1899  -13.9683  -44.4126 C.3       2 UNK         0.1400 
     63 CB         -4.6039  -13.5850  -43.9543 C.3       2 UNK        -0.1800 
     64 N          -3.1504  -14.0014  -45.8805 N.am      2 UNK        -0.5000 
     65 C          -2.1041  -14.3941  -46.6253 C.2       1 UNK         0.5000 
     66 O          -1.0253  -14.7333  -46.1414 O.2       1 UNK        -0.5000 
     67 C          -1.4395  -18.6846  -45.7212 C.2       11 UNK         0.5000 
     68 O          -2.0095  -17.9894  -46.5570 O.2       11 UNK        -0.5000 
     69 N          -1.9277  -18.8746  -44.4834 N.am      12 UNK        -0.5000 
     70 CA         -3.1840  -18.2811  -44.0081 C.3       12 UNK         0.1400 
     71 CB         -3.3185  -18.4863  -42.4923 C.3       12 UNK        -0.1800 
     72 C          -4.4281  -18.8304  -44.7340 C.2       12 UNK         0.5000 
     73 O          -5.4307  -18.1242  -44.8386 O.2       12 UNK        -0.5000 
     74 N          -4.3251  -20.0643  -45.2433 N.am      13 UNK        -0.5000 
     75 CA         -5.3283  -20.7245  -46.0757 C.3       13 UNK         0.1400 
     76 CB         -5.4214  -22.1974  -45.6389 C.3       13 UNK        -0.1800 
     77 C          -4.9859  -20.6266  -47.5761 C.2       13 UNK         0.5000 
     78 O          -5.6775  -21.2497  -48.3812 O.2       13 UNK        -0.5000 
     79 N          -3.9050  -19.9086  -47.9286 N.am      14 UNK        -0.5000 
     80 CA         -3.3119  -19.7895  -49.2679 C.3       14 UNK         0.1400 
     81 CB         -4.2265  -18.9545  -50.1861 C.3       14 UNK        -0.1800 
     82 C          -2.9268  -21.1550  -49.8823 C.2       14 UNK         0.5000 
     83 O          -3.0218  -21.3354  -51.0956 O.2       14 UNK        -0.5000 
     84 N          -2.5221  -22.1004  -49.0196 N.am      15 UNK        -0.5000 
     85 CA         -2.2503  -23.5118  -49.3096 C.3       15 UNK         0.1400 
     86 CB         -1.0133  -23.6697  -50.2151 C.3       15 UNK        -0.1800 
     87 C          -3.4871  -24.2981  -49.8051 C.2       15 UNK         0.5000 
     88 O          -3.3405  -25.2834  -50.5317 O.2       15 UNK        -0.5000 
     89 N          -4.6821  -23.8727  -49.3655 N.am      16 UNK        -0.5000 
     90 CA         -5.9874  -24.5050  -49.5663 C.3       16 UNK         0.1400 
     91 CB         -6.0786  -25.8129  -48.7486 C.3       16 UNK        -0.1800 
     92 C          -6.3333  -24.6680  -51.0593 C.2       16 UNK         0.5000 
     93 O          -6.5527  -23.6656  -51.7377 O.2       16 UNK        -0.5000 
     94 N          -6.3685  -25.9120  -51.5557 N.am      17 UNK        -0.5000 
     95 CA         -6.6934  -26.2606  -52.9418 C.3       17 UNK         0.1400 
     96 CB         -6.7680  -27.7901  -53.0647 C.3       17 UNK        -0.1800 
     97 C          -5.7177  -25.6833  -53.9877 C.2       17 UNK         0.5000 
     98 O          -6.1087  -25.5039  -55.1417 O.2       17 UNK        -0.5000 
     99 N          -4.4785  -25.3852  -53.5728 N.am      18 UNK        -0.5000 
    100 CA        -3.4486  -24.7855  -54.4204 C.3       18 UNK         0.1400 
    101 CB        -2.0686  -25.0769  -53.8148 C.3       18 UNK        -0.1800 
    102 C         -3.6337  -23.2723  -54.6484 C.2       18 UNK         0.5000 
    103 O         -2.9479  -22.7226  -55.5113 O.2       18 UNK        -0.5000 
    104 N         -4.5417  -22.6174  -53.9056 N.am      19 UNK        -0.5000 
    105 CA        -4.7751  -21.1664  -53.9239 C.3       19 UNK         0.1400 
    106 CB        -5.8916  -20.8143  -52.9317 C.3       19 UNK        -0.1800 
    107 C         -5.1063  -20.5788  -55.3078 C.2       19 UNK         0.5000 
    108 O         -4.7649  -19.4252  -55.5695 O.2       19 UNK        -0.5000 
    109 N         -5.7197  -21.3896  -56.1813 N.am      20 UNK        -0.5000 
    110 CA        -6.0204  -21.0522  -57.5742 C.3       20 UNK         0.1400 
    111 CB        -6.8532  -22.1861  -58.1911 C.3       20 UNK        -0.1800 
    112 C         -4.7669  -20.7753  -58.4310 C.2       20 UNK         0.5000 
    113 O         -4.8523  -20.0029  -59.3867 O.2       20 UNK        -0.5000 
    114 N         -3.6351  -21.3945  -58.0701 N.am      21 UNK        -0.5000 
    115 CA        -2.3278  -21.1681  -58.6828 C.3       21 UNK         0.1400 
    116 CB        -1.6470  -22.5249  -58.9247 C.3       21 UNK        -0.1800 
    117 C         -1.4454  -20.2762  -57.7926 C.2       21 UNK         0.5000 
    118 O         -0.7321  -19.4184  -58.3145 O.2       21 UNK        -0.5000 
    119 N         -1.4943  -20.5049  -56.4736 N.am      22 UNK        -0.5000 
    120 CA        -0.6689  -19.8200  -55.4676 C.3       22 UNK         0.1400 
    121 C         -1.0563  -18.3364  -55.1997 C.2       22 UNK         0.5000 
    122 N         -2.3013  -17.9258  -55.4072 N.am      22 UNK        -0.7600 
    123 O         -0.2089  -17.5376  -54.8122 O.2       22 UNK        -0.5000 
    124 C124       -0.6057  -20.6434  -54.1533 C.3       23 UNK        -0.0398 
    125 S125        1.0385  -20.6054  -53.3638 S.3       23 UNK        -0.2404 
    126 C126        0.5865  -20.7306  -51.6056 C.3       23 UNK        -0.0205 
    127 H127       -1.6236  -11.5014  -49.2636 H         1 UNK         0.0600 
    128 H128       -1.8814  -11.6280  -47.5173 H         1 UNK         0.0600 
    129 H129       -2.6626  -10.3469  -48.4313 H         1 UNK         0.0600 
    130 H130       -4.2595  -14.1915  -48.8041 H         1 UNK         0.3000 
    131 H131       -1.3752  -13.8607  -48.5523 H         1 UNK         0.0600 
    132 H132       -3.0962  -16.3687  -48.3562 H         1 UNK         0.0800 
    133 H133       -1.3540  -16.3355  -48.3845 H         1 UNK         0.0800 
    134 H134       -0.0582  -14.9312  -50.5269 H         1 UNK         0.0800 
    135 H135       -0.4077  -15.7160  -52.0441 H         1 UNK         0.0800 
    136 H136       -0.6699  -18.3296  -52.0167 H         1 UNK         0.1150 
    137 H137        2.2900  -20.2166  -49.5526 H         1 UNK         0.1150 
    138 H138        1.3169  -16.0903  -48.9477 H         1 UNK         0.1150 
    139 H139        3.9165  -18.3077  -48.4218 H         1 UNK         0.0800 
    140 H140        3.0016  -17.0774  -47.5863 H         1 UNK         0.0800 
    141 H141        0.9217  -17.5485  -46.3481 H         1 UNK         0.0800 
    142 H142        1.2807  -18.4062  -44.8711 H         1 UNK         0.0800 
    143 H143       -0.2538  -19.6480  -47.2066 H         1 UNK         0.0600 
    144 H144        0.7844  -20.8247  -44.8550 H         1 UNK         0.3000 
    145 H145       -1.5722  -23.3428  -44.2708 H         1 UNK         0.0600 
    146 H146        0.3144  -24.9055  -44.6715 H         1 UNK         0.0600 
    147 H147       -0.3344  -24.3463  -46.2054 H         1 UNK         0.0600 
    148 H148        1.1749  -23.6754  -45.5964 H         1 UNK         0.0600 
    149 H149        1.0157  -22.9896  -43.1832 H         1 UNK         0.3000 
    150 H150        0.2866  -20.4124  -40.8231 H         1 UNK         0.0600 
    151 H151       -0.5275  -22.5017  -39.7947 H         1 UNK         0.0600 
    152 H152        1.1199  -22.1702  -39.2807 H         1 UNK         0.0600 
    153 H153        0.8034  -23.4126  -40.4907 H         1 UNK         0.0600 
    154 H154        2.3258  -20.1578  -41.5349 H         1 UNK         0.3000 
    155 H155        5.0399  -22.2890  -42.3180 H         1 UNK         0.0600 
    156 H156        3.8078  -19.8870  -43.7771 H         1 UNK         0.0600 
    157 H157        4.1457  -21.4511  -44.5077 H         1 UNK         0.0600 
    158 H158        5.4699  -20.4545  -43.9266 H         1 UNK         0.0600 
    159 H159        4.8375  -19.5273  -41.5871 H         1 UNK         0.3000 
    160 H160        4.8488  -19.7125  -38.1765 H         1 UNK         0.0600 
    161 H161        7.5749  -19.7538  -39.5829 H         1 UNK         0.0600 
    162 H162        7.1068  -20.7527  -38.2123 H         1 UNK         0.0600 
    163 H163        7.2375  -19.0126  -38.0181 H         1 UNK         0.0600 
    164 H164        6.0231  -17.9792  -40.2560 H         1 UNK         0.3000 
    165 H165        4.2219  -15.5341  -39.9311 H         1 UNK         0.0600 
    166 H166        5.0283  -15.4614  -42.3127 H         1 UNK         0.0600 
    167 H167        6.1317  -16.3433  -41.2813 H         1 UNK         0.0600 
    168 H168        5.0431  -17.2172  -42.3643 H         1 UNK         0.0600 
    169 H169        2.3754  -15.2203  -41.1280 H         1 UNK         0.3000 
    170 H170        0.3591  -17.1942  -43.2842 H         1 UNK         0.0600 
    171 H171       -0.1110  -15.3351  -40.9107 H         1 UNK         0.0600 
    172 H172       -1.3059  -15.9445  -42.0536 H         1 UNK         0.0600 
    173 H173       -0.5296  -17.0434  -40.9248 H         1 UNK         0.0600 
    174 H174        0.4461  -14.4230  -43.1415 H         1 UNK         0.3000 
    175 H175        2.9306  -13.2227  -44.5618 H         1 UNK         0.0600 
    176 H176        1.5645  -14.4306  -47.0272 H         1 UNK         0.0600 
    177 H177        2.4329  -12.8966  -47.0086 H         1 UNK         0.0600 
    178 H178        3.2936  -14.3953  -46.7041 H         1 UNK         0.0600 
    179 H179        0.0329  -13.3230  -45.2750 H         1 UNK         0.3000 
    180 H180       -0.7953  -10.7620  -43.0951 H         1 UNK         0.0600 
    181 H181       -1.6106   -9.3604  -44.9956 H         1 UNK         0.0600 
    182 H182       -0.4686  -10.1507  -46.0844 H         1 UNK         0.0600 
    183 H183        0.1169   -9.1555  -44.7588 H         1 UNK         0.0600 
    184 H184       -2.1683  -11.8264  -45.3823 H         1 UNK         0.3000 
    185 H185       -2.9786  -14.9759  -44.0550 H         1 UNK         0.0600 
    186 H186       -5.3425  -14.3016  -44.3144 H         1 UNK         0.0600 
    187 H187       -4.6722  -13.5707  -42.8656 H         1 UNK         0.0600 
    188 H188       -4.8896  -12.5961  -44.3148 H         1 UNK         0.0600 
    189 H189       -3.9966  -13.7285  -46.3596 H         1 UNK         0.3000 
    190 H190       -1.4768  -19.5312  -43.8548 H         1 UNK         0.3000 
    191 H191       -3.1356  -17.2102  -44.2045 H         1 UNK         0.0600 
    192 H192       -4.1505  -17.9036  -42.0953 H         1 UNK         0.0600 
    193 H193       -2.4196  -18.1749  -41.9634 H         1 UNK         0.0600 
    194 H194       -3.5062  -19.5310  -42.2426 H         1 UNK         0.0600 
    195 H195       -3.4509  -20.5620  -45.1322 H         1 UNK         0.3000 
    196 H196       -6.3064  -20.2614  -45.9320 H         1 UNK         0.0600 
    197 H197       -4.4835  -22.7282  -45.8076 H         1 UNK         0.0600 
    198 H198       -5.6661  -22.2789  -44.5798 H         1 UNK         0.0600 
    199 H199       -6.2004  -22.7249  -46.1909 H         1 UNK         0.0600 
    200 H200       -3.4082  -19.4119  -47.1992 H         1 UNK         0.3000 
    201 H201       -2.3774  -19.2395  -49.1456 H         1 UNK         0.0600 
    202 H202       -3.7578  -18.7779  -51.1551 H         1 UNK         0.0600 
    203 H203       -4.4388  -17.9802  -49.7475 H         1 UNK         0.0600 
    204 H204       -5.1802  -19.4495  -50.3647 H         1 UNK         0.0600 
    205 H205       -2.4502  -21.8489  -48.0363 H         1 UNK         0.3000 
    206 H206       -1.9968  -23.9600  -48.3480 H         1 UNK         0.0600 
    207 H207       -0.1467  -23.1719  -49.7807 H         1 UNK         0.0600 
    208 H208       -0.7497  -24.7199  -50.3439 H         1 UNK         0.0600 
    209 H209       -1.1807  -23.2509  -51.2059 H         1 UNK         0.0600 
    210 H210       -4.7197  -22.9871  -48.8731 H         1 UNK         0.3000 
    211 H211       -6.7272  -23.8136  -49.1603 H         1 UNK         0.0600 
    212 H212       -7.0625  -26.2728  -48.8491 H         1 UNK         0.0600 
    213 H213       -5.9266  -25.6154  -47.6873 H         1 UNK         0.0600 
    214 H214       -5.3326  -26.5473  -49.0543 H         1 UNK         0.0600 
    215 H215       -6.1453  -26.6789  -50.9382 H         1 UNK         0.3000 
    216 H216       -7.6814  -25.8512  -53.1620 H         1 UNK         0.0600 
    217 H217       -5.8123  -28.2591  -52.8271 H         1 UNK         0.0600 
    218 H218       -7.0372  -28.0887  -54.0789 H         1 UNK         0.0600 
    219 H219       -7.5223  -28.2043  -52.3954 H         1 UNK         0.0600 
    220 H220       -4.2370  -25.5363  -52.6000 H         1 UNK         0.3000 
    221 H221       -3.4862  -25.2612  -55.4026 H         1 UNK         0.0600 
    222 H222       -1.8927  -26.1493  -53.7308 H         1 UNK         0.0600 
    223 H223       -1.9726  -24.6442  -52.8211 H         1 UNK         0.0600 
    224 H224       -1.2701  -24.6635  -54.4325 H         1 UNK         0.0600 
    225 H225       -5.0748  -23.1387  -53.2192 H         1 UNK         0.3000 
    226 H226       -3.8550  -20.6881  -53.5845 H         1 UNK         0.0600 
    227 H227       -6.8405  -21.2707  -53.2157 H         1 UNK         0.0600 
    228 H228       -5.6455  -21.1555  -51.9266 H         1 UNK         0.0600 
    229 H229       -6.0451  -19.7357  -52.8793 H         1 UNK         0.0600 
    230 H230       -5.9528  -22.3247  -55.8790 H         1 UNK         0.3000 
    231 H231       -6.6245  -20.1427  -57.5735 H         1 UNK         0.0600 
    232 H232       -6.3086  -23.1313  -58.1893 H         1 UNK         0.0600 
    233 H233       -7.1164  -21.9602  -59.2253 H         1 UNK         0.0600 
    234 H234       -7.7849  -22.3341  -57.6449 H         1 UNK         0.0600 
    235 H235       -3.6467  -21.9874  -57.2477 H         1 UNK         0.3000 
    236 H236       -2.4382  -20.6713  -59.6490 H         1 UNK         0.0600 
    237 H237       -1.5067  -23.0792  -57.9957 H         1 UNK         0.0600 
    238 H238       -2.2381  -23.1458  -59.5980 H         1 UNK         0.0600 
    239 H239       -0.6651  -22.3933  -59.3811 H         1 UNK         0.0600 
    240 H240       -2.0835  -21.2588  -56.1299 H         1 UNK         0.3000 
    241 H241        0.3380  -19.7917  -55.8895 H         1 UNK         0.0600 
    242 H242       -2.5292  -16.9595  -55.2395 H         1 UNK         0.3800 
    243 H243       -3.0415  -18.5676  -55.6743 H         1 UNK         0.3800 
    244 H244       -1.3818  -20.3272  -53.4539 H         1 UNK         0.0800 
    245 H245       -0.8063  -21.6968  -54.3505 H         1 UNK         0.0800 
    246 H246       -0.4471  -21.0504  -51.4976 H         1 UNK         0.0800 
    247 H247        1.1928  -21.5186  -51.1569 H         1 UNK         0.0800 
@<TRIPOS>BOND
     1    1    2 1    
     2    1  127 1    
     3    1  128 1    
     4    1  129 1    
     5    2    3 2    
     6    2    4 am   BACKBONE|DICT|INTERRES
     7    4    5 1    
     8    4  130 1    
     9    5    6 1    
    10    5   65 1    
    11    5  131 1    
    12    6    7 1    
    13    6  132 1    
    14    6  133 1    
    15    7    8 1    
    16    8    9 1    
    17    8  134 1    
    18    8  135 1    
    19    9   10 ar   
    20    9   14 ar   
    21   10   11 ar   
    22   10  136 1    
    23   11   12 ar   
    24   11  126 1    
    25   12   13 ar   
    26   12  137 1    
    27   13   14 ar   
    28   13   15 1    
    29   14  138 1    
    30   15   16 1    
    31   15  139 1    
    32   15  140 1    
    33   16   17 1    
    34   17   18 1    
    35   17  141 1    
    36   17  142 1    
    37   18   19 1    
    38   18   67 1    
    39   18  143 1    
    40   19   20 am   BACKBONE|DICT|INTERRES
    41   19  144 1    
    42   20   21 2    
    43   20   22 1    
    44   22   23 1    
    45   22   24 1    
    46   22  145 1    
    47   23  146 1    
    48   23  147 1    
    49   23  148 1    
    50   24   25 am   BACKBONE|DICT|INTERRES
    51   24  149 1    
    52   25   26 2    
    53   25   27 1    
    54   27   28 1    
    55   27   29 1    
    56   27  150 1    
    57   28  151 1    
    58   28  152 1    
    59   28  153 1    
    60   29   30 am   BACKBONE|DICT|INTERRES
    61   29  154 1    
    62   30   31 2    
    63   30   32 1    
    64   32   33 1    
    65   32   34 1    
    66   32  155 1    
    67   33  156 1    
    68   33  157 1    
    69   33  158 1    
    70   34   35 am   BACKBONE|DICT|INTERRES
    71   34  159 1    
    72   35   36 2    
    73   35   37 1    
    74   37   38 1    
    75   37   39 1    
    76   37  160 1    
    77   38  161 1    
    78   38  162 1    
    79   38  163 1    
    80   39   40 am   BACKBONE|DICT|INTERRES
    81   39  164 1    
    82   40   41 2    
    83   40   42 1    
    84   42   43 1    
    85   42   44 1    
    86   42  165 1    
    87   43  166 1    
    88   43  167 1    
    89   43  168 1    
    90   44   45 am   BACKBONE|DICT|INTERRES
    91   44  169 1    
    92   45   46 2    
    93   45   47 1    
    94   47   48 1    
    95   47   49 1    
    96   47  170 1    
    97   48  171 1    
    98   48  172 1    
    99   48  173 1    
   100   49   50 am   BACKBONE|DICT|INTERRES
   101   49  174 1    
   102   50   51 2    
   103   50   52 1    
   104   52   53 1    
   105   52   54 1    
   106   52  175 1    
   107   53  176 1    
   108   53  177 1    
   109   53  178 1    
   110   54   55 am   BACKBONE|DICT|INTERRES
   111   54  179 1    
   112   55   56 2    
   113   55   57 1    
   114   57   58 1    
   115   57   59 1    
   116   57  180 1    
   117   58  181 1    
   118   58  182 1    
   119   58  183 1    
   120   59   60 am   BACKBONE|DICT|INTERRES
   121   59  184 1    
   122   60   61 2    
   123   60   62 1    
   124   62   63 1    
   125   62   64 1    
   126   62  185 1    
   127   63  186 1    
   128   63  187 1    
   129   63  188 1    
   130   64   65 am   BACKBONE|DICT|INTERRES
   131   64  189 1    
   132   65   66 2    
   133   67   68 2    
   134   67   69 am   BACKBONE|DICT|INTERRES
   135   69   70 1    
   136   69  190 1    
   137   70   71 1    
   138   70   72 1    
   139   70  191 1    
   140   71  192 1    
   141   71  193 1    
   142   71  194 1    
   143   72   73 2    
   144   72   74 am   BACKBONE|DICT|INTERRES
   145   74   75 1    
   146   74  195 1    
   147   75   76 1    
   148   75   77 1    
   149   75  196 1    
   150   76  197 1    
   151   76  198 1    
   152   76  199 1    
   153   77   78 2    
   154   77   79 am   BACKBONE|DICT|INTERRES
   155   79   80 1    
   156   79  200 1    
   157   80   81 1    
   158   80   82 1    
   159   80  201 1    
   160   81  202 1    
   161   81  203 1    
   162   81  204 1    
   163   82   83 2    
   164   82   84 am   BACKBONE|DICT|INTERRES
   165   84   85 1    
   166   84  205 1    
   167   85   86 1    
   168   85   87 1    
   169   85  206 1    
   170   86  207 1    
   171   86  208 1    
   172   86  209 1    
   173   87   88 2    
   174   87   89 am   BACKBONE|DICT|INTERRES
   175   89   90 1    
   176   89  210 1    
   177   90   91 1    
   178   90   92 1    
   179   90  211 1    
   180   91  212 1    
   181   91  213 1    
   182   91  214 1    
   183   92   93 2    
   184   92   94 am   BACKBONE|DICT|INTERRES
   185   94   95 1    
   186   94  215 1    
   187   95   96 1    
   188   95   97 1    
   189   95  216 1    
   190   96  217 1    
   191   96  218 1    
   192   96  219 1    
   193   97   98 2    
   194   97   99 am   BACKBONE|DICT|INTERRES
   195   99  100 1    
   196   99  220 1    
   197  100  101 1    
   198  100  102 1    
   199  100  221 1    
   200  101  222 1    
   201  101  223 1    
   202  101  224 1    
   203  102  103 2    
   204  102  104 am   BACKBONE|DICT|INTERRES
   205  104  105 1    
   206  104  225 1    
   207  105  106 1    
   208  105  107 1    
   209  105  226 1    
   210  106  227 1    
   211  106  228 1    
   212  106  229 1    
   213  107  108 2    
   214  107  109 am   BACKBONE|DICT|INTERRES
   215  109  110 1    
   216  109  230 1    
   217  110  111 1    
   218  110  112 1    
   219  110  231 1    
   220  111  232 1    
   221  111  233 1    
   222  111  234 1    
   223  112  113 2    
   224  112  114 am   BACKBONE|DICT|INTERRES
   225  114  115 1    
   226  114  235 1    
   227  115  116 1    
   228  115  117 1    
   229  115  236 1    
   230  116  237 1    
   231  116  238 1    
   232  116  239 1    
   233  117  118 2    
   234  117  119 am   BACKBONE|DICT|INTERRES
   235  119  120 1    
   236  119  240 1    
   237  120  121 1    
   238  120  124 1    
   239  120  241 1    
   240  121  122 am   BACKBONE|DICT|INTERRES
   241  121  123 2    
   242  122  242 1    
   243  122  243 1    
   244  124  125 1    
   245  124  244 1    
   246  124  245 1    
   247  125  126 1    
   248  126  246 1    
   249  126  247 1    
@<TRIPOS>SUBSTRUCTURE
     1 UNK         1 GROUP             0       ****    0 ROOT    
