@<TRIPOS>MOLECULE
3R540
247   249    1
SMALL
USER_CHARGES


@<TRIPOS>ATOM
      1 CA          4.7966  -10.0574  -45.3795 C.3       0 UNK        -0.1800 
      2 C           4.2287  -11.4624  -45.5104 C.2       0 UNK         0.5000 
      3 O           4.9781  -12.4352  -45.4150 O.2       0 UNK        -0.5000 
      4 N           2.9069  -11.5756  -45.7100 N.am      1 UNK        -0.5000 
      5 CA          2.1713  -12.8361  -45.8904 C.3       1 UNK         0.1400 
      6 C6          0.6700  -12.5814  -46.1793 C.3       23 UNK        -0.0398 
      7 S7         -0.2178  -14.0599  -46.7798 S.3       23 UNK        -0.2404 
      8 C8         -0.2773  -13.7732  -48.5728 C.3       23 UNK        -0.0205 
      9 C9         -0.9323  -14.9475  -49.2847 C.ar      23 UNK        -0.0193 
     10 C10        -2.3235  -15.0165  -49.3973 C.ar      23 UNK        -0.1150 
     11 C11        -2.9341  -16.1008  -50.0361 C.ar      23 UNK        -0.0193 
     12 C12        -2.1404  -17.1247  -50.5624 C.ar      23 UNK        -0.1150 
     13 C13        -0.7469  -17.0540  -50.4775 C.ar      23 UNK        -0.0193 
     14 C14        -0.1497  -15.9661  -49.8344 C.ar      23 UNK        -0.1150 
     15 C15         0.1225  -18.1249  -51.1156 C.3       23 UNK        -0.0205 
     16 S16         0.7588  -19.3199  -49.9001 S.3       23 UNK        -0.2404 
     17 C17        -0.6418  -20.4674  -49.6869 C.3       23 UNK        -0.0398 
     18 CA         -1.1666  -20.4742  -48.2305 C.3       11 UNK         0.1400 
     19 N          -1.9267  -19.2555  -47.9184 N.am      11 UNK        -0.5000 
     20 C          -1.9704  -18.6659  -46.7188 C.2       10 UNK         0.5000 
     21 O          -1.2757  -19.0105  -45.7631 O.2       10 UNK        -0.5000 
     22 CA         -3.0217  -17.5643  -46.5495 C.3       10 UNK         0.1400 
     23 CB         -4.4129  -18.1936  -46.3305 C.3       10 UNK        -0.1800 
     24 N          -2.6805  -16.6840  -45.4339 N.am      10 UNK        -0.5000 
     25 C          -3.2174  -15.4677  -45.2576 C.2       9 UNK         0.5000 
     26 O          -4.0543  -14.9883  -46.0250 O.2       9 UNK        -0.5000 
     27 CA         -2.7709  -14.6423  -44.0355 C.3       9 UNK         0.1400 
     28 CB         -3.9217  -13.8026  -43.4439 C.3       9 UNK        -0.1800 
     29 N          -2.1762  -15.4649  -42.9814 N.am      9 UNK        -0.5000 
     30 C          -1.2407  -15.0266  -42.1286 C.2       8 UNK         0.5000 
     31 O          -0.7599  -13.8939  -42.1695 O.2       8 UNK        -0.5000 
     32 CA         -0.7698  -15.9972  -41.0253 C.3       8 UNK         0.1400 
     33 CB         -1.5032  -15.7003  -39.7082 C.3       8 UNK        -0.1800 
     34 N          -0.9299  -17.4183  -41.3467 N.am      8 UNK        -0.5000 
     35 C          -0.2944  -18.0533  -42.3397 C.2       7 UNK         0.5000 
     36 O           0.4617  -17.4856  -43.1299 O.2       7 UNK        -0.5000 
     37 CA         -0.5636  -19.5644  -42.4609 C.3       7 UNK         0.1400 
     38 CB         -2.0630  -19.8510  -42.6708 C.3       7 UNK        -0.1800 
     39 N           0.1823  -20.1034  -43.5946 N.am      7 UNK        -0.5000 
     40 C           1.2475  -20.9080  -43.5146 C.2       6 UNK         0.5000 
     41 O           1.6737  -21.3833  -42.4612 O.2       6 UNK        -0.5000 
     42 CA          1.9611  -21.2454  -44.8370 C.3       6 UNK         0.1400 
     43 CB          1.2575  -22.4071  -45.5529 C.3       6 UNK        -0.1800 
     44 N           2.0508  -20.1093  -45.7546 N.am      6 UNK        -0.5000 
     45 C           2.8594  -19.0550  -45.5889 C.2       5 UNK         0.5000 
     46 O           3.6151  -18.9158  -44.6236 O.2       5 UNK        -0.5000 
     47 CA          2.8246  -18.0137  -46.7219 C.3       5 UNK         0.1400 
     48 CB          1.4517  -17.3338  -46.8129 C.3       5 UNK        -0.1800 
     49 N           3.8408  -16.9799  -46.5412 N.am      5 UNK        -0.5000 
     50 C           5.0523  -16.9955  -47.1076 C.2       4 UNK         0.5000 
     51 O           5.4688  -17.9211  -47.8065 O.2       4 UNK        -0.5000 
     52 CA          5.9425  -15.7571  -46.8980 C.3       4 UNK         0.1400 
     53 CB          5.5894  -14.6666  -47.9218 C.3       4 UNK        -0.1800 
     54 N           5.8667  -15.1882  -45.5534 N.am      4 UNK        -0.5000 
     55 C           6.4433  -15.7255  -44.4696 C.2       3 UNK         0.5000 
     56 O           7.0443  -16.8005  -44.4761 O.2       3 UNK        -0.5000 
     57 CA          6.3663  -14.9127  -43.1658 C.3       3 UNK         0.1400 
     58 CB          7.4365  -13.8094  -43.1549 C.3       3 UNK        -0.1800 
     59 N           5.0494  -14.3030  -42.9972 N.am      3 UNK        -0.5000 
     60 C           4.0700  -14.8132  -42.2384 C.2       2 UNK         0.5000 
     61 O           4.2080  -15.8034  -41.5190 O.2       2 UNK        -0.5000 
     62 CA          2.7002  -14.1031  -42.2770 C.3       2 UNK         0.1400 
     63 CB          2.5265  -13.2010  -41.0454 C.3       2 UNK        -0.1800 
     64 N           2.4584  -13.3117  -43.4862 N.am      2 UNK        -0.5000 
     65 C           2.3816  -13.8254  -44.7218 C.2       1 UNK         0.5000 
     66 O           2.5508  -15.0162  -44.9674 O.2       1 UNK        -0.5000 
     67 C          -1.9917  -21.7523  -47.9469 C.2       11 UNK         0.5000 
     68 O          -1.4689  -22.8537  -48.1235 O.2       11 UNK        -0.5000 
     69 N          -3.2472  -21.5896  -47.4997 N.am      12 UNK        -0.5000 
     70 CA         -4.2638  -22.6240  -47.2771 C.3       12 UNK         0.1400 
     71 CB         -5.5209  -21.9536  -46.7021 C.3       12 UNK        -0.1800 
     72 C          -3.8375  -23.8033  -46.3807 C.2       12 UNK         0.5000 
     73 O          -4.3590  -24.9059  -46.5446 O.2       12 UNK        -0.5000 
     74 N          -2.9006  -23.5578  -45.4550 N.am      13 UNK        -0.5000 
     75 CA         -2.3401  -24.5697  -44.5580 C.3       13 UNK         0.1400 
     76 CB         -1.6316  -23.8686  -43.3883 C.3       13 UNK        -0.1800 
     77 C          -1.3990  -25.5745  -45.2566 C.2       13 UNK         0.5000 
     78 O          -1.1798  -26.6558  -44.7089 O.2       13 UNK        -0.5000 
     79 N          -0.8667  -25.2174  -46.4341 N.am      14 UNK        -0.5000 
     80 CA         -0.0158  -26.0788  -47.2567 C.3       14 UNK         0.1400 
     81 CB          1.3175  -25.3696  -47.5430 C.3       14 UNK        -0.1800 
     82 C          -0.7278  -26.4436  -48.5665 C.2       14 UNK         0.5000 
     83 O          -0.8447  -27.6261  -48.8909 O.2       14 UNK        -0.5000 
     84 N          -1.2041  -25.4241  -49.2900 N.am      15 UNK        -0.5000 
     85 CA         -1.9510  -25.5570  -50.5337 C.3       15 UNK         0.1400 
     86 CB         -1.6078  -24.3664  -51.4465 C.3       15 UNK        -0.1800 
     87 C          -3.4445  -25.6056  -50.1902 C.2       15 UNK         0.5000 
     88 O          -4.0932  -24.5615  -50.1639 O.2       15 UNK        -0.5000 
     89 N          -3.9544  -26.8100  -49.9011 N.am      16 UNK        -0.5000 
     90 CA         -5.3007  -27.0772  -49.3745 C.3       16 UNK         0.1400 
     91 CB         -5.4647  -28.5933  -49.1877 C.3       16 UNK        -0.1800 
     92 C          -6.4764  -26.5083  -50.1985 C.2       16 UNK         0.5000 
     93 O          -7.5440  -26.2644  -49.6351 O.2       16 UNK        -0.5000 
     94 N          -6.2631  -26.2907  -51.5036 N.am      17 UNK        -0.5000 
     95 CA         -7.2078  -25.6272  -52.4053 C.3       17 UNK         0.1400 
     96 CB         -6.7611  -25.8721  -53.8549 C.3       17 UNK        -0.1800 
     97 C          -7.3536  -24.1130  -52.1422 C.2       17 UNK         0.5000 
     98 O          -8.3717  -23.5361  -52.5268 O.2       17 UNK        -0.5000 
     99 N          -6.3385  -23.5019  -51.5107 N.am      18 UNK        -0.5000 
    100 CA        -6.1756  -22.0910  -51.1476 C.3       18 UNK         0.1400 
    101 CB        -7.2443  -21.6426  -50.1332 C.3       18 UNK        -0.1800 
    102 C         -6.0978  -21.1460  -52.3589 C.2       18 UNK         0.5000 
    103 O         -5.0473  -20.5495  -52.5998 O.2       18 UNK        -0.5000 
    104 N         -7.1970  -21.0446  -53.1158 N.am      19 UNK        -0.5000 
    105 CA        -7.3743  -20.1660  -54.2742 C.3       19 UNK         0.1400 
    106 CB        -8.8155  -20.2980  -54.7871 C.3       19 UNK        -0.1800 
    107 C         -6.3716  -20.4245  -55.4125 C.2       19 UNK         0.5000 
    108 O         -5.9834  -19.4818  -56.1022 O.2       19 UNK        -0.5000 
    109 N         -5.9365  -21.6838  -55.5565 N.am      20 UNK        -0.5000 
    110 CA        -4.9221  -22.1165  -56.5194 C.3       20 UNK         0.1400 
    111 CB        -4.8332  -23.6499  -56.4935 C.3       20 UNK        -0.1800 
    112 C         -3.5331  -21.4955  -56.2679 C.2       20 UNK         0.5000 
    113 O         -2.7834  -21.2907  -57.2232 O.2       20 UNK        -0.5000 
    114 N         -3.2226  -21.2049  -54.9975 N.am      21 UNK        -0.5000 
    115 CA        -1.9893  -20.5433  -54.5773 C.3       21 UNK         0.1400 
    116 CB        -1.5096  -21.1786  -53.2642 C.3       21 UNK        -0.1800 
    117 C         -2.1928  -19.0263  -54.4168 C.2       21 UNK         0.5000 
    118 O         -1.2911  -18.2586  -54.7534 O.2       21 UNK        -0.5000 
    119 N         -3.3636  -18.6234  -53.9046 N.am      22 UNK        -0.5000 
    120 CA        -3.7589  -17.2207  -53.7020 C.3       22 UNK         0.1400 
    121 C         -3.9872  -16.4213  -55.0176 C.2       22 UNK         0.5000 
    122 N         -4.5003  -17.0324  -56.0784 N.am      22 UNK        -0.7600 
    123 O         -3.6803  -15.2344  -55.0844 O.2       22 UNK        -0.5000 
    124 C124       -4.9840  -17.1291  -52.7538 C.3       23 UNK        -0.0398 
    125 S125       -5.0437  -15.5957  -51.7646 S.3       23 UNK        -0.2404 
    126 C126       -4.4506  -16.1653  -50.1377 C.3       23 UNK        -0.0205 
    127 H127        5.5410   -9.8818  -46.1560 H         1 UNK         0.0600 
    128 H128        5.2795   -9.9382  -44.4097 H         1 UNK         0.0600 
    129 H129        4.0219   -9.2958  -45.4711 H         1 UNK         0.0600 
    130 H130        2.3522  -10.7333  -45.7670 H         1 UNK         0.3000 
    131 H131        2.5980  -13.3064  -46.7785 H         1 UNK         0.0600 
    132 H132        0.1642  -12.2179  -45.2830 H         1 UNK         0.0800 
    133 H133        0.5615  -11.7909  -46.9230 H         1 UNK         0.0800 
    134 H134       -0.8324  -12.8568  -48.7789 H         1 UNK         0.0800 
    135 H135        0.7347  -13.6183  -48.9502 H         1 UNK         0.0800 
    136 H136       -2.9319  -14.2291  -48.9742 H         1 UNK         0.1150 
    137 H137       -2.6056  -17.9636  -51.0599 H         1 UNK         0.1150 
    138 H138        0.9276  -15.9138  -49.7638 H         1 UNK         0.1150 
    139 H139       -0.4211  -18.6413  -51.9057 H         1 UNK         0.0800 
    140 H140        0.9718  -17.6465  -51.6054 H         1 UNK         0.0800 
    141 H141       -0.2744  -21.4523  -49.9819 H         1 UNK         0.0800 
    142 H142       -1.4446  -20.2245  -50.3830 H         1 UNK         0.0800 
    143 H143       -0.3019  -20.5348  -47.5683 H         1 UNK         0.0600 
    144 H144       -2.4921  -18.8827  -48.6668 H         1 UNK         0.3000 
    145 H145       -3.0324  -16.9716  -47.4629 H         1 UNK         0.0600 
    146 H146       -5.1883  -17.4340  -46.2342 H         1 UNK         0.0600 
    147 H147       -4.6991  -18.8256  -47.1714 H         1 UNK         0.0600 
    148 H148       -4.4370  -18.8080  -45.4294 H         1 UNK         0.0600 
    149 H149       -1.9253  -17.0096  -44.8443 H         1 UNK         0.3000 
    150 H150       -2.0142  -13.9527  -44.4134 H         1 UNK         0.0600 
    151 H151       -4.7262  -14.4371  -43.0706 H         1 UNK         0.0600 
    152 H152       -4.3486  -13.1319  -44.1905 H         1 UNK         0.0600 
    153 H153       -3.5761  -13.1797  -42.6188 H         1 UNK         0.0600 
    154 H154       -2.5400  -16.4004  -42.8728 H         1 UNK         0.3000 
    155 H155        0.2939  -15.8150  -40.8635 H         1 UNK         0.0600 
    156 H156       -2.5738  -15.8912  -39.7922 H         1 UNK         0.0600 
    157 H157       -1.3781  -14.6561  -39.4179 H         1 UNK         0.0600 
    158 H158       -1.1146  -16.3102  -38.8925 H         1 UNK         0.0600 
    159 H159       -1.5375  -17.9472  -40.7378 H         1 UNK         0.3000 
    160 H160       -0.2442  -20.0388  -41.5311 H         1 UNK         0.0600 
    161 H161       -2.2350  -20.9005  -42.9060 H         1 UNK         0.0600 
    162 H162       -2.4853  -19.2575  -43.4813 H         1 UNK         0.0600 
    163 H163       -2.6373  -19.6276  -41.7715 H         1 UNK         0.0600 
    164 H164       -0.0803  -19.7093  -44.4947 H         1 UNK         0.3000 
    165 H165        2.9773  -21.5647  -44.5957 H         1 UNK         0.0600 
    166 H166        1.2738  -23.3089  -44.9398 H         1 UNK         0.0600 
    167 H167        0.2151  -22.1773  -45.7728 H         1 UNK         0.0600 
    168 H168        1.7550  -22.6442  -46.4927 H         1 UNK         0.0600 
    169 H169        1.4551  -20.1361  -46.5671 H         1 UNK         0.3000 
    170 H170        3.0019  -18.5337  -47.6657 H         1 UNK         0.0600 
    171 H171        0.7191  -18.0071  -47.2495 H         1 UNK         0.0600 
    172 H172        1.0774  -17.0274  -45.8353 H         1 UNK         0.0600 
    173 H173        1.4886  -16.4508  -47.4491 H         1 UNK         0.0600 
    174 H174        3.5753  -16.2125  -45.9276 H         1 UNK         0.3000 
    175 H175        6.9760  -16.0607  -47.0789 H         1 UNK         0.0600 
    176 H176        6.2607  -13.8119  -47.8356 H         1 UNK         0.0600 
    177 H177        5.6727  -15.0451  -48.9413 H         1 UNK         0.0600 
    178 H178        4.5696  -14.3051  -47.7878 H         1 UNK         0.0600 
    179 H179        5.4296  -14.2745  -45.4746 H         1 UNK         0.3000 
    180 H180        6.5801  -15.5904  -42.3366 H         1 UNK         0.0600 
    181 H181        7.2869  -13.0905  -43.9615 H         1 UNK         0.0600 
    182 H182        8.4346  -14.2331  -43.2734 H         1 UNK         0.0600 
    183 H183        7.4258  -13.2613  -42.2127 H         1 UNK         0.0600 
    184 H184        4.8431  -13.5069  -43.5881 H         1 UNK         0.3000 
    185 H185        1.9398  -14.8847  -42.2443 H         1 UNK         0.0600 
    186 H186        2.6584  -13.7686  -40.1233 H         1 UNK         0.0600 
    187 H187        3.2530  -12.3876  -41.0381 H         1 UNK         0.0600 
    188 H188        1.5290  -12.7625  -41.0138 H         1 UNK         0.0600 
    189 H189        2.3405  -12.3168  -43.3643 H         1 UNK         0.3000 
    190 H190       -3.5597  -20.6427  -47.3590 H         1 UNK         0.3000 
    191 H191       -4.5242  -23.0329  -48.2516 H         1 UNK         0.0600 
    192 H192       -5.8977  -21.1777  -47.3683 H         1 UNK         0.0600 
    193 H193       -6.3240  -22.6794  -46.5666 H         1 UNK         0.0600 
    194 H194       -5.3240  -21.4961  -45.7317 H         1 UNK         0.0600 
    195 H195       -2.5316  -22.6220  -45.3799 H         1 UNK         0.3000 
    196 H196       -3.1671  -25.1500  -44.1431 H         1 UNK         0.0600 
    197 H197       -1.1529  -24.5914  -42.7263 H         1 UNK         0.0600 
    198 H198       -2.3419  -23.3042  -42.7847 H         1 UNK         0.0600 
    199 H199       -0.8622  -23.1793  -43.7323 H         1 UNK         0.0600 
    200 H200       -1.1346  -24.3275  -46.8406 H         1 UNK         0.3000 
    201 H201        0.2109  -27.0126  -46.7382 H         1 UNK         0.0600 
    202 H202        1.9549  -25.9805  -48.1834 H         1 UNK         0.0600 
    203 H203        1.1694  -24.4126  -48.0446 H         1 UNK         0.0600 
    204 H204        1.8682  -25.1863  -46.6207 H         1 UNK         0.0600 
    205 H205       -1.1428  -24.4805  -48.9161 H         1 UNK         0.3000 
    206 H206       -1.6748  -26.4759  -51.0551 H         1 UNK         0.0600 
    207 H207       -0.5496  -24.3644  -51.7079 H         1 UNK         0.0600 
    208 H208       -2.1742  -24.4141  -52.3773 H         1 UNK         0.0600 
    209 H209       -1.8341  -23.4105  -50.9722 H         1 UNK         0.0600 
    210 H210       -3.3289  -27.6034  -49.9288 H         1 UNK         0.3000 
    211 H211       -5.3544  -26.6090  -48.3902 H         1 UNK         0.0600 
    212 H212       -5.3750  -29.1260  -50.1353 H         1 UNK         0.0600 
    213 H213       -6.4420  -28.8338  -48.7668 H         1 UNK         0.0600 
    214 H214       -4.7134  -28.9909  -48.5050 H         1 UNK         0.0600 
    215 H215       -5.3603  -26.5314  -51.8849 H         1 UNK         0.3000 
    216 H216       -8.1920  -26.0800  -52.2685 H         1 UNK         0.0600 
    217 H217       -7.4393  -25.3930  -54.5624 H         1 UNK         0.0600 
    218 H218       -6.7496  -26.9368  -54.0889 H         1 UNK         0.0600 
    219 H219       -5.7613  -25.4779  -54.0381 H         1 UNK         0.0600 
    220 H220       -5.5598  -24.0825  -51.2079 H         1 UNK         0.3000 
    221 H221       -5.2093  -22.0275  -50.6443 H         1 UNK         0.0600 
    222 H222       -8.2509  -21.6744  -50.5506 H         1 UNK         0.0600 
    223 H223       -7.2335  -22.2802  -49.2493 H         1 UNK         0.0600 
    224 H224       -7.0605  -20.6202  -49.8007 H         1 UNK         0.0600 
    225 H225       -7.9694  -21.6636  -52.8875 H         1 UNK         0.3000 
    226 H226       -7.2261  -19.1400  -53.9343 H         1 UNK         0.0600 
    227 H227       -8.9894  -19.6417  -55.6409 H         1 UNK         0.0600 
    228 H228       -9.0370  -21.3179  -55.1043 H         1 UNK         0.0600 
    229 H229       -9.5349  -20.0234  -54.0155 H         1 UNK         0.0600 
    230 H230       -6.3136  -22.3895  -54.9419 H         1 UNK         0.3000 
    231 H231       -5.2498  -21.8061  -57.5137 H         1 UNK         0.0600 
    232 H232       -4.4938  -24.0153  -55.5237 H         1 UNK         0.0600 
    233 H233       -4.1288  -24.0118  -57.2436 H         1 UNK         0.0600 
    234 H234       -5.7989  -24.1079  -56.7083 H         1 UNK         0.0600 
    235 H235       -3.9141  -21.3689  -54.2775 H         1 UNK         0.3000 
    236 H236       -1.2078  -20.6972  -55.3245 H         1 UNK         0.0600 
    237 H237       -1.3179  -22.2425  -53.3985 H         1 UNK         0.0600 
    238 H238       -0.5769  -20.7277  -52.9259 H         1 UNK         0.0600 
    239 H239       -2.2472  -21.0690  -52.4688 H         1 UNK         0.0600 
    240 H240       -4.0312  -19.3262  -53.6026 H         1 UNK         0.3000 
    241 H241       -2.9144  -16.7409  -53.2046 H         1 UNK         0.0600 
    242 H242       -4.6336  -16.5085  -56.9283 H         1 UNK         0.3800 
    243 H243       -4.8304  -17.9928  -56.0328 H         1 UNK         0.3800 
    244 H244       -4.9899  -17.9702  -52.0612 H         1 UNK         0.0800 
    245 H245       -5.9163  -17.2169  -53.3133 H         1 UNK         0.0800 
    246 H246       -4.8038  -17.1755  -49.9275 H         1 UNK         0.0800 
    247 H247       -4.8975  -15.5324  -49.3690 H         1 UNK         0.0800 
@<TRIPOS>BOND
     1    1    2 1    
     2    1  127 1    
     3    1  128 1    
     4    1  129 1    
     5    2    3 2    
     6    2    4 am   BACKBONE|DICT|INTERRES
     7    4    5 1    
     8    4  130 1    
     9    5    6 1    
    10    5   65 1    
    11    5  131 1    
    12    6    7 1    
    13    6  132 1    
    14    6  133 1    
    15    7    8 1    
    16    8    9 1    
    17    8  134 1    
    18    8  135 1    
    19    9   10 ar   
    20    9   14 ar   
    21   10   11 ar   
    22   10  136 1    
    23   11   12 ar   
    24   11  126 1    
    25   12   13 ar   
    26   12  137 1    
    27   13   14 ar   
    28   13   15 1    
    29   14  138 1    
    30   15   16 1    
    31   15  139 1    
    32   15  140 1    
    33   16   17 1    
    34   17   18 1    
    35   17  141 1    
    36   17  142 1    
    37   18   19 1    
    38   18   67 1    
    39   18  143 1    
    40   19   20 am   BACKBONE|DICT|INTERRES
    41   19  144 1    
    42   20   21 2    
    43   20   22 1    
    44   22   23 1    
    45   22   24 1    
    46   22  145 1    
    47   23  146 1    
    48   23  147 1    
    49   23  148 1    
    50   24   25 am   BACKBONE|DICT|INTERRES
    51   24  149 1    
    52   25   26 2    
    53   25   27 1    
    54   27   28 1    
    55   27   29 1    
    56   27  150 1    
    57   28  151 1    
    58   28  152 1    
    59   28  153 1    
    60   29   30 am   BACKBONE|DICT|INTERRES
    61   29  154 1    
    62   30   31 2    
    63   30   32 1    
    64   32   33 1    
    65   32   34 1    
    66   32  155 1    
    67   33  156 1    
    68   33  157 1    
    69   33  158 1    
    70   34   35 am   BACKBONE|DICT|INTERRES
    71   34  159 1    
    72   35   36 2    
    73   35   37 1    
    74   37   38 1    
    75   37   39 1    
    76   37  160 1    
    77   38  161 1    
    78   38  162 1    
    79   38  163 1    
    80   39   40 am   BACKBONE|DICT|INTERRES
    81   39  164 1    
    82   40   41 2    
    83   40   42 1    
    84   42   43 1    
    85   42   44 1    
    86   42  165 1    
    87   43  166 1    
    88   43  167 1    
    89   43  168 1    
    90   44   45 am   BACKBONE|DICT|INTERRES
    91   44  169 1    
    92   45   46 2    
    93   45   47 1    
    94   47   48 1    
    95   47   49 1    
    96   47  170 1    
    97   48  171 1    
    98   48  172 1    
    99   48  173 1    
   100   49   50 am   BACKBONE|DICT|INTERRES
   101   49  174 1    
   102   50   51 2    
   103   50   52 1    
   104   52   53 1    
   105   52   54 1    
   106   52  175 1    
   107   53  176 1    
   108   53  177 1    
   109   53  178 1    
   110   54   55 am   BACKBONE|DICT|INTERRES
   111   54  179 1    
   112   55   56 2    
   113   55   57 1    
   114   57   58 1    
   115   57   59 1    
   116   57  180 1    
   117   58  181 1    
   118   58  182 1    
   119   58  183 1    
   120   59   60 am   BACKBONE|DICT|INTERRES
   121   59  184 1    
   122   60   61 2    
   123   60   62 1    
   124   62   63 1    
   125   62   64 1    
   126   62  185 1    
   127   63  186 1    
   128   63  187 1    
   129   63  188 1    
   130   64   65 am   BACKBONE|DICT|INTERRES
   131   64  189 1    
   132   65   66 2    
   133   67   68 2    
   134   67   69 am   BACKBONE|DICT|INTERRES
   135   69   70 1    
   136   69  190 1    
   137   70   71 1    
   138   70   72 1    
   139   70  191 1    
   140   71  192 1    
   141   71  193 1    
   142   71  194 1    
   143   72   73 2    
   144   72   74 am   BACKBONE|DICT|INTERRES
   145   74   75 1    
   146   74  195 1    
   147   75   76 1    
   148   75   77 1    
   149   75  196 1    
   150   76  197 1    
   151   76  198 1    
   152   76  199 1    
   153   77   78 2    
   154   77   79 am   BACKBONE|DICT|INTERRES
   155   79   80 1    
   156   79  200 1    
   157   80   81 1    
   158   80   82 1    
   159   80  201 1    
   160   81  202 1    
   161   81  203 1    
   162   81  204 1    
   163   82   83 2    
   164   82   84 am   BACKBONE|DICT|INTERRES
   165   84   85 1    
   166   84  205 1    
   167   85   86 1    
   168   85   87 1    
   169   85  206 1    
   170   86  207 1    
   171   86  208 1    
   172   86  209 1    
   173   87   88 2    
   174   87   89 am   BACKBONE|DICT|INTERRES
   175   89   90 1    
   176   89  210 1    
   177   90   91 1    
   178   90   92 1    
   179   90  211 1    
   180   91  212 1    
   181   91  213 1    
   182   91  214 1    
   183   92   93 2    
   184   92   94 am   BACKBONE|DICT|INTERRES
   185   94   95 1    
   186   94  215 1    
   187   95   96 1    
   188   95   97 1    
   189   95  216 1    
   190   96  217 1    
   191   96  218 1    
   192   96  219 1    
   193   97   98 2    
   194   97   99 am   BACKBONE|DICT|INTERRES
   195   99  100 1    
   196   99  220 1    
   197  100  101 1    
   198  100  102 1    
   199  100  221 1    
   200  101  222 1    
   201  101  223 1    
   202  101  224 1    
   203  102  103 2    
   204  102  104 am   BACKBONE|DICT|INTERRES
   205  104  105 1    
   206  104  225 1    
   207  105  106 1    
   208  105  107 1    
   209  105  226 1    
   210  106  227 1    
   211  106  228 1    
   212  106  229 1    
   213  107  108 2    
   214  107  109 am   BACKBONE|DICT|INTERRES
   215  109  110 1    
   216  109  230 1    
   217  110  111 1    
   218  110  112 1    
   219  110  231 1    
   220  111  232 1    
   221  111  233 1    
   222  111  234 1    
   223  112  113 2    
   224  112  114 am   BACKBONE|DICT|INTERRES
   225  114  115 1    
   226  114  235 1    
   227  115  116 1    
   228  115  117 1    
   229  115  236 1    
   230  116  237 1    
   231  116  238 1    
   232  116  239 1    
   233  117  118 2    
   234  117  119 am   BACKBONE|DICT|INTERRES
   235  119  120 1    
   236  119  240 1    
   237  120  121 1    
   238  120  124 1    
   239  120  241 1    
   240  121  122 am   BACKBONE|DICT|INTERRES
   241  121  123 2    
   242  122  242 1    
   243  122  243 1    
   244  124  125 1    
   245  124  244 1    
   246  124  245 1    
   247  125  126 1    
   248  126  246 1    
   249  126  247 1    
@<TRIPOS>SUBSTRUCTURE
     1 UNK         1 GROUP             0       ****    0 ROOT    
