@<TRIPOS>MOLECULE
3R540
247   249    1
SMALL
USER_CHARGES


@<TRIPOS>ATOM
      1 CA          6.3846  -15.0708  -47.3066 C.3       0 UNK        -0.1800 
      2 C           5.4321  -14.1781  -46.5240 C.2       0 UNK         0.5000 
      3 O           5.6797  -13.8994  -45.3512 O.2       0 UNK        -0.5000 
      4 N           4.3451  -13.7313  -47.1658 N.am      1 UNK        -0.5000 
      5 CA          3.3998  -12.7499  -46.6224 C.3       1 UNK         0.1400 
      6 C6          2.1081  -12.6462  -47.4705 C.3       23 UNK        -0.0398 
      7 S7          1.2068  -14.2296  -47.6166 S.3       23 UNK        -0.2404 
      8 C8          1.2877  -14.4926  -49.4178 C.3       23 UNK        -0.0205 
      9 C9          0.5002  -15.7171  -49.8612 C.ar      23 UNK        -0.0193 
     10 C10        -0.8957  -15.6665  -49.9173 C.ar      23 UNK        -0.1150 
     11 C11        -1.6344  -16.7742  -50.3434 C.ar      23 UNK        -0.0193 
     12 C12        -0.9582  -17.9331  -50.7383 C.ar      23 UNK        -0.1150 
     13 C13         0.4374  -17.9923  -50.7079 C.ar      23 UNK        -0.0193 
     14 C14         1.1614  -16.8850  -50.2547 C.ar      23 UNK        -0.1150 
     15 C15         1.1604  -19.2348  -51.2092 C.3       23 UNK        -0.0205 
     16 S16         1.4296  -20.4685  -49.8998 S.3       23 UNK        -0.2404 
     17 C17        -0.2690  -21.0647  -49.6095 C.3       23 UNK        -0.0398 
     18 CA         -0.3134  -22.3474  -48.7482 C.3       11 UNK         0.1400 
     19 N           0.1942  -22.1322  -47.3908 N.am      11 UNK        -0.5000 
     20 C           0.3924  -23.0959  -46.4811 C.2       10 UNK         0.5000 
     21 O           0.1972  -24.2918  -46.6957 O.2       10 UNK        -0.5000 
     22 CA          0.8359  -22.6438  -45.0799 C.3       10 UNK         0.1400 
     23 CB          2.3417  -22.3416  -45.0444 C.3       10 UNK        -0.1800 
     24 N           0.0846  -21.4775  -44.6175 N.am      10 UNK        -0.5000 
     25 C          -1.2149  -21.4972  -44.2897 C.2       9 UNK         0.5000 
     26 O          -1.9139  -22.5101  -44.3215 O.2       9 UNK        -0.5000 
     27 CA         -1.8476  -20.1492  -43.8978 C.3       9 UNK         0.1400 
     28 CB         -1.5122  -19.7912  -42.4423 C.3       9 UNK        -0.1800 
     29 N          -1.4283  -19.0547  -44.7718 N.am      9 UNK        -0.5000 
     30 C          -1.6999  -18.9836  -46.0820 C.2       8 UNK         0.5000 
     31 O          -2.3631  -19.8178  -46.6952 O.2       8 UNK        -0.5000 
     32 CA         -1.0798  -17.8066  -46.8483 C.3       8 UNK         0.1400 
     33 CB         -1.9678  -16.5624  -46.7106 C.3       8 UNK        -0.1800 
     34 N           0.2899  -17.4961  -46.4322 N.am      8 UNK        -0.5000 
     35 C           1.3145  -18.3608  -46.4765 C.2       7 UNK         0.5000 
     36 O           1.1951  -19.5432  -46.7884 O.2       7 UNK        -0.5000 
     37 CA          2.7018  -17.8412  -46.0715 C.3       7 UNK         0.1400 
     38 CB          3.4837  -17.3634  -47.3022 C.3       7 UNK        -0.1800 
     39 N           2.6391  -16.7810  -45.0644 N.am      7 UNK        -0.5000 
     40 C           2.3524  -17.0113  -43.7752 C.2       6 UNK         0.5000 
     41 O           2.1340  -18.1322  -43.3129 O.2       6 UNK        -0.5000 
     42 CA          2.2730  -15.7843  -42.8503 C.3       6 UNK         0.1400 
     43 CB          3.6749  -15.3480  -42.3996 C.3       6 UNK        -0.1800 
     44 N           1.5815  -14.6377  -43.4405 N.am      6 UNK        -0.5000 
     45 C           0.2983  -14.6178  -43.8237 C.2       5 UNK         0.5000 
     46 O          -0.4311  -15.6098  -43.8098 O.2       5 UNK        -0.5000 
     47 CA         -0.2597  -13.2399  -44.2389 C.3       5 UNK         0.1400 
     48 CB         -1.7230  -13.2955  -44.7097 C.3       5 UNK        -0.1800 
     49 N          -0.1582  -12.2812  -43.1379 N.am      5 UNK        -0.5000 
     50 C           0.9450  -11.5998  -42.8144 C.2       4 UNK         0.5000 
     51 O           2.0132  -11.7018  -43.4296 O.2       4 UNK        -0.5000 
     52 CA          0.8514  -10.6911  -41.5807 C.3       4 UNK         0.1400 
     53 CB          1.1732  -11.4841  -40.3044 C.3       4 UNK        -0.1800 
     54 N           1.8310   -9.6261  -41.7394 N.am      4 UNK        -0.5000 
     55 C           1.5764   -8.3134  -41.7321 C.2       3 UNK         0.5000 
     56 O           0.5009   -7.8207  -41.3892 O.2       3 UNK        -0.5000 
     57 CA          2.7147   -7.3964  -42.2272 C.3       3 UNK         0.1400 
     58 CB          3.5119   -6.8361  -41.0395 C.3       3 UNK        -0.1800 
     59 N           3.6375   -8.0725  -43.1474 N.am      3 UNK        -0.5000 
     60 C           3.3133   -8.5195  -44.3697 C.2       2 UNK         0.5000 
     61 O           2.2102   -8.3392  -44.8888 O.2       2 UNK        -0.5000 
     62 CA          4.3721   -9.3299  -45.1337 C.3       2 UNK         0.1400 
     63 CB          5.7219   -9.4857  -44.4003 C.3       2 UNK        -0.1800 
     64 N           3.8156  -10.6492  -45.4201 N.am      2 UNK        -0.5000 
     65 C           4.0789  -11.3667  -46.5150 C.2       1 UNK         0.5000 
     66 O           4.8121  -10.9770  -47.4283 O.2       1 UNK        -0.5000 
     67 C          -1.7356  -22.9415  -48.7357 C.2       11 UNK         0.5000 
     68 O          -1.9936  -23.8972  -49.4671 O.2       11 UNK        -0.5000 
     69 N          -2.6187  -22.3985  -47.8843 N.am      12 UNK        -0.5000 
     70 CA         -3.9754  -22.9004  -47.6704 C.3       12 UNK         0.1400 
     71 CB         -4.7632  -21.9361  -46.7728 C.3       12 UNK        -0.1800 
     72 C          -3.9953  -24.3230  -47.0931 C.2       12 UNK         0.5000 
     73 O          -4.7654  -25.1490  -47.5794 O.2       12 UNK        -0.5000 
     74 N          -3.1318  -24.5984  -46.1051 N.am      13 UNK        -0.5000 
     75 CA         -2.9637  -25.9243  -45.5084 C.3       13 UNK         0.1400 
     76 CB         -2.0355  -25.8355  -44.2878 C.3       13 UNK        -0.1800 
     77 C          -2.4503  -26.9674  -46.5175 C.2       13 UNK         0.5000 
     78 O          -3.0038  -28.0652  -46.5848 O.2       13 UNK        -0.5000 
     79 N          -1.4369  -26.5930  -47.3115 N.am      14 UNK        -0.5000 
     80 CA         -0.8543  -27.4204  -48.3704 C.3       14 UNK         0.1400 
     81 CB          0.4024  -26.7318  -48.9239 C.3       14 UNK        -0.1800 
     82 C          -1.8455  -27.7336  -49.5068 C.2       14 UNK         0.5000 
     83 O          -1.8695  -28.8618  -49.9997 O.2       14 UNK        -0.5000 
     84 N          -2.6609  -26.7397  -49.8820 N.am      15 UNK        -0.5000 
     85 CA         -3.7061  -26.8571  -50.8993 C.3       15 UNK         0.1400 
     86 CB         -3.9947  -25.4595  -51.4683 C.3       15 UNK        -0.1800 
     87 C          -5.0099  -27.4948  -50.3802 C.2       15 UNK         0.5000 
     88 O          -5.9302  -27.6847  -51.1750 O.2       15 UNK        -0.5000 
     89 N          -5.1032  -27.7568  -49.0670 N.am      16 UNK        -0.5000 
     90 CA         -6.2886  -28.2328  -48.3396 C.3       16 UNK         0.1400 
     91 CB         -6.5934  -29.6994  -48.7071 C.3       16 UNK        -0.1800 
     92 C          -7.5111  -27.3010  -48.5137 C.2       16 UNK         0.5000 
     93 O          -8.6463  -27.7706  -48.6067 O.2       16 UNK        -0.5000 
     94 N          -7.2317  -25.9916  -48.5962 N.am      17 UNK        -0.5000 
     95 CA         -8.1379  -24.8703  -48.8642 C.3       17 UNK         0.1400 
     96 CB         -9.1481  -24.7048  -47.7107 C.3       17 UNK        -0.1800 
     97 C          -8.8294  -24.9050  -50.2480 C.2       17 UNK         0.5000 
     98 O          -9.7516  -24.1200  -50.4745 O.2       17 UNK        -0.5000 
     99 N          -8.3859  -25.7856  -51.1578 N.am      18 UNK        -0.5000 
    100 CA        -8.9992  -25.9849  -52.4737 C.3       18 UNK         0.1400 
    101 CB        -8.7670  -27.4380  -52.9175 C.3       18 UNK        -0.1800 
    102 C         -8.4820  -25.0093  -53.5479 C.2       18 UNK         0.5000 
    103 O         -9.1180  -24.8865  -54.5961 O.2       18 UNK        -0.5000 
    104 N         -7.3453  -24.3492  -53.2930 N.am      19 UNK        -0.5000 
    105 CA        -6.6882  -23.4387  -54.2261 C.3       19 UNK         0.1400 
    106 CB        -5.8428  -24.2387  -55.2418 C.3       19 UNK        -0.1800 
    107 C         -5.8879  -22.3887  -53.4411 C.2       19 UNK         0.5000 
    108 O         -6.4672  -21.3791  -53.0408 O.2       19 UNK        -0.5000 
    109 N         -4.5914  -22.6676  -53.2363 N.am      20 UNK        -0.5000 
    110 CA        -3.5286  -21.8128  -52.6919 C.3       20 UNK         0.1400 
    111 CB        -3.9274  -21.1189  -51.3749 C.3       20 UNK        -0.1800 
    112 C         -3.0214  -20.8131  -53.7491 C.2       20 UNK         0.5000 
    113 O         -3.8140  -20.1251  -54.3959 O.2       20 UNK        -0.5000 
    114 N         -1.6949  -20.7635  -53.9228 N.am      21 UNK        -0.5000 
    115 CA        -0.9989  -19.9685  -54.9386 C.3       21 UNK         0.1400 
    116 CB         0.3500  -20.6451  -55.2457 C.3       21 UNK        -0.1800 
    117 C         -0.8407  -18.4903  -54.5238 C.2       21 UNK         0.5000 
    118 O          0.2818  -17.9948  -54.4132 O.2       21 UNK        -0.5000 
    119 N         -1.9710  -17.8193  -54.2803 N.am      22 UNK        -0.5000 
    120 CA        -2.0399  -16.4237  -53.8108 C.3       22 UNK         0.1400 
    121 C         -1.7168  -15.3476  -54.8895 C.2       22 UNK         0.5000 
    122 N         -1.6031  -15.6929  -56.1663 N.am      22 UNK        -0.7600 
    123 O         -1.5637  -14.1743  -54.5612 O.2       22 UNK        -0.5000 
    124 C124       -3.3881  -16.1031  -53.1101 C.3       23 UNK        -0.0398 
    125 S125       -3.9096  -17.3498  -51.8812 S.3       23 UNK        -0.2404 
    126 C126       -3.1583  -16.7189  -50.3454 C.3       23 UNK        -0.0205 
    127 H127        6.6231  -15.9651  -46.7311 H         1 UNK         0.0600 
    128 H128        5.9565  -15.3823  -48.2598 H         1 UNK         0.0600 
    129 H129        7.3140  -14.5381  -47.5075 H         1 UNK         0.0600 
    130 H130        4.2106  -13.9731  -48.1360 H         1 UNK         0.3000 
    131 H131        3.1225  -13.0767  -45.6180 H         1 UNK         0.0600 
    132 H132        1.4244  -11.9199  -47.0278 H         1 UNK         0.0800 
    133 H133        2.3394  -12.2640  -48.4665 H         1 UNK         0.0800 
    134 H134        0.8911  -13.6141  -49.9291 H         1 UNK         0.0800 
    135 H135        2.3316  -14.5811  -49.7217 H         1 UNK         0.0800 
    136 H136       -1.4057  -14.7633  -49.6128 H         1 UNK         0.1150 
    137 H137       -1.5209  -18.7863  -51.0866 H         1 UNK         0.1150 
    138 H138        2.2410  -16.9270  -50.2299 H         1 UNK         0.1150 
    139 H139        0.6038  -19.6887  -52.0294 H         1 UNK         0.0800 
    140 H140        2.1276  -18.9516  -51.6268 H         1 UNK         0.0800 
    141 H141       -0.7260  -21.2468  -50.5832 H         1 UNK         0.0800 
    142 H142       -0.8440  -20.2695  -49.1331 H         1 UNK         0.0800 
    143 H143        0.3346  -23.0899  -49.2189 H         1 UNK         0.0600 
    144 H144        0.4375  -21.1736  -47.1468 H         1 UNK         0.3000 
    145 H145        0.6421  -23.4663  -44.3881 H         1 UNK         0.0600 
    146 H146        2.6650  -22.0669  -44.0403 H         1 UNK         0.0600 
    147 H147        2.9198  -23.2164  -45.3446 H         1 UNK         0.0600 
    148 H148        2.6103  -21.5268  -45.7171 H         1 UNK         0.0600 
    149 H149        0.5689  -20.5911  -44.6289 H         1 UNK         0.3000 
    150 H150       -2.9313  -20.2527  -43.9847 H         1 UNK         0.0600 
    151 H151       -1.8214  -20.5868  -41.7631 H         1 UNK         0.0600 
    152 H152       -2.0262  -18.8812  -42.1323 H         1 UNK         0.0600 
    153 H153       -0.4416  -19.6351  -42.3018 H         1 UNK         0.0600 
    154 H154       -0.8683  -18.3213  -44.3587 H         1 UNK         0.3000 
    155 H155       -1.0361  -18.0858  -47.9009 H         1 UNK         0.0600 
    156 H156       -1.5255  -15.6985  -47.2038 H         1 UNK         0.0600 
    157 H157       -2.1383  -16.3033  -45.6662 H         1 UNK         0.0600 
    158 H158       -2.9450  -16.7324  -47.1630 H         1 UNK         0.0600 
    159 H159        0.4683  -16.5493  -46.1322 H         1 UNK         0.3000 
    160 H160        3.2479  -18.6871  -45.6478 H         1 UNK         0.0600 
    161 H161        3.0638  -16.4534  -47.7268 H         1 UNK         0.0600 
    162 H162        3.4792  -18.1218  -48.0866 H         1 UNK         0.0600 
    163 H163        4.5242  -17.1734  -47.0471 H         1 UNK         0.0600 
    164 H164        2.7953  -15.8332  -45.3740 H         1 UNK         0.3000 
    165 H165        1.7109  -16.0821  -41.9627 H         1 UNK         0.0600 
    166 H166        4.2759  -14.9955  -43.2384 H         1 UNK         0.0600 
    167 H167        3.6208  -14.5436  -41.6656 H         1 UNK         0.0600 
    168 H168        4.2122  -16.1759  -41.9351 H         1 UNK         0.0600 
    169 H169        2.0844  -13.7578  -43.4484 H         1 UNK         0.3000 
    170 H170        0.3399  -12.8810  -45.0757 H         1 UNK         0.0600 
    171 H171       -1.8201  -13.9139  -45.6006 H         1 UNK         0.0600 
    172 H172       -2.3820  -13.7068  -43.9441 H         1 UNK         0.0600 
    173 H173       -2.0906  -12.3030  -44.9707 H         1 UNK         0.0600 
    174 H174       -0.9821  -12.1792  -42.5625 H         1 UNK         0.3000 
    175 H175       -0.1605  -10.2857  -41.5156 H         1 UNK         0.0600 
    176 H176        1.1328  -10.8429  -39.4237 H         1 UNK         0.0600 
    177 H177        0.4555  -12.2912  -40.1524 H         1 UNK         0.0600 
    178 H178        2.1674  -11.9315  -40.3469 H         1 UNK         0.0600 
    179 H179        2.7257   -9.9320  -42.0954 H         1 UNK         0.3000 
    180 H180        2.2565   -6.5600  -42.7593 H         1 UNK         0.0600 
    181 H181        4.0078   -7.6286  -40.4774 H         1 UNK         0.0600 
    182 H182        2.8586   -6.3026  -40.3477 H         1 UNK         0.0600 
    183 H183        4.2743   -6.1316  -41.3726 H         1 UNK         0.0600 
    184 H184        4.5675   -8.2549  -42.7985 H         1 UNK         0.3000 
    185 H185        4.5475   -8.7922  -46.0678 H         1 UNK         0.0600 
    186 H186        6.4381  -10.0282  -45.0179 H         1 UNK         0.0600 
    187 H187        6.1684   -8.5159  -44.1771 H         1 UNK         0.0600 
    188 H188        5.6159  -10.0364  -43.4647 H         1 UNK         0.0600 
    189 H189        3.1649  -11.0118  -44.7253 H         1 UNK         0.3000 
    190 H190       -2.3537  -21.5784  -47.3435 H         1 UNK         0.3000 
    191 H191       -4.4747  -22.9393  -48.6395 H         1 UNK         0.0600 
    192 H192       -4.8471  -20.9517  -47.2334 H         1 UNK         0.0600 
    193 H193       -5.7765  -22.3010  -46.5997 H         1 UNK         0.0600 
    194 H194       -4.2864  -21.8111  -45.8000 H         1 UNK         0.0600 
    195 H195       -2.5560  -23.8527  -45.7282 H         1 UNK         0.3000 
    196 H196       -3.9442  -26.2567  -45.1610 H         1 UNK         0.0600 
    197 H197       -1.9055  -26.8138  -43.8236 H         1 UNK         0.0600 
    198 H198       -2.4460  -25.1683  -43.5298 H         1 UNK         0.0600 
    199 H199       -1.0464  -25.4653  -44.5575 H         1 UNK         0.0600 
    200 H200       -1.0109  -25.6810  -47.1643 H         1 UNK         0.3000 
    201 H201       -0.5529  -28.3697  -47.9229 H         1 UNK         0.0600 
    202 H202        1.1475  -26.5852  -48.1418 H         1 UNK         0.0600 
    203 H203        0.1705  -25.7555  -49.3509 H         1 UNK         0.0600 
    204 H204        0.8662  -27.3328  -49.7070 H         1 UNK         0.0600 
    205 H205       -2.5361  -25.8205  -49.4678 H         1 UNK         0.3000 
    206 H206       -3.3393  -27.4852  -51.7136 H         1 UNK         0.0600 
    207 H207       -3.0899  -25.0084  -51.8755 H         1 UNK         0.0600 
    208 H208       -4.7248  -25.5099  -52.2762 H         1 UNK         0.0600 
    209 H209       -4.3899  -24.7873  -50.7053 H         1 UNK         0.0600 
    210 H210       -4.3054  -27.5283  -48.4881 H         1 UNK         0.3000 
    211 H211       -6.0293  -28.2011  -47.2805 H         1 UNK         0.0600 
    212 H212       -6.9134  -29.7986  -49.7448 H         1 UNK         0.0600 
    213 H213       -7.3884  -30.1033  -48.0792 H         1 UNK         0.0600 
    214 H214       -5.7163  -30.3306  -48.5646 H         1 UNK         0.0600 
    215 H215       -6.2619  -25.7259  -48.4300 H         1 UNK         0.3000 
    216 H216       -7.5062  -23.9810  -48.8736 H         1 UNK         0.0600 
    217 H217       -8.6406  -24.6556  -46.7473 H         1 UNK         0.0600 
    218 H218       -9.8596  -25.5301  -47.6742 H         1 UNK         0.0600 
    219 H219       -9.7223  -23.7840  -47.8192 H         1 UNK         0.0600 
    220 H220       -7.6231  -26.4093  -50.9181 H         1 UNK         0.3000 
    221 H221      -10.0777  -25.8352  -52.3884 H         1 UNK         0.0600 
    222 H222       -7.7133  -27.6362  -53.1148 H         1 UNK         0.0600 
    223 H223       -9.1061  -28.1437  -52.1587 H         1 UNK         0.0600 
    224 H224       -9.3156  -27.6572  -53.8343 H         1 UNK         0.0600 
    225 H225       -6.9088  -24.4656  -52.3901 H         1 UNK         0.3000 
    226 H226       -7.4476  -22.8856  -54.7835 H         1 UNK         0.0600 
    227 H227       -6.4810  -24.8380  -55.8914 H         1 UNK         0.0600 
    228 H228       -5.2677  -23.5729  -55.8869 H         1 UNK         0.0600 
    229 H229       -5.1456  -24.9197  -54.7528 H         1 UNK         0.0600 
    230 H230       -4.2568  -23.5304  -53.6403 H         1 UNK         0.3000 
    231 H231       -2.7105  -22.4950  -52.4543 H         1 UNK         0.0600 
    232 H232       -3.0646  -20.6536  -50.9000 H         1 UNK         0.0600 
    233 H233       -4.3450  -21.8325  -50.6669 H         1 UNK         0.0600 
    234 H234       -4.6645  -20.3318  -51.5326 H         1 UNK         0.0600 
    235 H235       -1.1058  -21.3484  -53.3492 H         1 UNK         0.3000 
    236 H236       -1.5867  -19.9802  -55.8590 H         1 UNK         0.0600 
    237 H237        0.8883  -20.1082  -56.0280 H         1 UNK         0.0600 
    238 H238        0.9954  -20.6800  -54.3672 H         1 UNK         0.0600 
    239 H239        0.2073  -21.6670  -55.5976 H         1 UNK         0.0600 
    240 H240       -2.8511  -18.3185  -54.3550 H         1 UNK         0.3000 
    241 H241       -1.2557  -16.3065  -53.0620 H         1 UNK         0.0600 
    242 H242       -1.7268  -16.6514  -56.4502 H         1 UNK         0.3800 
    243 H243       -1.3906  -14.9884  -56.8554 H         1 UNK         0.3800 
    244 H244       -3.3425  -15.1274  -52.6232 H         1 UNK         0.0800 
    245 H245       -4.1846  -16.0318  -53.8526 H         1 UNK         0.0800 
    246 H246       -3.5131  -15.7026  -50.1680 H         1 UNK         0.0800 
    247 H247       -3.5230  -17.3223  -49.5135 H         1 UNK         0.0800 
@<TRIPOS>BOND
     1    1    2 1    
     2    1  127 1    
     3    1  128 1    
     4    1  129 1    
     5    2    3 2    
     6    2    4 am   BACKBONE|DICT|INTERRES
     7    4    5 1    
     8    4  130 1    
     9    5    6 1    
    10    5   65 1    
    11    5  131 1    
    12    6    7 1    
    13    6  132 1    
    14    6  133 1    
    15    7    8 1    
    16    8    9 1    
    17    8  134 1    
    18    8  135 1    
    19    9   10 ar   
    20    9   14 ar   
    21   10   11 ar   
    22   10  136 1    
    23   11   12 ar   
    24   11  126 1    
    25   12   13 ar   
    26   12  137 1    
    27   13   14 ar   
    28   13   15 1    
    29   14  138 1    
    30   15   16 1    
    31   15  139 1    
    32   15  140 1    
    33   16   17 1    
    34   17   18 1    
    35   17  141 1    
    36   17  142 1    
    37   18   19 1    
    38   18   67 1    
    39   18  143 1    
    40   19   20 am   BACKBONE|DICT|INTERRES
    41   19  144 1    
    42   20   21 2    
    43   20   22 1    
    44   22   23 1    
    45   22   24 1    
    46   22  145 1    
    47   23  146 1    
    48   23  147 1    
    49   23  148 1    
    50   24   25 am   BACKBONE|DICT|INTERRES
    51   24  149 1    
    52   25   26 2    
    53   25   27 1    
    54   27   28 1    
    55   27   29 1    
    56   27  150 1    
    57   28  151 1    
    58   28  152 1    
    59   28  153 1    
    60   29   30 am   BACKBONE|DICT|INTERRES
    61   29  154 1    
    62   30   31 2    
    63   30   32 1    
    64   32   33 1    
    65   32   34 1    
    66   32  155 1    
    67   33  156 1    
    68   33  157 1    
    69   33  158 1    
    70   34   35 am   BACKBONE|DICT|INTERRES
    71   34  159 1    
    72   35   36 2    
    73   35   37 1    
    74   37   38 1    
    75   37   39 1    
    76   37  160 1    
    77   38  161 1    
    78   38  162 1    
    79   38  163 1    
    80   39   40 am   BACKBONE|DICT|INTERRES
    81   39  164 1    
    82   40   41 2    
    83   40   42 1    
    84   42   43 1    
    85   42   44 1    
    86   42  165 1    
    87   43  166 1    
    88   43  167 1    
    89   43  168 1    
    90   44   45 am   BACKBONE|DICT|INTERRES
    91   44  169 1    
    92   45   46 2    
    93   45   47 1    
    94   47   48 1    
    95   47   49 1    
    96   47  170 1    
    97   48  171 1    
    98   48  172 1    
    99   48  173 1    
   100   49   50 am   BACKBONE|DICT|INTERRES
   101   49  174 1    
   102   50   51 2    
   103   50   52 1    
   104   52   53 1    
   105   52   54 1    
   106   52  175 1    
   107   53  176 1    
   108   53  177 1    
   109   53  178 1    
   110   54   55 am   BACKBONE|DICT|INTERRES
   111   54  179 1    
   112   55   56 2    
   113   55   57 1    
   114   57   58 1    
   115   57   59 1    
   116   57  180 1    
   117   58  181 1    
   118   58  182 1    
   119   58  183 1    
   120   59   60 am   BACKBONE|DICT|INTERRES
   121   59  184 1    
   122   60   61 2    
   123   60   62 1    
   124   62   63 1    
   125   62   64 1    
   126   62  185 1    
   127   63  186 1    
   128   63  187 1    
   129   63  188 1    
   130   64   65 am   BACKBONE|DICT|INTERRES
   131   64  189 1    
   132   65   66 2    
   133   67   68 2    
   134   67   69 am   BACKBONE|DICT|INTERRES
   135   69   70 1    
   136   69  190 1    
   137   70   71 1    
   138   70   72 1    
   139   70  191 1    
   140   71  192 1    
   141   71  193 1    
   142   71  194 1    
   143   72   73 2    
   144   72   74 am   BACKBONE|DICT|INTERRES
   145   74   75 1    
   146   74  195 1    
   147   75   76 1    
   148   75   77 1    
   149   75  196 1    
   150   76  197 1    
   151   76  198 1    
   152   76  199 1    
   153   77   78 2    
   154   77   79 am   BACKBONE|DICT|INTERRES
   155   79   80 1    
   156   79  200 1    
   157   80   81 1    
   158   80   82 1    
   159   80  201 1    
   160   81  202 1    
   161   81  203 1    
   162   81  204 1    
   163   82   83 2    
   164   82   84 am   BACKBONE|DICT|INTERRES
   165   84   85 1    
   166   84  205 1    
   167   85   86 1    
   168   85   87 1    
   169   85  206 1    
   170   86  207 1    
   171   86  208 1    
   172   86  209 1    
   173   87   88 2    
   174   87   89 am   BACKBONE|DICT|INTERRES
   175   89   90 1    
   176   89  210 1    
   177   90   91 1    
   178   90   92 1    
   179   90  211 1    
   180   91  212 1    
   181   91  213 1    
   182   91  214 1    
   183   92   93 2    
   184   92   94 am   BACKBONE|DICT|INTERRES
   185   94   95 1    
   186   94  215 1    
   187   95   96 1    
   188   95   97 1    
   189   95  216 1    
   190   96  217 1    
   191   96  218 1    
   192   96  219 1    
   193   97   98 2    
   194   97   99 am   BACKBONE|DICT|INTERRES
   195   99  100 1    
   196   99  220 1    
   197  100  101 1    
   198  100  102 1    
   199  100  221 1    
   200  101  222 1    
   201  101  223 1    
   202  101  224 1    
   203  102  103 2    
   204  102  104 am   BACKBONE|DICT|INTERRES
   205  104  105 1    
   206  104  225 1    
   207  105  106 1    
   208  105  107 1    
   209  105  226 1    
   210  106  227 1    
   211  106  228 1    
   212  106  229 1    
   213  107  108 2    
   214  107  109 am   BACKBONE|DICT|INTERRES
   215  109  110 1    
   216  109  230 1    
   217  110  111 1    
   218  110  112 1    
   219  110  231 1    
   220  111  232 1    
   221  111  233 1    
   222  111  234 1    
   223  112  113 2    
   224  112  114 am   BACKBONE|DICT|INTERRES
   225  114  115 1    
   226  114  235 1    
   227  115  116 1    
   228  115  117 1    
   229  115  236 1    
   230  116  237 1    
   231  116  238 1    
   232  116  239 1    
   233  117  118 2    
   234  117  119 am   BACKBONE|DICT|INTERRES
   235  119  120 1    
   236  119  240 1    
   237  120  121 1    
   238  120  124 1    
   239  120  241 1    
   240  121  122 am   BACKBONE|DICT|INTERRES
   241  121  123 2    
   242  122  242 1    
   243  122  243 1    
   244  124  125 1    
   245  124  244 1    
   246  124  245 1    
   247  125  126 1    
   248  126  246 1    
   249  126  247 1    
@<TRIPOS>SUBSTRUCTURE
     1 UNK         1 GROUP             0       ****    0 ROOT    
