@<TRIPOS>MOLECULE
3R540
247   249    1
SMALL
USER_CHARGES


@<TRIPOS>ATOM
      1 CA         -1.1716   -9.9955  -51.7108 C.3       0 UNK        -0.1800 
      2 C          -0.3021  -11.0045  -50.9740 C.2       0 UNK         0.5000 
      3 O           0.7809  -10.6529  -50.5064 O.2       0 UNK        -0.5000 
      4 N          -0.7708  -12.2559  -50.8720 N.am      1 UNK        -0.5000 
      5 CA         -0.0838  -13.3574  -50.1849 C.3       1 UNK         0.1400 
      6 C6         -0.6930  -14.7253  -50.5978 C.3       23 UNK        -0.0398 
      7 S7          0.2273  -16.2218  -50.0867 S.3       23 UNK        -0.2404 
      8 C8          1.9098  -15.8644  -50.6836 C.3       23 UNK        -0.0205 
      9 C9          2.7073  -17.1332  -50.9469 C.ar      23 UNK        -0.0193 
     10 C10         3.0670  -17.4736  -52.2531 C.ar      23 UNK        -0.1150 
     11 C11         3.8131  -18.6261  -52.5081 C.ar      23 UNK        -0.0193 
     12 C12         4.2207  -19.4311  -51.4412 C.ar      23 UNK        -0.1150 
     13 C13         3.8546  -19.1144  -50.1282 C.ar      23 UNK        -0.0193 
     14 C14         3.1027  -17.9588  -49.8905 C.ar      23 UNK        -0.1150 
     15 C15         4.2751  -20.0082  -48.9638 C.3       23 UNK        -0.0205 
     16 S16         3.9196  -21.7760  -49.2512 S.3       23 UNK        -0.2404 
     17 C17         2.0994  -21.7624  -49.3689 C.3       23 UNK        -0.0398 
     18 CA          1.4191  -22.7161  -48.3557 C.3       11 UNK         0.1400 
     19 N           1.7572  -22.4087  -46.9674 N.am      11 UNK        -0.5000 
     20 C           2.0046  -23.3266  -46.0238 C.2       10 UNK         0.5000 
     21 O           2.1219  -24.5315  -46.2509 O.2       10 UNK        -0.5000 
     22 CA          2.1062  -22.8254  -44.5669 C.3       10 UNK         0.1400 
     23 CB          3.5703  -22.5393  -44.2006 C.3       10 UNK        -0.1800 
     24 N           1.3071  -21.6303  -44.2862 N.am      10 UNK        -0.5000 
     25 C          -0.0089  -21.4972  -44.5088 C.2       9 UNK         0.5000 
     26 O          -0.7301  -22.4010  -44.9252 O.2       9 UNK        -0.5000 
     27 CA         -0.6092  -20.0984  -44.2990 C.3       9 UNK         0.1400 
     28 CB         -1.0968  -19.9540  -42.8503 C.3       9 UNK        -0.1800 
     29 N           0.3202  -19.0119  -44.6198 N.am      9 UNK        -0.5000 
     30 C           0.9571  -18.8230  -45.7864 C.2       8 UNK         0.5000 
     31 O           0.8376  -19.5612  -46.7656 O.2       8 UNK        -0.5000 
     32 CA          1.9392  -17.6444  -45.8455 C.3       8 UNK         0.1400 
     33 CB          1.2012  -16.3204  -46.0698 C.3       8 UNK        -0.1800 
     34 N           2.7285  -17.5602  -44.6202 N.am      8 UNK        -0.5000 
     35 C           3.8673  -18.2335  -44.4114 C.2       7 UNK         0.5000 
     36 O           4.4043  -18.9485  -45.2575 O.2       7 UNK        -0.5000 
     37 CA          4.5156  -18.0929  -43.0206 C.3       7 UNK         0.1400 
     38 CB          5.5496  -16.9569  -43.0223 C.3       7 UNK        -0.1800 
     39 N           3.5459  -17.8540  -41.9498 N.am      7 UNK        -0.5000 
     40 C           2.6499  -18.7540  -41.5229 C.2       6 UNK         0.5000 
     41 O           2.5476  -19.8912  -41.9843 O.2       6 UNK        -0.5000 
     42 CA          1.6790  -18.2868  -40.4205 C.3       6 UNK         0.1400 
     43 CB          2.3129  -18.4751  -39.0340 C.3       6 UNK        -0.1800 
     44 N           1.2173  -16.8992  -40.5570 N.am      6 UNK        -0.5000 
     45 C           0.5959  -16.3937  -41.6310 C.2       5 UNK         0.5000 
     46 O           0.4586  -17.0041  -42.6915 O.2       5 UNK        -0.5000 
     47 CA          0.0710  -14.9539  -41.5230 C.3       5 UNK         0.1400 
     48 CB          1.0502  -13.9797  -42.1955 C.3       5 UNK        -0.1800 
     49 N          -1.2402  -14.8414  -42.1623 N.am      5 UNK        -0.5000 
     50 C          -2.3830  -15.2992  -41.6281 C.2       4 UNK         0.5000 
     51 O          -2.4538  -15.7862  -40.4986 O.2       4 UNK        -0.5000 
     52 CA         -3.6692  -15.1914  -42.4754 C.3       4 UNK         0.1400 
     53 CB         -4.4662  -13.9378  -42.0832 C.3       4 UNK        -0.1800 
     54 N          -3.4128  -15.1555  -43.9144 N.am      4 UNK        -0.5000 
     55 C          -3.0148  -16.2041  -44.6456 C.2       3 UNK         0.5000 
     56 O          -2.9585  -17.3519  -44.2071 O.2       3 UNK        -0.5000 
     57 CA         -2.6121  -15.9442  -46.1135 C.3       3 UNK         0.1400 
     58 CB         -3.6579  -16.5393  -47.0692 C.3       3 UNK        -0.1800 
     59 N          -2.3831  -14.5445  -46.4972 N.am      3 UNK        -0.5000 
     60 C          -1.5383  -13.6672  -45.9338 C.2       2 UNK         0.5000 
     61 O          -0.9113  -13.8831  -44.8972 O.2       2 UNK        -0.5000 
     62 CA         -1.3829  -12.3260  -46.6792 C.3       2 UNK         0.1400 
     63 CB         -0.3282  -11.3949  -46.0445 C.3       2 UNK        -0.1800 
     64 N          -1.1197  -12.5329  -48.1090 N.am      2 UNK        -0.5000 
     65 C          -0.0683  -13.1719  -48.6511 C.2       1 UNK         0.5000 
     66 O           0.8896  -13.5958  -48.0054 O.2       1 UNK        -0.5000 
     67 C          -0.1103  -22.6620  -48.5187 C.2       11 UNK         0.5000 
     68 O          -0.7193  -23.6457  -48.9403 O.2       11 UNK        -0.5000 
     69 N          -0.6973  -21.5067  -48.1741 N.am      12 UNK        -0.5000 
     70 CA         -2.0607  -21.1071  -48.5183 C.3       12 UNK         0.1400 
     71 CB         -2.2512  -19.6344  -48.1306 C.3       12 UNK        -0.1800 
     72 C          -3.1798  -21.9884  -47.9360 C.2       12 UNK         0.5000 
     73 O          -4.2622  -22.0415  -48.5224 O.2       12 UNK        -0.5000 
     74 N          -2.9181  -22.7026  -46.8305 N.am      13 UNK        -0.5000 
     75 CA         -3.8514  -23.6580  -46.2223 C.3       13 UNK         0.1400 
     76 CB         -3.2700  -24.1995  -44.9091 C.3       13 UNK        -0.1800 
     77 C          -4.2489  -24.8219  -47.1519 C.2       13 UNK         0.5000 
     78 O          -5.3437  -25.3631  -46.9952 O.2       13 UNK        -0.5000 
     79 N          -3.4026  -25.1450  -48.1423 N.am      14 UNK        -0.5000 
     80 CA         -3.6982  -26.1171  -49.1987 C.3       14 UNK         0.1400 
     81 CB         -2.4074  -26.4413  -49.9645 C.3       14 UNK        -0.1800 
     82 C          -4.8220  -25.6682  -50.1602 C.2       14 UNK         0.5000 
     83 O          -5.4157  -26.5201  -50.8221 O.2       14 UNK        -0.5000 
     84 N          -5.1204  -24.3615  -50.1944 N.am      15 UNK        -0.5000 
     85 CA         -6.2652  -23.7666  -50.8862 C.3       15 UNK         0.1400 
     86 CB         -5.7599  -22.7598  -51.9341 C.3       15 UNK        -0.1800 
     87 C          -7.2291  -23.1067  -49.8795 C.2       15 UNK         0.5000 
     88 O          -7.9581  -22.1868  -50.2506 O.2       15 UNK        -0.5000 
     89 N          -7.2025  -23.5572  -48.6138 N.am      16 UNK        -0.5000 
     90 CA         -8.0281  -23.0958  -47.4891 C.3       16 UNK         0.1400 
     91 CB         -9.4907  -23.5450  -47.6864 C.3       16 UNK        -0.1800 
     92 C          -7.9062  -21.5821  -47.1980 C.2       16 UNK         0.5000 
     93 O          -8.8691  -20.9655  -46.7396 O.2       16 UNK        -0.5000 
     94 N          -6.7280  -21.0120  -47.4929 N.am      17 UNK        -0.5000 
     95 CA         -6.3664  -19.5936  -47.4098 C.3       17 UNK         0.1400 
     96 CB         -6.4645  -19.0707  -45.9609 C.3       17 UNK        -0.1800 
     97 C          -7.0937  -18.6868  -48.4279 C.2       17 UNK         0.5000 
     98 O          -7.0060  -17.4639  -48.3099 O.2       17 UNK        -0.5000 
     99 N          -7.7707  -19.2757  -49.4259 N.am      18 UNK        -0.5000 
    100 CA        -8.4555  -18.5484  -50.4986 C.3       18 UNK         0.1400 
    101 CB        -9.6135  -19.4069  -51.0309 C.3       18 UNK        -0.1800 
    102 C         -7.5075  -18.1507  -51.6473 C.2       18 UNK         0.5000 
    103 O         -7.8614  -17.2849  -52.4489 O.2       18 UNK        -0.5000 
    104 N         -6.3296  -18.7802  -51.7124 N.am      19 UNK        -0.5000 
    105 CA        -5.2725  -18.5344  -52.6855 C.3       19 UNK         0.1400 
    106 CB        -5.5513  -19.3369  -53.9697 C.3       19 UNK        -0.1800 
    107 C         -3.9291  -18.9336  -52.0587 C.2       19 UNK         0.5000 
    108 O         -3.9132  -19.5857  -51.0128 O.2       19 UNK        -0.5000 
    109 N         -2.8285  -18.5486  -52.7179 N.am      20 UNK        -0.5000 
    110 CA        -1.4539  -18.8420  -52.2979 C.3       20 UNK         0.1400 
    111 CB        -0.4849  -18.0495  -53.1870 C.3       20 UNK        -0.1800 
    112 C         -1.0941  -20.3392  -52.3361 C.2       20 UNK         0.5000 
    113 O         -0.2491  -20.7774  -51.5582 O.2       20 UNK        -0.5000 
    114 N         -1.7370  -21.0846  -53.2479 N.am      21 UNK        -0.5000 
    115 CA        -1.6854  -22.5415  -53.4405 C.3       21 UNK         0.1400 
    116 CB        -2.1233  -23.2665  -52.1545 C.3       21 UNK        -0.1800 
    117 C         -0.3424  -23.1097  -53.9525 C.2       21 UNK         0.5000 
    118 O         -0.2841  -24.3000  -54.2657 O.2       21 UNK        -0.5000 
    119 N          0.7047  -22.2817  -54.0306 N.am      22 UNK        -0.5000 
    120 CA         2.0432  -22.6440  -54.5128 C.3       22 UNK         0.1400 
    121 C          2.1063  -22.9570  -56.0374 C.2       22 UNK         0.5000 
    122 N          3.1211  -23.6877  -56.4807 N.am      22 UNK        -0.7600 
    123 O          1.2647  -22.5313  -56.8265 O.2       22 UNK        -0.5000 
    124 C124        3.0968  -21.5943  -54.0745 C.3       23 UNK        -0.0398 
    125 S125        2.8201  -19.9159  -54.7437 S.3       23 UNK        -0.2404 
    126 C126        4.1692  -18.9959  -53.9390 C.3       23 UNK        -0.0205 
    127 H127       -1.4324   -9.1705  -51.0479 H         1 UNK         0.0600 
    128 H128       -2.0961  -10.4446  -52.0745 H         1 UNK         0.0600 
    129 H129       -0.6319   -9.5892  -52.5663 H         1 UNK         0.0600 
    130 H130       -1.6626  -12.4807  -51.2904 H         1 UNK         0.3000 
    131 H131        0.9550  -13.3276  -50.5165 H         1 UNK         0.0600 
    132 H132       -0.7771  -14.7689  -51.6846 H         1 UNK         0.0800 
    133 H133       -1.7133  -14.8159  -50.2215 H         1 UNK         0.0800 
    134 H134        1.8513  -15.2679  -51.5952 H         1 UNK         0.0800 
    135 H135        2.4321  -15.2559  -49.9439 H         1 UNK         0.0800 
    136 H136        2.7570  -16.8475  -53.0781 H         1 UNK         0.1150 
    137 H137        4.8069  -20.3184  -51.6342 H         1 UNK         0.1150 
    138 H138        2.8166  -17.6954  -48.8844 H         1 UNK         0.1150 
    139 H139        5.3461  -19.8864  -48.7986 H         1 UNK         0.0800 
    140 H140        3.7835  -19.7003  -48.0391 H         1 UNK         0.0800 
    141 H141        1.8366  -22.0482  -50.3890 H         1 UNK         0.0800 
    142 H142        1.7359  -20.7407  -49.2436 H         1 UNK         0.0800 
    143 H143        1.7382  -23.7313  -48.6011 H         1 UNK         0.0600 
    144 H144        1.6463  -21.4411  -46.6877 H         1 UNK         0.3000 
    145 H145        1.7370  -23.6229  -43.9194 H         1 UNK         0.0600 
    146 H146        4.1949  -23.4177  -44.3675 H         1 UNK         0.0600 
    147 H147        3.9807  -21.7251  -44.7995 H         1 UNK         0.0600 
    148 H148        3.6690  -22.2651  -43.1500 H         1 UNK         0.0600 
    149 H149        1.8018  -20.8415  -43.8884 H         1 UNK         0.3000 
    150 H150       -1.4713  -19.9987  -44.9586 H         1 UNK         0.0600 
    151 H151       -1.5156  -18.9656  -42.6636 H         1 UNK         0.0600 
    152 H152       -0.2871  -20.1149  -42.1398 H         1 UNK         0.0600 
    153 H153       -1.8760  -20.6842  -42.6290 H         1 UNK         0.0600 
    154 H154        0.4507  -18.3173  -43.8858 H         1 UNK         0.3000 
    155 H155        2.6079  -17.8040  -46.6911 H         1 UNK         0.0600 
    156 H156        0.6261  -16.3450  -46.9958 H         1 UNK         0.0600 
    157 H157        1.8992  -15.4868  -46.1465 H         1 UNK         0.0600 
    158 H158        0.5120  -16.1017  -45.2547 H         1 UNK         0.0600 
    159 H159        2.3128  -17.0515  -43.8510 H         1 UNK         0.3000 
    160 H160        5.0357  -19.0287  -42.8045 H         1 UNK         0.0600 
    161 H161        6.3033  -17.1164  -43.7946 H         1 UNK         0.0600 
    162 H162        6.0724  -16.8974  -42.0675 H         1 UNK         0.0600 
    163 H163        5.0842  -15.9890  -43.2127 H         1 UNK         0.0600 
    164 H164        3.5533  -16.9408  -41.5199 H         1 UNK         0.3000 
    165 H165        0.7959  -18.9251  -40.4718 H         1 UNK         0.0600 
    166 H166        1.5980  -18.2581  -38.2400 H         1 UNK         0.0600 
    167 H167        2.6484  -19.5036  -38.8939 H         1 UNK         0.0600 
    168 H168        3.1780  -17.8256  -38.8947 H         1 UNK         0.0600 
    169 H169        1.3081  -16.3204  -39.7345 H         1 UNK         0.3000 
    170 H170       -0.0252  -14.6802  -40.4703 H         1 UNK         0.0600 
    171 H171        0.6788  -12.9556  -42.1549 H         1 UNK         0.0600 
    172 H172        2.0206  -13.9953  -41.6982 H         1 UNK         0.0600 
    173 H173        1.2152  -14.2331  -43.2438 H         1 UNK         0.0600 
    174 H174       -1.2389  -14.5072  -43.1226 H         1 UNK         0.3000 
    175 H175       -4.2826  -16.0680  -42.2564 H         1 UNK         0.0600 
    176 H176       -3.9074  -13.0245  -42.2912 H         1 UNK         0.0600 
    177 H177       -5.4112  -13.8854  -42.6243 H         1 UNK         0.0600 
    178 H178       -4.7028  -13.9427  -41.0183 H         1 UNK         0.0600 
    179 H179       -3.4231  -14.2481  -44.3550 H         1 UNK         0.3000 
    180 H180       -1.6763  -16.4805  -46.2729 H         1 UNK         0.0600 
    181 H181       -3.3096  -16.5180  -48.1022 H         1 UNK         0.0600 
    182 H182       -4.6038  -15.9984  -47.0195 H         1 UNK         0.0600 
    183 H183       -3.8664  -17.5798  -46.8219 H         1 UNK         0.0600 
    184 H184       -2.8598  -14.2482  -47.3357 H         1 UNK         0.3000 
    185 H185       -2.3475  -11.8211  -46.6097 H         1 UNK         0.0600 
    186 H186        0.6597  -11.8553  -46.0153 H         1 UNK         0.0600 
    187 H187       -0.2456  -10.4588  -46.5967 H         1 UNK         0.0600 
    188 H188       -0.5988  -11.1448  -45.0180 H         1 UNK         0.0600 
    189 H189       -1.8337  -12.1950  -48.7386 H         1 UNK         0.3000 
    190 H190       -0.1196  -20.7737  -47.7698 H         1 UNK         0.3000 
    191 H191       -2.1460  -21.1799  -49.6035 H         1 UNK         0.0600 
    192 H192       -2.2260  -19.4913  -47.0515 H         1 UNK         0.0600 
    193 H193       -3.2061  -19.2583  -48.4934 H         1 UNK         0.0600 
    194 H194       -1.4766  -19.0059  -48.5714 H         1 UNK         0.0600 
    195 H195       -2.0112  -22.6103  -46.3807 H         1 UNK         0.3000 
    196 H196       -4.7667  -23.1123  -45.9842 H         1 UNK         0.0600 
    197 H197       -3.9442  -24.9229  -44.4486 H         1 UNK         0.0600 
    198 H198       -3.1176  -23.3979  -44.1865 H         1 UNK         0.0600 
    199 H199       -2.3127  -24.6970  -45.0695 H         1 UNK         0.0600 
    200 H200       -2.5288  -24.6364  -48.2270 H         1 UNK         0.3000 
    201 H201       -4.0401  -27.0365  -48.7189 H         1 UNK         0.0600 
    202 H202       -1.6569  -26.8742  -49.3030 H         1 UNK         0.0600 
    203 H203       -1.9742  -25.5514  -50.4181 H         1 UNK         0.0600 
    204 H204       -2.5924  -27.1617  -50.7623 H         1 UNK         0.0600 
    205 H205       -4.5949  -23.7218  -49.6071 H         1 UNK         0.3000 
    206 H206       -6.8423  -24.5334  -51.4060 H         1 UNK         0.0600 
    207 H207       -6.5878  -22.3223  -52.4931 H         1 UNK         0.0600 
    208 H208       -5.2097  -21.9423  -51.4677 H         1 UNK         0.0600 
    209 H209       -5.1053  -23.2419  -52.6595 H         1 UNK         0.0600 
    210 H210       -6.5572  -24.3053  -48.3888 H         1 UNK         0.3000 
    211 H211       -7.6441  -23.6028  -46.6029 H         1 UNK         0.0600 
    212 H212       -9.9602  -23.0323  -48.5266 H         1 UNK         0.0600 
    213 H213      -10.0897  -23.3366  -46.7992 H         1 UNK         0.0600 
    214 H214       -9.5519  -24.6174  -47.8712 H         1 UNK         0.0600 
    215 H215       -6.0025  -21.5995  -47.8965 H         1 UNK         0.3000 
    216 H216       -5.3160  -19.5501  -47.6917 H         1 UNK         0.0600 
    217 H217       -6.0593  -18.0622  -45.8761 H         1 UNK         0.0600 
    218 H218       -5.8987  -19.7022  -45.2759 H         1 UNK         0.0600 
    219 H219       -7.4956  -19.0313  -45.6101 H         1 UNK         0.0600 
    220 H220       -7.8016  -20.2890  -49.4803 H         1 UNK         0.3000 
    221 H221       -8.8823  -17.6303  -50.0895 H         1 UNK         0.0600 
    222 H222       -9.2528  -20.2999  -51.5418 H         1 UNK         0.0600 
    223 H223      -10.2754  -19.7243  -50.2248 H         1 UNK         0.0600 
    224 H224      -10.2162  -18.8455  -51.7457 H         1 UNK         0.0600 
    225 H225       -6.0764  -19.4372  -50.9852 H         1 UNK         0.3000 
    226 H226       -5.2345  -17.4680  -52.9171 H         1 UNK         0.0600 
    227 H227       -6.5149  -19.0685  -54.4028 H         1 UNK         0.0600 
    228 H228       -4.7934  -19.1440  -54.7295 H         1 UNK         0.0600 
    229 H229       -5.5593  -20.4102  -53.7785 H         1 UNK         0.0600 
    230 H230       -2.9306  -18.0112  -53.5666 H         1 UNK         0.3000 
    231 H231       -1.3361  -18.5067  -51.2657 H         1 UNK         0.0600 
    232 H232       -0.5981  -18.3065  -54.2408 H         1 UNK         0.0600 
    233 H233       -0.6363  -16.9755  -53.0817 H         1 UNK         0.0600 
    234 H234        0.5474  -18.2605  -52.9109 H         1 UNK         0.0600 
    235 H235       -2.3799  -20.5996  -53.8569 H         1 UNK         0.3000 
    236 H236       -2.4263  -22.7587  -54.2111 H         1 UNK         0.0600 
    237 H237       -1.3085  -23.3146  -51.4337 H         1 UNK         0.0600 
    238 H238       -2.9584  -22.7657  -51.6681 H         1 UNK         0.0600 
    239 H239       -2.4310  -24.2891  -52.3736 H         1 UNK         0.0600 
    240 H240        0.5800  -21.3219  -53.7448 H         1 UNK         0.3000 
    241 H241        2.3015  -23.5758  -54.0057 H         1 UNK         0.0600 
    242 H242        3.1812  -23.8918  -57.4664 H         1 UNK         0.3800 
    243 H243        3.8266  -24.0524  -55.8592 H         1 UNK         0.3800 
    244 H244        3.0994  -21.5332  -52.9857 H         1 UNK         0.0800 
    245 H245        4.0991  -21.9213  -54.3552 H         1 UNK         0.0800 
    246 H246        4.3656  -18.0884  -54.5118 H         1 UNK         0.0800 
    247 H247        5.0907  -19.5793  -53.9704 H         1 UNK         0.0800 
@<TRIPOS>BOND
     1    1    2 1    
     2    1  127 1    
     3    1  128 1    
     4    1  129 1    
     5    2    3 2    
     6    2    4 am   BACKBONE|DICT|INTERRES
     7    4    5 1    
     8    4  130 1    
     9    5    6 1    
    10    5   65 1    
    11    5  131 1    
    12    6    7 1    
    13    6  132 1    
    14    6  133 1    
    15    7    8 1    
    16    8    9 1    
    17    8  134 1    
    18    8  135 1    
    19    9   10 ar   
    20    9   14 ar   
    21   10   11 ar   
    22   10  136 1    
    23   11   12 ar   
    24   11  126 1    
    25   12   13 ar   
    26   12  137 1    
    27   13   14 ar   
    28   13   15 1    
    29   14  138 1    
    30   15   16 1    
    31   15  139 1    
    32   15  140 1    
    33   16   17 1    
    34   17   18 1    
    35   17  141 1    
    36   17  142 1    
    37   18   19 1    
    38   18   67 1    
    39   18  143 1    
    40   19   20 am   BACKBONE|DICT|INTERRES
    41   19  144 1    
    42   20   21 2    
    43   20   22 1    
    44   22   23 1    
    45   22   24 1    
    46   22  145 1    
    47   23  146 1    
    48   23  147 1    
    49   23  148 1    
    50   24   25 am   BACKBONE|DICT|INTERRES
    51   24  149 1    
    52   25   26 2    
    53   25   27 1    
    54   27   28 1    
    55   27   29 1    
    56   27  150 1    
    57   28  151 1    
    58   28  152 1    
    59   28  153 1    
    60   29   30 am   BACKBONE|DICT|INTERRES
    61   29  154 1    
    62   30   31 2    
    63   30   32 1    
    64   32   33 1    
    65   32   34 1    
    66   32  155 1    
    67   33  156 1    
    68   33  157 1    
    69   33  158 1    
    70   34   35 am   BACKBONE|DICT|INTERRES
    71   34  159 1    
    72   35   36 2    
    73   35   37 1    
    74   37   38 1    
    75   37   39 1    
    76   37  160 1    
    77   38  161 1    
    78   38  162 1    
    79   38  163 1    
    80   39   40 am   BACKBONE|DICT|INTERRES
    81   39  164 1    
    82   40   41 2    
    83   40   42 1    
    84   42   43 1    
    85   42   44 1    
    86   42  165 1    
    87   43  166 1    
    88   43  167 1    
    89   43  168 1    
    90   44   45 am   BACKBONE|DICT|INTERRES
    91   44  169 1    
    92   45   46 2    
    93   45   47 1    
    94   47   48 1    
    95   47   49 1    
    96   47  170 1    
    97   48  171 1    
    98   48  172 1    
    99   48  173 1    
   100   49   50 am   BACKBONE|DICT|INTERRES
   101   49  174 1    
   102   50   51 2    
   103   50   52 1    
   104   52   53 1    
   105   52   54 1    
   106   52  175 1    
   107   53  176 1    
   108   53  177 1    
   109   53  178 1    
   110   54   55 am   BACKBONE|DICT|INTERRES
   111   54  179 1    
   112   55   56 2    
   113   55   57 1    
   114   57   58 1    
   115   57   59 1    
   116   57  180 1    
   117   58  181 1    
   118   58  182 1    
   119   58  183 1    
   120   59   60 am   BACKBONE|DICT|INTERRES
   121   59  184 1    
   122   60   61 2    
   123   60   62 1    
   124   62   63 1    
   125   62   64 1    
   126   62  185 1    
   127   63  186 1    
   128   63  187 1    
   129   63  188 1    
   130   64   65 am   BACKBONE|DICT|INTERRES
   131   64  189 1    
   132   65   66 2    
   133   67   68 2    
   134   67   69 am   BACKBONE|DICT|INTERRES
   135   69   70 1    
   136   69  190 1    
   137   70   71 1    
   138   70   72 1    
   139   70  191 1    
   140   71  192 1    
   141   71  193 1    
   142   71  194 1    
   143   72   73 2    
   144   72   74 am   BACKBONE|DICT|INTERRES
   145   74   75 1    
   146   74  195 1    
   147   75   76 1    
   148   75   77 1    
   149   75  196 1    
   150   76  197 1    
   151   76  198 1    
   152   76  199 1    
   153   77   78 2    
   154   77   79 am   BACKBONE|DICT|INTERRES
   155   79   80 1    
   156   79  200 1    
   157   80   81 1    
   158   80   82 1    
   159   80  201 1    
   160   81  202 1    
   161   81  203 1    
   162   81  204 1    
   163   82   83 2    
   164   82   84 am   BACKBONE|DICT|INTERRES
   165   84   85 1    
   166   84  205 1    
   167   85   86 1    
   168   85   87 1    
   169   85  206 1    
   170   86  207 1    
   171   86  208 1    
   172   86  209 1    
   173   87   88 2    
   174   87   89 am   BACKBONE|DICT|INTERRES
   175   89   90 1    
   176   89  210 1    
   177   90   91 1    
   178   90   92 1    
   179   90  211 1    
   180   91  212 1    
   181   91  213 1    
   182   91  214 1    
   183   92   93 2    
   184   92   94 am   BACKBONE|DICT|INTERRES
   185   94   95 1    
   186   94  215 1    
   187   95   96 1    
   188   95   97 1    
   189   95  216 1    
   190   96  217 1    
   191   96  218 1    
   192   96  219 1    
   193   97   98 2    
   194   97   99 am   BACKBONE|DICT|INTERRES
   195   99  100 1    
   196   99  220 1    
   197  100  101 1    
   198  100  102 1    
   199  100  221 1    
   200  101  222 1    
   201  101  223 1    
   202  101  224 1    
   203  102  103 2    
   204  102  104 am   BACKBONE|DICT|INTERRES
   205  104  105 1    
   206  104  225 1    
   207  105  106 1    
   208  105  107 1    
   209  105  226 1    
   210  106  227 1    
   211  106  228 1    
   212  106  229 1    
   213  107  108 2    
   214  107  109 am   BACKBONE|DICT|INTERRES
   215  109  110 1    
   216  109  230 1    
   217  110  111 1    
   218  110  112 1    
   219  110  231 1    
   220  111  232 1    
   221  111  233 1    
   222  111  234 1    
   223  112  113 2    
   224  112  114 am   BACKBONE|DICT|INTERRES
   225  114  115 1    
   226  114  235 1    
   227  115  116 1    
   228  115  117 1    
   229  115  236 1    
   230  116  237 1    
   231  116  238 1    
   232  116  239 1    
   233  117  118 2    
   234  117  119 am   BACKBONE|DICT|INTERRES
   235  119  120 1    
   236  119  240 1    
   237  120  121 1    
   238  120  124 1    
   239  120  241 1    
   240  121  122 am   BACKBONE|DICT|INTERRES
   241  121  123 2    
   242  122  242 1    
   243  122  243 1    
   244  124  125 1    
   245  124  244 1    
   246  124  245 1    
   247  125  126 1    
   248  126  246 1    
   249  126  247 1    
@<TRIPOS>SUBSTRUCTURE
     1 UNK         1 GROUP             0       ****    0 ROOT    
