@<TRIPOS>MOLECULE
3R540
247   249    1
SMALL
USER_CHARGES


@<TRIPOS>ATOM
      1 CA          0.5536  -13.0445  -46.8844 C.3       0 UNK        -0.1800 
      2 C           1.7977  -13.7564  -47.3951 C.2       0 UNK         0.5000 
      3 O           2.7253  -13.0978  -47.8636 O.2       0 UNK        -0.5000 
      4 N           1.7994  -15.0944  -47.3428 N.am      1 UNK        -0.5000 
      5 CA          2.8087  -15.9393  -47.9917 C.3       1 UNK         0.1400 
      6 C6          2.1742  -17.2338  -48.5763 C.3       23 UNK        -0.0398 
      7 S7          2.6458  -17.5219  -50.3188 S.3       23 UNK        -0.2404 
      8 C8          1.7049  -16.2387  -51.2161 C.3       23 UNK        -0.0205 
      9 C9          0.2010  -16.3725  -51.0297 C.ar      23 UNK        -0.0193 
     10 C10        -0.5321  -17.2820  -51.7971 C.ar      23 UNK        -0.1150 
     11 C11        -1.9096  -17.4229  -51.6035 C.ar      23 UNK        -0.0193 
     12 C12        -2.5514  -16.6430  -50.6366 C.ar      23 UNK        -0.1150 
     13 C13        -1.8269  -15.7370  -49.8575 C.ar      23 UNK        -0.0193 
     14 C14        -0.4567  -15.5902  -50.0771 C.ar      23 UNK        -0.1150 
     15 C15        -2.5113  -14.9363  -48.7593 C.3       23 UNK        -0.0205 
     16 S16        -2.2587  -15.6892  -47.1163 S.3       23 UNK        -0.2404 
     17 C17        -3.2151  -17.2363  -47.2716 C.3       23 UNK        -0.0398 
     18 CA         -2.2939  -18.4673  -47.4411 C.3       11 UNK         0.1400 
     19 N          -1.5250  -18.7539  -46.2263 N.am      11 UNK        -0.5000 
     20 C          -0.4750  -19.5833  -46.1781 C.2       10 UNK         0.5000 
     21 O          -0.0402  -20.1956  -47.1525 O.2       10 UNK        -0.5000 
     22 CA          0.1723  -19.7967  -44.7985 C.3       10 UNK         0.1400 
     23 CB          1.1162  -18.6286  -44.4697 C.3       10 UNK        -0.1800 
     24 N          -0.7852  -19.9855  -43.7001 N.am      10 UNK        -0.5000 
     25 C          -1.7571  -20.9144  -43.6675 C.2       9 UNK         0.5000 
     26 O          -2.0063  -21.6619  -44.6131 O.2       9 UNK        -0.5000 
     27 CA         -2.5772  -21.0441  -42.3701 C.3       9 UNK         0.1400 
     28 CB         -3.1827  -22.4479  -42.1801 C.3       9 UNK        -0.1800 
     29 N          -1.7500  -20.7162  -41.2150 N.am      9 UNK        -0.5000 
     30 C          -2.1473  -20.0221  -40.1445 C.2       8 UNK         0.5000 
     31 O          -3.3027  -19.6348  -39.9628 O.2       8 UNK        -0.5000 
     32 CA         -1.0588  -19.6629  -39.1123 C.3       8 UNK         0.1400 
     33 CB          0.1569  -20.6175  -39.1277 C.3       8 UNK        -0.1800 
     34 N          -0.6155  -18.2727  -39.2583 N.am      8 UNK        -0.5000 
     35 C          -0.1391  -17.6881  -40.3673 C.2       7 UNK         0.5000 
     36 O           0.0157  -18.2655  -41.4470 O.2       7 UNK        -0.5000 
     37 CA          0.2688  -16.2132  -40.2270 C.3       7 UNK         0.1400 
     38 CB          1.7234  -16.1029  -39.7506 C.3       7 UNK        -0.1800 
     39 N           0.1373  -15.4974  -41.4921 N.am      7 UNK        -0.5000 
     40 C          -1.0176  -15.1159  -42.0478 C.2       6 UNK         0.5000 
     41 O          -2.1151  -15.2866  -41.5135 O.2       6 UNK        -0.5000 
     42 CA         -0.9168  -14.3993  -43.4122 C.3       6 UNK         0.1400 
     43 CB         -2.2409  -13.7415  -43.8406 C.3       6 UNK        -0.1800 
     44 N           0.1378  -13.3811  -43.4210 N.am      6 UNK        -0.5000 
     45 C           1.4371  -13.6160  -43.6386 C.2       5 UNK         0.5000 
     46 O           1.8828  -14.7416  -43.8662 O.2       5 UNK        -0.5000 
     47 CA          2.3987  -12.4118  -43.6424 C.3       5 UNK         0.1400 
     48 CB          1.7303  -11.0447  -43.3680 C.3       5 UNK        -0.1800 
     49 N           3.5434  -12.6394  -42.7593 N.am      5 UNK        -0.5000 
     50 C           3.5481  -12.7248  -41.4201 C.2       4 UNK         0.5000 
     51 O           2.5391  -12.5831  -40.7288 O.2       4 UNK        -0.5000 
     52 CA          4.9041  -13.0171  -40.7346 C.3       4 UNK         0.1400 
     53 CB          4.7536  -13.9440  -39.5157 C.3       4 UNK        -0.1800 
     54 N           5.8698  -13.6218  -41.6521 N.am      4 UNK        -0.5000 
     55 C           6.7974  -12.9713  -42.3666 C.2       3 UNK         0.5000 
     56 O           7.0150  -11.7634  -42.2732 O.2       3 UNK        -0.5000 
     57 CA          7.5825  -13.8155  -43.3941 C.3       3 UNK         0.1400 
     58 CB          8.9248  -14.2723  -42.8032 C.3       3 UNK        -0.1800 
     59 N           6.8386  -14.9919  -43.8645 N.am      3 UNK        -0.5000 
     60 C           5.6946  -14.9375  -44.5608 C.2       2 UNK         0.5000 
     61 O           5.1807  -13.8796  -44.9324 O.2       2 UNK        -0.5000 
     62 CA          4.9904  -16.2811  -44.8184 C.3       2 UNK         0.1400 
     63 CB          4.4456  -16.8721  -43.5057 C.3       2 UNK        -0.1800 
     64 N           3.8875  -16.1141  -45.7673 N.am      2 UNK        -0.5000 
     65 C           4.0270  -16.2433  -47.0944 C.2       1 UNK         0.5000 
     66 O           5.0812  -16.5927  -47.6287 O.2       1 UNK        -0.5000 
     67 C          -3.0982  -19.6927  -47.9209 C.2       11 UNK         0.5000 
     68 O          -3.1681  -19.9289  -49.1252 O.2       11 UNK        -0.5000 
     69 N          -3.6672  -20.4668  -46.9847 N.am      12 UNK        -0.5000 
     70 CA         -4.4223  -21.6870  -47.2826 C.3       12 UNK         0.1400 
     71 CB         -5.2462  -22.1055  -46.0574 C.3       12 UNK        -0.1800 
     72 C          -3.5109  -22.8356  -47.7472 C.2       12 UNK         0.5000 
     73 O          -3.8856  -23.5785  -48.6563 O.2       12 UNK        -0.5000 
     74 N          -2.3203  -22.9360  -47.1416 N.am      13 UNK        -0.5000 
     75 CA         -1.2585  -23.8622  -47.5270 C.3       13 UNK         0.1400 
     76 CB         -0.1418  -23.8340  -46.4727 C.3       13 UNK        -0.1800 
     77 C          -0.7089  -23.5478  -48.9285 C.2       13 UNK         0.5000 
     78 O          -0.6174  -24.4520  -49.7590 O.2       13 UNK        -0.5000 
     79 N          -0.4173  -22.2647  -49.1893 N.am      14 UNK        -0.5000 
     80 CA          0.0202  -21.7554  -50.4921 C.3       14 UNK         0.1400 
     81 CB          0.4325  -20.2873  -50.3477 C.3       14 UNK        -0.1800 
     82 C          -1.0429  -21.9098  -51.5957 C.2       14 UNK         0.5000 
     83 O          -0.6908  -22.1053  -52.7585 O.2       14 UNK        -0.5000 
     84 N          -2.3242  -21.8649  -51.2064 N.am      15 UNK        -0.5000 
     85 CA         -3.4779  -22.1563  -52.0549 C.3       15 UNK         0.1400 
     86 CB         -4.7472  -21.5870  -51.4000 C.3       15 UNK        -0.1800 
     87 C          -3.6693  -23.6563  -52.3540 C.2       15 UNK         0.5000 
     88 O          -4.6193  -23.9806  -53.0643 O.2       15 UNK        -0.5000 
     89 N          -2.8023  -24.5294  -51.8190 N.am      16 UNK        -0.5000 
     90 CA         -2.8183  -25.9901  -51.9319 C.3       16 UNK         0.1400 
     91 CB         -2.6741  -26.4475  -53.3983 C.3       16 UNK        -0.1800 
     92 C          -4.0375  -26.5966  -51.2147 C.2       16 UNK         0.5000 
     93 O          -4.8186  -27.3306  -51.8210 O.2       16 UNK        -0.5000 
     94 N          -4.1731  -26.2460  -49.9277 N.am      17 UNK        -0.5000 
     95 CA         -5.2676  -26.5993  -49.0187 C.3       17 UNK         0.1400 
     96 CB         -5.3699  -28.1257  -48.8124 C.3       17 UNK        -0.1800 
     97 C          -6.5906  -25.9401  -49.4515 C.2       17 UNK         0.5000 
     98 O          -7.6194  -26.6097  -49.5598 O.2       17 UNK        -0.5000 
     99 N          -6.5154  -24.6225  -49.6926 N.am      18 UNK        -0.5000 
    100 CA        -7.6137  -23.7307  -50.0841 C.3       18 UNK         0.1400 
    101 CB        -8.6509  -23.6114  -48.9477 C.3       18 UNK        -0.1800 
    102 C         -8.2498  -24.0731  -51.4513 C.2       18 UNK         0.5000 
    103 O         -9.4350  -23.8096  -51.6602 O.2       18 UNK        -0.5000 
    104 N         -7.4468  -24.6180  -52.3761 N.am      19 UNK        -0.5000 
    105 CA        -7.8389  -24.9208  -53.7574 C.3       19 UNK         0.1400 
    106 CB        -7.0171  -26.1217  -54.2531 C.3       19 UNK        -0.1800 
    107 C         -7.6762  -23.7124  -54.7065 C.2       19 UNK         0.5000 
    108 O         -8.0242  -23.8195  -55.8829 O.2       19 UNK        -0.5000 
    109 N         -7.1502  -22.5957  -54.1803 N.am      20 UNK        -0.5000 
    110 CA        -6.8589  -21.3235  -54.8496 C.3       20 UNK         0.1400 
    111 CB        -8.1459  -20.6696  -55.3946 C.3       20 UNK        -0.1800 
    112 C         -5.7397  -21.4375  -55.9048 C.2       20 UNK         0.5000 
    113 O         -5.7796  -20.7452  -56.9240 O.2       20 UNK        -0.5000 
    114 N         -4.7385  -22.2887  -55.6303 N.am      21 UNK        -0.5000 
    115 CA        -3.6023  -22.5748  -56.5163 C.3       21 UNK         0.1400 
    116 CB        -2.7428  -23.6842  -55.8943 C.3       21 UNK        -0.1800 
    117 C         -2.7247  -21.3578  -56.8817 C.2       21 UNK         0.5000 
    118 O         -2.0576  -21.3938  -57.9167 O.2       21 UNK        -0.5000 
    119 N         -2.7503  -20.3031  -56.0553 N.am      22 UNK        -0.5000 
    120 CA        -2.1301  -19.0002  -56.3499 C.3       22 UNK         0.1400 
    121 C         -2.8980  -18.1317  -57.3939 C.2       22 UNK         0.5000 
    122 N         -4.1057  -18.4910  -57.8160 N.am      22 UNK        -0.7600 
    123 O         -2.3766  -17.1155  -57.8456 O.2       22 UNK        -0.5000 
    124 C124       -1.7979  -18.2045  -55.0594 C.3       23 UNK        -0.0398 
    125 S125       -3.2525  -17.8475  -54.0091 S.3       23 UNK        -0.2404 
    126 C126       -2.7028  -18.4568  -52.3868 C.3       23 UNK        -0.0205 
    127 H127       -0.0310  -12.6719  -47.7253 H         1 UNK         0.0600 
    128 H128        0.8261  -12.1935  -46.2619 H         1 UNK         0.0600 
    129 H129       -0.0812  -13.7106  -46.3016 H         1 UNK         0.0600 
    130 H130        1.0190  -15.5760  -46.9199 H         1 UNK         0.3000 
    131 H131        3.2194  -15.3641  -48.8238 H         1 UNK         0.0600 
    132 H132        1.0860  -17.2125  -48.5175 H         1 UNK         0.0800 
    133 H133        2.4538  -18.1196  -48.0022 H         1 UNK         0.0800 
    134 H134        2.0400  -15.2501  -50.8992 H         1 UNK         0.0800 
    135 H135        1.9447  -16.3092  -52.2780 H         1 UNK         0.0800 
    136 H136       -0.0241  -17.8940  -52.5280 H         1 UNK         0.1150 
    137 H137       -3.6131  -16.7623  -50.4738 H         1 UNK         0.1150 
    138 H138        0.1036  -14.8847  -49.4833 H         1 UNK         0.1150 
    139 H139       -2.1122  -13.9212  -48.7467 H         1 UNK         0.0800 
    140 H140       -3.5794  -14.8391  -48.9598 H         1 UNK         0.0800 
    141 H141       -3.9057  -17.1422  -48.1109 H         1 UNK         0.0800 
    142 H142       -3.8422  -17.3457  -46.3854 H         1 UNK         0.0800 
    143 H143       -1.5781  -18.2423  -48.2354 H         1 UNK         0.0600 
    144 H144       -1.8172  -18.2900  -45.3793 H         1 UNK         0.3000 
    145 H145        0.7716  -20.7071  -44.8614 H         1 UNK         0.0600 
    146 H146        1.6823  -18.8288  -43.5603 H         1 UNK         0.0600 
    147 H147        1.8385  -18.4666  -45.2710 H         1 UNK         0.0600 
    148 H148        0.5719  -17.6947  -44.3226 H         1 UNK         0.0600 
    149 H149       -0.6394  -19.3971  -42.8828 H         1 UNK         0.3000 
    150 H150       -3.3933  -20.3240  -42.4561 H         1 UNK         0.0600 
    151 H151       -3.8578  -22.7033  -42.9966 H         1 UNK         0.0600 
    152 H152       -3.7599  -22.5066  -41.2573 H         1 UNK         0.0600 
    153 H153       -2.4083  -23.2147  -42.1403 H         1 UNK         0.0600 
    154 H154       -0.7714  -20.9572  -41.2917 H         1 UNK         0.3000 
    155 H155       -1.5274  -19.7436  -38.1303 H         1 UNK         0.0600 
    156 H156        0.7400  -20.5377  -40.0457 H         1 UNK         0.0600 
    157 H157        0.8280  -20.4004  -38.2967 H         1 UNK         0.0600 
    158 H158       -0.1581  -21.6564  -39.0215 H         1 UNK         0.0600 
    159 H159       -0.7203  -17.7035  -38.4301 H         1 UNK         0.3000 
    160 H160       -0.3790  -15.7366  -39.4881 H         1 UNK         0.0600 
    161 H161        2.4199  -16.5121  -40.4837 H         1 UNK         0.0600 
    162 H162        1.8755  -16.6412  -38.8142 H         1 UNK         0.0600 
    163 H163        1.9916  -15.0622  -39.5716 H         1 UNK         0.0600 
    164 H164        0.9837  -15.3616  -42.0304 H         1 UNK         0.3000 
    165 H165       -0.6787  -15.1653  -44.1535 H         1 UNK         0.0600 
    166 H166       -2.1483  -13.2684  -44.8183 H         1 UNK         0.0600 
    167 H167       -3.0388  -14.4812  -43.9180 H         1 UNK         0.0600 
    168 H168       -2.5622  -12.9810  -43.1281 H         1 UNK         0.0600 
    169 H169       -0.1505  -12.4389  -43.2009 H         1 UNK         0.3000 
    170 H170        2.8118  -12.3697  -44.6511 H         1 UNK         0.0600 
    171 H171        1.2469  -11.0050  -42.3916 H         1 UNK         0.0600 
    172 H172        2.4654  -10.2406  -43.4034 H         1 UNK         0.0600 
    173 H173        0.9753  -10.8163  -44.1211 H         1 UNK         0.0600 
    174 H174        4.4065  -12.8419  -43.2493 H         1 UNK         0.3000 
    175 H175        5.2858  -12.0585  -40.3778 H         1 UNK         0.0600 
    176 H176        5.7057  -14.0662  -38.9991 H         1 UNK         0.0600 
    177 H177        4.4056  -14.9350  -39.8066 H         1 UNK         0.0600 
    178 H178        4.0458  -13.5408  -38.7905 H         1 UNK         0.0600 
    179 H179        5.7682  -14.6134  -41.8097 H         1 UNK         0.3000 
    180 H180        7.7862  -13.1775  -44.2568 H         1 UNK         0.0600 
    181 H181        8.7842  -14.9315  -41.9457 H         1 UNK         0.0600 
    182 H182        9.5144  -13.4182  -42.4672 H         1 UNK         0.0600 
    183 H183        9.5213  -14.8054  -43.5437 H         1 UNK         0.0600 
    184 H184        7.2093  -15.8927  -43.5971 H         1 UNK         0.3000 
    185 H185        5.7265  -16.9800  -45.2211 H         1 UNK         0.0600 
    186 H186        3.7848  -16.1804  -42.9844 H         1 UNK         0.0600 
    187 H187        3.8914  -17.7916  -43.6896 H         1 UNK         0.0600 
    188 H188        5.2559  -17.1222  -42.8204 H         1 UNK         0.0600 
    189 H189        3.0306  -15.7286  -45.3870 H         1 UNK         0.3000 
    190 H190       -3.5080  -20.2563  -46.0106 H         1 UNK         0.3000 
    191 H191       -5.1202  -21.4670  -48.0928 H         1 UNK         0.0600 
    192 H192       -5.9310  -21.3141  -45.7527 H         1 UNK         0.0600 
    193 H193       -5.8474  -22.9891  -46.2767 H         1 UNK         0.0600 
    194 H194       -4.6093  -22.3456  -45.2069 H         1 UNK         0.0600 
    195 H195       -2.1259  -22.3249  -46.3518 H         1 UNK         0.3000 
    196 H196       -1.6811  -24.8688  -47.5491 H         1 UNK         0.0600 
    197 H197        0.6546  -24.5339  -46.7280 H         1 UNK         0.0600 
    198 H198       -0.5222  -24.1159  -45.4906 H         1 UNK         0.0600 
    199 H199        0.3056  -22.8438  -46.3832 H         1 UNK         0.0600 
    200 H200       -0.4827  -21.5810  -48.4397 H         1 UNK         0.3000 
    201 H201        0.8979  -22.3287  -50.7971 H         1 UNK         0.0600 
    202 H202        0.7957  -19.8900  -51.2957 H         1 UNK         0.0600 
    203 H203       -0.4011  -19.6639  -50.0226 H         1 UNK         0.0600 
    204 H204        1.2364  -20.1755  -49.6205 H         1 UNK         0.0600 
    205 H205       -2.5269  -21.6112  -50.2463 H         1 UNK         0.3000 
    206 H206       -3.3348  -21.6538  -53.0132 H         1 UNK         0.0600 
    207 H207       -4.6796  -20.5144  -51.2426 H         1 UNK         0.0600 
    208 H208       -5.6283  -21.7575  -52.0149 H         1 UNK         0.0600 
    209 H209       -4.9333  -22.0438  -50.4315 H         1 UNK         0.0600 
    210 H210       -2.0678  -24.1629  -51.2246 H         1 UNK         0.3000 
    211 H211       -1.9372  -26.3460  -51.3960 H         1 UNK         0.0600 
    212 H212       -3.5583  -26.2118  -53.9893 H         1 UNK         0.0600 
    213 H213       -2.5293  -27.5268  -53.4532 H         1 UNK         0.0600 
    214 H214       -1.8139  -25.9784  -53.8758 H         1 UNK         0.0600 
    215 H215       -3.5238  -25.5625  -49.5576 H         1 UNK         0.3000 
    216 H216       -5.0124  -26.1607  -48.0528 H         1 UNK         0.0600 
    217 H217       -6.0929  -28.3623  -48.0311 H         1 UNK         0.0600 
    218 H218       -4.4123  -28.5470  -48.5066 H         1 UNK         0.0600 
    219 H219       -5.6911  -28.6426  -49.7168 H         1 UNK         0.0600 
    220 H220       -5.6116  -24.1827  -49.5498 H         1 UNK         0.3000 
    221 H221       -7.1715  -22.7427  -50.2074 H         1 UNK         0.0600 
    222 H222       -9.1989  -24.5421  -48.7988 H         1 UNK         0.0600 
    223 H223       -8.1728  -23.3482  -48.0041 H         1 UNK         0.0600 
    224 H224       -9.3835  -22.8333  -49.1652 H         1 UNK         0.0600 
    225 H225       -6.4736  -24.7858  -52.1523 H         1 UNK         0.3000 
    226 H226       -8.8923  -25.2073  -53.7764 H         1 UNK         0.0600 
    227 H227       -7.1370  -26.9810  -53.5930 H         1 UNK         0.0600 
    228 H228       -7.3352  -26.4308  -55.2494 H         1 UNK         0.0600 
    229 H229       -5.9539  -25.8893  -54.3074 H         1 UNK         0.0600 
    230 H230       -6.8694  -22.6570  -53.2137 H         1 UNK         0.3000 
    231 H231       -6.4668  -20.6598  -54.0780 H         1 UNK         0.0600 
    232 H232       -8.5626  -21.2275  -56.2335 H         1 UNK         0.0600 
    233 H233       -7.9501  -19.6554  -55.7445 H         1 UNK         0.0600 
    234 H234       -8.9118  -20.6024  -54.6219 H         1 UNK         0.0600 
    235 H235       -4.8056  -22.8551  -54.7917 H         1 UNK         0.3000 
    236 H236       -4.0176  -22.9572  -57.4509 H         1 UNK         0.0600 
    237 H237       -3.3370  -24.5762  -55.6988 H         1 UNK         0.0600 
    238 H238       -1.9339  -23.9757  -56.5653 H         1 UNK         0.0600 
    239 H239       -2.2880  -23.3643  -54.9565 H         1 UNK         0.0600 
    240 H240       -3.3381  -20.3388  -55.2373 H         1 UNK         0.3000 
    241 H241       -1.1695  -19.2106  -56.8240 H         1 UNK         0.0600 
    242 H242       -4.5782  -17.9173  -58.4961 H         1 UNK         0.3800 
    243 H243       -4.5681  -19.3228  -57.4617 H         1 UNK         0.3800 
    244 H244       -1.0632  -18.7687  -54.4850 H         1 UNK         0.0800 
    245 H245       -1.3089  -17.2595  -55.3024 H         1 UNK         0.0800 
    246 H246       -3.5868  -18.7276  -51.8133 H         1 UNK         0.0800 
    247 H247       -2.1226  -19.3706  -52.5025 H         1 UNK         0.0800 
@<TRIPOS>BOND
     1    1    2 1    
     2    1  127 1    
     3    1  128 1    
     4    1  129 1    
     5    2    3 2    
     6    2    4 am   BACKBONE|DICT|INTERRES
     7    4    5 1    
     8    4  130 1    
     9    5    6 1    
    10    5   65 1    
    11    5  131 1    
    12    6    7 1    
    13    6  132 1    
    14    6  133 1    
    15    7    8 1    
    16    8    9 1    
    17    8  134 1    
    18    8  135 1    
    19    9   10 ar   
    20    9   14 ar   
    21   10   11 ar   
    22   10  136 1    
    23   11   12 ar   
    24   11  126 1    
    25   12   13 ar   
    26   12  137 1    
    27   13   14 ar   
    28   13   15 1    
    29   14  138 1    
    30   15   16 1    
    31   15  139 1    
    32   15  140 1    
    33   16   17 1    
    34   17   18 1    
    35   17  141 1    
    36   17  142 1    
    37   18   19 1    
    38   18   67 1    
    39   18  143 1    
    40   19   20 am   BACKBONE|DICT|INTERRES
    41   19  144 1    
    42   20   21 2    
    43   20   22 1    
    44   22   23 1    
    45   22   24 1    
    46   22  145 1    
    47   23  146 1    
    48   23  147 1    
    49   23  148 1    
    50   24   25 am   BACKBONE|DICT|INTERRES
    51   24  149 1    
    52   25   26 2    
    53   25   27 1    
    54   27   28 1    
    55   27   29 1    
    56   27  150 1    
    57   28  151 1    
    58   28  152 1    
    59   28  153 1    
    60   29   30 am   BACKBONE|DICT|INTERRES
    61   29  154 1    
    62   30   31 2    
    63   30   32 1    
    64   32   33 1    
    65   32   34 1    
    66   32  155 1    
    67   33  156 1    
    68   33  157 1    
    69   33  158 1    
    70   34   35 am   BACKBONE|DICT|INTERRES
    71   34  159 1    
    72   35   36 2    
    73   35   37 1    
    74   37   38 1    
    75   37   39 1    
    76   37  160 1    
    77   38  161 1    
    78   38  162 1    
    79   38  163 1    
    80   39   40 am   BACKBONE|DICT|INTERRES
    81   39  164 1    
    82   40   41 2    
    83   40   42 1    
    84   42   43 1    
    85   42   44 1    
    86   42  165 1    
    87   43  166 1    
    88   43  167 1    
    89   43  168 1    
    90   44   45 am   BACKBONE|DICT|INTERRES
    91   44  169 1    
    92   45   46 2    
    93   45   47 1    
    94   47   48 1    
    95   47   49 1    
    96   47  170 1    
    97   48  171 1    
    98   48  172 1    
    99   48  173 1    
   100   49   50 am   BACKBONE|DICT|INTERRES
   101   49  174 1    
   102   50   51 2    
   103   50   52 1    
   104   52   53 1    
   105   52   54 1    
   106   52  175 1    
   107   53  176 1    
   108   53  177 1    
   109   53  178 1    
   110   54   55 am   BACKBONE|DICT|INTERRES
   111   54  179 1    
   112   55   56 2    
   113   55   57 1    
   114   57   58 1    
   115   57   59 1    
   116   57  180 1    
   117   58  181 1    
   118   58  182 1    
   119   58  183 1    
   120   59   60 am   BACKBONE|DICT|INTERRES
   121   59  184 1    
   122   60   61 2    
   123   60   62 1    
   124   62   63 1    
   125   62   64 1    
   126   62  185 1    
   127   63  186 1    
   128   63  187 1    
   129   63  188 1    
   130   64   65 am   BACKBONE|DICT|INTERRES
   131   64  189 1    
   132   65   66 2    
   133   67   68 2    
   134   67   69 am   BACKBONE|DICT|INTERRES
   135   69   70 1    
   136   69  190 1    
   137   70   71 1    
   138   70   72 1    
   139   70  191 1    
   140   71  192 1    
   141   71  193 1    
   142   71  194 1    
   143   72   73 2    
   144   72   74 am   BACKBONE|DICT|INTERRES
   145   74   75 1    
   146   74  195 1    
   147   75   76 1    
   148   75   77 1    
   149   75  196 1    
   150   76  197 1    
   151   76  198 1    
   152   76  199 1    
   153   77   78 2    
   154   77   79 am   BACKBONE|DICT|INTERRES
   155   79   80 1    
   156   79  200 1    
   157   80   81 1    
   158   80   82 1    
   159   80  201 1    
   160   81  202 1    
   161   81  203 1    
   162   81  204 1    
   163   82   83 2    
   164   82   84 am   BACKBONE|DICT|INTERRES
   165   84   85 1    
   166   84  205 1    
   167   85   86 1    
   168   85   87 1    
   169   85  206 1    
   170   86  207 1    
   171   86  208 1    
   172   86  209 1    
   173   87   88 2    
   174   87   89 am   BACKBONE|DICT|INTERRES
   175   89   90 1    
   176   89  210 1    
   177   90   91 1    
   178   90   92 1    
   179   90  211 1    
   180   91  212 1    
   181   91  213 1    
   182   91  214 1    
   183   92   93 2    
   184   92   94 am   BACKBONE|DICT|INTERRES
   185   94   95 1    
   186   94  215 1    
   187   95   96 1    
   188   95   97 1    
   189   95  216 1    
   190   96  217 1    
   191   96  218 1    
   192   96  219 1    
   193   97   98 2    
   194   97   99 am   BACKBONE|DICT|INTERRES
   195   99  100 1    
   196   99  220 1    
   197  100  101 1    
   198  100  102 1    
   199  100  221 1    
   200  101  222 1    
   201  101  223 1    
   202  101  224 1    
   203  102  103 2    
   204  102  104 am   BACKBONE|DICT|INTERRES
   205  104  105 1    
   206  104  225 1    
   207  105  106 1    
   208  105  107 1    
   209  105  226 1    
   210  106  227 1    
   211  106  228 1    
   212  106  229 1    
   213  107  108 2    
   214  107  109 am   BACKBONE|DICT|INTERRES
   215  109  110 1    
   216  109  230 1    
   217  110  111 1    
   218  110  112 1    
   219  110  231 1    
   220  111  232 1    
   221  111  233 1    
   222  111  234 1    
   223  112  113 2    
   224  112  114 am   BACKBONE|DICT|INTERRES
   225  114  115 1    
   226  114  235 1    
   227  115  116 1    
   228  115  117 1    
   229  115  236 1    
   230  116  237 1    
   231  116  238 1    
   232  116  239 1    
   233  117  118 2    
   234  117  119 am   BACKBONE|DICT|INTERRES
   235  119  120 1    
   236  119  240 1    
   237  120  121 1    
   238  120  124 1    
   239  120  241 1    
   240  121  122 am   BACKBONE|DICT|INTERRES
   241  121  123 2    
   242  122  242 1    
   243  122  243 1    
   244  124  125 1    
   245  124  244 1    
   246  124  245 1    
   247  125  126 1    
   248  126  246 1    
   249  126  247 1    
@<TRIPOS>SUBSTRUCTURE
     1 UNK         1 GROUP             0       ****    0 ROOT    
