@<TRIPOS>MOLECULE
3R540
247   249    1
SMALL
USER_CHARGES


@<TRIPOS>ATOM
      1 CA          7.0845  -10.5160  -49.6171 C.3       0 UNK        -0.1800 
      2 C           5.9245  -10.9255  -48.7202 C.2       0 UNK         0.5000 
      3 O           5.7948  -10.4066  -47.6111 O.2       0 UNK        -0.5000 
      4 N           5.0889  -11.8590  -49.1909 N.am      1 UNK        -0.5000 
      5 CA          3.8943  -12.3453  -48.4962 C.3       1 UNK         0.1400 
      6 C6          3.2931  -13.5922  -49.1907 C.3       23 UNK        -0.0398 
      7 S7          4.3570  -15.0679  -49.0470 S.3       23 UNK        -0.2404 
      8 C8          3.2864  -16.2016  -48.1030 C.3       23 UNK        -0.0205 
      9 C9          2.3642  -17.0204  -48.9957 C.ar      23 UNK        -0.0193 
     10 C10         1.2183  -16.4487  -49.5584 C.ar      23 UNK        -0.1150 
     11 C11         0.3776  -17.2007  -50.3817 C.ar      23 UNK        -0.0193 
     12 C12         0.6718  -18.5477  -50.6112 C.ar      23 UNK        -0.1150 
     13 C13         1.7916  -19.1458  -50.0277 C.ar      23 UNK        -0.0193 
     14 C14         2.6454  -18.3679  -49.2381 C.ar      23 UNK        -0.1150 
     15 C15         2.0771  -20.6233  -50.2827 C.3       23 UNK        -0.0205 
     16 S16         2.5606  -21.5477  -48.7852 S.3       23 UNK        -0.2404 
     17 C17         1.0603  -21.4478  -47.7469 C.3       23 UNK        -0.0398 
     18 CA          0.4347  -22.8308  -47.4480 C.3       11 UNK         0.1400 
     19 N           1.4040  -23.7804  -46.9031 N.am      11 UNK        -0.5000 
     20 C           1.2798  -25.1113  -46.9820 C.2       10 UNK         0.5000 
     21 O           0.3547  -25.6746  -47.5663 O.2       10 UNK        -0.5000 
     22 CA          2.3461  -25.9556  -46.2571 C.3       10 UNK         0.1400 
     23 CB          3.4748  -26.3405  -47.2247 C.3       10 UNK        -0.1800 
     24 N           2.9235  -25.2862  -45.0883 N.am      10 UNK        -0.5000 
     25 C           2.2359  -24.9218  -43.9977 C.2       9 UNK         0.5000 
     26 O           1.0324  -25.1432  -43.8585 O.2       9 UNK        -0.5000 
     27 CA          2.9982  -24.1632  -42.8895 C.3       9 UNK         0.1400 
     28 CB          4.5316  -24.1509  -43.0817 C.3       9 UNK        -0.1800 
     29 N           2.5122  -22.7903  -42.6923 N.am      9 UNK        -0.5000 
     30 C           2.4219  -21.8184  -43.6126 C.2       8 UNK         0.5000 
     31 O           2.6348  -21.9911  -44.8150 O.2       8 UNK        -0.5000 
     32 CA          2.0714  -20.4150  -43.0792 C.3       8 UNK         0.1400 
     33 CB          3.2779  -19.8137  -42.3398 C.3       8 UNK        -0.1800 
     34 N           1.7042  -19.4987  -44.1577 N.am      8 UNK        -0.5000 
     35 C           0.4654  -19.2605  -44.5998 C.2       7 UNK         0.5000 
     36 O          -0.5471  -19.7649  -44.1157 O.2       7 UNK        -0.5000 
     37 CA          0.3455  -18.2551  -45.7623 C.3       7 UNK         0.1400 
     38 CB         -0.9477  -18.4501  -46.5727 C.3       7 UNK        -0.1800 
     39 N           0.3951  -16.8779  -45.2747 N.am      7 UNK        -0.5000 
     40 C           1.4976  -16.2450  -44.8502 C.2       6 UNK         0.5000 
     41 O           2.6128  -16.7684  -44.8409 O.2       6 UNK        -0.5000 
     42 CA          1.3540  -14.7850  -44.3770 C.3       6 UNK         0.1400 
     43 CB          2.2183  -13.8414  -45.2275 C.3       6 UNK        -0.1800 
     44 N          -0.0285  -14.3104  -44.4354 N.am      6 UNK        -0.5000 
     45 C          -0.8234  -14.1230  -43.3731 C.2       5 UNK         0.5000 
     46 O          -0.4685  -14.3197  -42.2104 O.2       5 UNK        -0.5000 
     47 CA         -2.2625  -13.6395  -43.6462 C.3       5 UNK         0.1400 
     48 CB         -2.3835  -12.1308  -43.3836 C.3       5 UNK        -0.1800 
     49 N          -2.7230  -13.9341  -45.0055 N.am      5 UNK        -0.5000 
     50 C          -3.0043  -15.1673  -45.4509 C.2       4 UNK         0.5000 
     51 O          -2.9399  -16.1695  -44.7405 O.2       4 UNK        -0.5000 
     52 CA         -3.3868  -15.3223  -46.9366 C.3       4 UNK         0.1400 
     53 CB         -4.9134  -15.4021  -47.0853 C.3       4 UNK        -0.1800 
     54 N          -2.8831  -14.2616  -47.8142 N.am      4 UNK        -0.5000 
     55 C          -1.5972  -13.9360  -48.0031 C.2       3 UNK         0.5000 
     56 O          -0.6628  -14.4819  -47.4114 O.2       3 UNK        -0.5000 
     57 CA         -1.2964  -12.8036  -49.0122 C.3       3 UNK         0.1400 
     58 CB         -2.5457  -12.0312  -49.4922 C.3       3 UNK        -0.1800 
     59 N          -0.2867  -11.8708  -48.5057 N.am      3 UNK        -0.5000 
     60 C          -0.3234  -11.1792  -47.3570 C.2       2 UNK         0.5000 
     61 O          -1.2828  -11.1969  -46.5841 O.2       2 UNK        -0.5000 
     62 CA          0.9450  -10.3690  -47.0052 C.3       2 UNK         0.1400 
     63 CB          0.9483   -9.8938  -45.5405 C.3       2 UNK        -0.1800 
     64 N           2.1536  -11.1629  -47.2443 N.am      2 UNK        -0.5000 
     65 C           2.8136  -11.2486  -48.4052 C.2       1 UNK         0.5000 
     66 O           2.5332  -10.5787  -49.4013 O.2       1 UNK        -0.5000 
     67 C          -0.7890  -22.7124  -46.5136 C.2       11 UNK         0.5000 
     68 O          -1.9042  -22.5466  -47.0051 O.2       11 UNK        -0.5000 
     69 N          -0.5899  -22.8645  -45.1932 N.am      12 UNK        -0.5000 
     70 CA         -1.6729  -22.9167  -44.2034 C.3       12 UNK         0.1400 
     71 CB         -1.1307  -22.8280  -42.7685 C.3       12 UNK        -0.1800 
     72 C          -2.5342  -24.1755  -44.3765 C.2       12 UNK         0.5000 
     73 O          -3.7612  -24.0812  -44.3299 O.2       12 UNK        -0.5000 
     74 N          -1.8707  -25.3090  -44.6484 N.am      13 UNK        -0.5000 
     75 CA         -2.4829  -26.5986  -44.9774 C.3       13 UNK         0.1400 
     76 CB         -1.3854  -27.6701  -45.0556 C.3       13 UNK        -0.1800 
     77 C          -3.3233  -26.5787  -46.2724 C.2       13 UNK         0.5000 
     78 O          -4.2364  -27.3925  -46.4086 O.2       13 UNK        -0.5000 
     79 N          -3.0494  -25.6204  -47.1693 N.am      14 UNK        -0.5000 
     80 CA         -3.8374  -25.3159  -48.3662 C.3       14 UNK         0.1400 
     81 CB         -2.8936  -24.8202  -49.4769 C.3       14 UNK        -0.1800 
     82 C          -4.9776  -24.3130  -48.0736 C.2       14 UNK         0.5000 
     83 O          -5.3469  -23.5354  -48.9559 O.2       14 UNK        -0.5000 
     84 N          -5.5101  -24.3440  -46.8422 N.am      15 UNK        -0.5000 
     85 CA         -6.6008  -23.5237  -46.3078 C.3       15 UNK         0.1400 
     86 CB         -7.9258  -23.8519  -47.0290 C.3       15 UNK        -0.1800 
     87 C          -6.2583  -22.0221  -46.3219 C.2       15 UNK         0.5000 
     88 O          -7.0203  -21.2220  -46.8635 O.2       15 UNK        -0.5000 
     89 N          -5.0841  -21.6766  -45.7701 N.am      16 UNK        -0.5000 
     90 CA         -4.4704  -20.3375  -45.8069 C.3       16 UNK         0.1400 
     91 CB         -5.2543  -19.3438  -44.9258 C.3       16 UNK        -0.1800 
     92 C          -4.2732  -19.8411  -47.2550 C.2       16 UNK         0.5000 
     93 O          -4.5847  -18.6961  -47.5819 O.2       16 UNK        -0.5000 
     94 N          -3.7904  -20.7630  -48.0969 N.am      17 UNK        -0.5000 
     95 CA         -3.5532  -20.6611  -49.5334 C.3       17 UNK         0.1400 
     96 CB         -2.4620  -19.6226  -49.8275 C.3       17 UNK        -0.1800 
     97 C          -4.8093  -20.4436  -50.3992 C.2       17 UNK         0.5000 
     98 O          -4.6592  -20.1623  -51.5887 O.2       17 UNK        -0.5000 
     99 N          -6.0154  -20.6171  -49.8395 N.am      18 UNK        -0.5000 
    100 CA        -7.2776  -20.5105  -50.5738 C.3       18 UNK         0.1400 
    101 CB        -8.4556  -20.4460  -49.5923 C.3       18 UNK        -0.1800 
    102 C         -7.4783  -21.6564  -51.5813 C.2       18 UNK         0.5000 
    103 O         -8.0271  -21.4188  -52.6573 O.2       18 UNK        -0.5000 
    104 N         -7.0028  -22.8643  -51.2413 N.am      19 UNK        -0.5000 
    105 CA        -7.0331  -24.0302  -52.1288 C.3       19 UNK         0.1400 
    106 CB        -6.8642  -25.3129  -51.3003 C.3       19 UNK        -0.1800 
    107 C         -5.9552  -23.9479  -53.2259 C.2       19 UNK         0.5000 
    108 O         -6.1629  -24.4611  -54.3256 O.2       19 UNK        -0.5000 
    109 N         -4.8321  -23.2892  -52.9091 N.am      20 UNK        -0.5000 
    110 CA        -3.7276  -23.0244  -53.8324 C.3       20 UNK         0.1400 
    111 CB        -2.4456  -22.8029  -53.0117 C.3       20 UNK        -0.1800 
    112 C         -3.9862  -21.8089  -54.7447 C.2       20 UNK         0.5000 
    113 O         -3.2831  -21.6466  -55.7428 O.2       20 UNK        -0.5000 
    114 N         -4.9368  -20.9457  -54.3535 N.am      21 UNK        -0.5000 
    115 CA        -5.2707  -19.6410  -54.9399 C.3       21 UNK         0.1400 
    116 CB        -5.9181  -19.8235  -56.3276 C.3       21 UNK        -0.1800 
    117 C         -4.0729  -18.6624  -54.9594 C.2       21 UNK         0.5000 
    118 O         -3.9869  -17.8071  -55.8423 O.2       21 UNK        -0.5000 
    119 N         -3.1525  -18.8339  -53.9992 N.am      22 UNK        -0.5000 
    120 CA        -1.8261  -18.1960  -53.9418 C.3       22 UNK         0.1400 
    121 C         -0.8756  -18.5585  -55.1317 C.2       22 UNK         0.5000 
    122 N         -1.1106  -19.6404  -55.8666 N.am      22 UNK        -0.7600 
    123 O          0.1080  -17.8708  -55.3890 O.2       22 UNK        -0.5000 
    124 C124       -1.9210  -16.6712  -53.6398 C.3       23 UNK        -0.0398 
    125 S125       -0.4808  -16.0158  -52.7223 S.3       23 UNK        -0.2404 
    126 C126       -0.8433  -16.5581  -51.0244 C.3       23 UNK        -0.0205 
    127 H127        7.0308   -9.4495  -49.8362 H         1 UNK         0.0600 
    128 H128        7.0769  -11.0581  -50.5631 H         1 UNK         0.0600 
    129 H129        8.0330  -10.7156  -49.1186 H         1 UNK         0.0600 
    130 H130        5.2445  -12.2431  -50.1117 H         1 UNK         0.3000 
    131 H131        4.1886  -12.6225  -47.4813 H         1 UNK         0.0600 
    132 H132        3.1123  -13.3984  -50.2497 H         1 UNK         0.0800 
    133 H133        2.3185  -13.8186  -48.7592 H         1 UNK         0.0800 
    134 H134        2.6911  -15.6419  -47.3862 H         1 UNK         0.0800 
    135 H135        3.9199  -16.8631  -47.5100 H         1 UNK         0.0800 
    136 H136        0.9778  -15.4150  -49.3678 H         1 UNK         0.1150 
    137 H137        0.0297  -19.1336  -51.2505 H         1 UNK         0.1150 
    138 H138        3.5261  -18.8168  -48.8010 H         1 UNK         0.1150 
    139 H139        1.2103  -21.1145  -50.7279 H         1 UNK         0.0800 
    140 H140        2.8830  -20.6973  -51.0136 H         1 UNK         0.0800 
    141 H141        1.3394  -20.9437  -46.8233 H         1 UNK         0.0800 
    142 H142        0.3296  -20.8065  -48.2383 H         1 UNK         0.0800 
    143 H143        0.0701  -23.2270  -48.3986 H         1 UNK         0.0600 
    144 H144        2.1757  -23.3797  -46.3816 H         1 UNK         0.3000 
    145 H145        1.8615  -26.8714  -45.9126 H         1 UNK         0.0600 
    146 H146        4.1964  -27.0033  -46.7468 H         1 UNK         0.0600 
    147 H147        3.0801  -26.8656  -48.0957 H         1 UNK         0.0600 
    148 H148        4.0113  -25.4623  -47.5863 H         1 UNK         0.0600 
    149 H149        3.9045  -25.0531  -45.1385 H         1 UNK         0.3000 
    150 H150        2.7885  -24.7010  -41.9638 H         1 UNK         0.0600 
    151 H151        4.9294  -25.1633  -43.1645 H         1 UNK         0.0600 
    152 H152        5.0242  -23.6864  -42.2274 H         1 UNK         0.0600 
    153 H153        4.8318  -23.5967  -43.9718 H         1 UNK         0.0600 
    154 H154        2.2829  -22.5584  -41.7361 H         1 UNK         0.3000 
    155 H155        1.2440  -20.5016  -42.3733 H         1 UNK         0.0600 
    156 H156        3.0478  -18.8194  -41.9559 H         1 UNK         0.0600 
    157 H157        4.1471  -19.7257  -42.9931 H         1 UNK         0.0600 
    158 H158        3.5690  -20.4285  -41.4873 H         1 UNK         0.0600 
    159 H159        2.4673  -18.9960  -44.5926 H         1 UNK         0.3000 
    160 H160        1.1859  -18.4186  -46.4404 H         1 UNK         0.0600 
    161 H161       -1.8332  -18.2162  -45.9826 H         1 UNK         0.0600 
    162 H162       -1.0533  -19.4818  -46.9051 H         1 UNK         0.0600 
    163 H163       -0.9555  -17.8169  -47.4604 H         1 UNK         0.0600 
    164 H164       -0.4885  -16.3929  -45.2144 H         1 UNK         0.3000 
    165 H165        1.7303  -14.7511  -43.3527 H         1 UNK         0.0600 
    166 H166        1.8432  -13.7797  -46.2488 H         1 UNK         0.0600 
    167 H167        2.2225  -12.8377  -44.8037 H         1 UNK         0.0600 
    168 H168        3.2553  -14.1777  -45.2707 H         1 UNK         0.0600 
    169 H169       -0.4048  -14.1557  -45.3652 H         1 UNK         0.3000 
    170 H170       -2.9210  -14.1574  -42.9456 H         1 UNK         0.0600 
    171 H171       -2.1336  -11.8957  -42.3482 H         1 UNK         0.0600 
    172 H172       -1.7102  -11.5549  -44.0183 H         1 UNK         0.0600 
    173 H173       -3.3993  -11.7771  -43.5606 H         1 UNK         0.0600 
    174 H174       -2.7611  -13.1575  -45.6521 H         1 UNK         0.3000 
    175 H175       -2.9613  -16.2654  -47.2846 H         1 UNK         0.0600 
    176 H176       -5.3965  -14.4668  -46.8002 H         1 UNK         0.0600 
    177 H177       -5.1977  -15.6321  -48.1123 H         1 UNK         0.0600 
    178 H178       -5.3264  -16.1913  -46.4552 H         1 UNK         0.0600 
    179 H179       -3.5823  -13.7435  -48.3259 H         1 UNK         0.3000 
    180 H180       -0.8525  -13.2872  -49.8832 H         1 UNK         0.0600 
    181 H181       -3.2448  -12.6869  -50.0126 H         1 UNK         0.0600 
    182 H182       -3.0777  -11.5583  -48.6658 H         1 UNK         0.0600 
    183 H183       -2.2689  -11.2456  -50.1956 H         1 UNK         0.0600 
    184 H184        0.5422  -11.7721  -49.0749 H         1 UNK         0.3000 
    185 H185        0.9537   -9.4840  -47.6447 H         1 UNK         0.0600 
    186 H186        0.1016   -9.2359  -45.3409 H         1 UNK         0.0600 
    187 H187        0.8840  -10.7304  -44.8436 H         1 UNK         0.0600 
    188 H188        1.8539   -9.3326  -45.3097 H         1 UNK         0.0600 
    189 H189        2.4387  -11.7575  -46.4802 H         1 UNK         0.3000 
    190 H190        0.3439  -23.0576  -44.8605 H         1 UNK         0.3000 
    191 H191       -2.3123  -22.0492  -44.3620 H         1 UNK         0.0600 
    192 H192       -1.9512  -22.8138  -42.0501 H         1 UNK         0.0600 
    193 H193       -0.5614  -21.9151  -42.6141 H         1 UNK         0.0600 
    194 H194       -0.4938  -23.6712  -42.5085 H         1 UNK         0.0600 
    195 H195       -0.8566  -25.2848  -44.6114 H         1 UNK         0.3000 
    196 H196       -3.1556  -26.8595  -44.1580 H         1 UNK         0.0600 
    197 H197       -1.8158  -28.6576  -45.2269 H         1 UNK         0.0600 
    198 H198       -0.8144  -27.7203  -44.1282 H         1 UNK         0.0600 
    199 H199       -0.6871  -27.4727  -45.8686 H         1 UNK         0.0600 
    200 H200       -2.2903  -24.9846  -46.9679 H         1 UNK         0.3000 
    201 H201       -4.3116  -26.2313  -48.7251 H         1 UNK         0.0600 
    202 H202       -2.1018  -25.5439  -49.6713 H         1 UNK         0.0600 
    203 H203       -2.4211  -23.8743  -49.2161 H         1 UNK         0.0600 
    204 H204       -3.4317  -24.6721  -50.4136 H         1 UNK         0.0600 
    205 H205       -5.0958  -24.9836  -46.1787 H         1 UNK         0.3000 
    206 H206       -6.7160  -23.8031  -45.2596 H         1 UNK         0.0600 
    207 H207       -8.1579  -24.9145  -46.9598 H         1 UNK         0.0600 
    208 H208       -8.7587  -23.3081  -46.5821 H         1 UNK         0.0600 
    209 H209       -7.8925  -23.5865  -48.0860 H         1 UNK         0.0600 
    210 H210       -4.5290  -22.4176  -45.3565 H         1 UNK         0.3000 
    211 H211       -3.4701  -20.4276  -45.3848 H         1 UNK         0.0600 
    212 H212       -6.2523  -19.1493  -45.3194 H         1 UNK         0.0600 
    213 H213       -4.7353  -18.3863  -44.8662 H         1 UNK         0.0600 
    214 H214       -5.3605  -19.7187  -43.9081 H         1 UNK         0.0600 
    215 H215       -3.5046  -21.6479  -47.6896 H         1 UNK         0.3000 
    216 H216       -3.1635  -21.6340  -49.8331 H         1 UNK         0.0600 
    217 H217       -2.7793  -18.6189  -49.5457 H         1 UNK         0.0600 
    218 H218       -2.2131  -19.6096  -50.8880 H         1 UNK         0.0600 
    219 H219       -1.5486  -19.8516  -49.2825 H         1 UNK         0.0600 
    220 H220       -6.0744  -20.8681  -48.8598 H         1 UNK         0.3000 
    221 H221       -7.2585  -19.5740  -51.1355 H         1 UNK         0.0600 
    222 H222       -8.5658  -21.3760  -49.0343 H         1 UNK         0.0600 
    223 H223       -8.3286  -19.6355  -48.8743 H         1 UNK         0.0600 
    224 H224       -9.3932  -20.2701  -50.1208 H         1 UNK         0.0600 
    225 H225       -6.5337  -22.9826  -50.3458 H         1 UNK         0.3000 
    226 H226       -8.0091  -24.0703  -52.6174 H         1 UNK         0.0600 
    227 H227       -7.5935  -25.3620  -50.4914 H         1 UNK         0.0600 
    228 H228       -7.0066  -26.1970  -51.9227 H         1 UNK         0.0600 
    229 H229       -5.8693  -25.3827  -50.8612 H         1 UNK         0.0600 
    230 H230       -4.7572  -22.8980  -51.9823 H         1 UNK         0.3000 
    231 H231       -3.5791  -23.8957  -54.4738 H         1 UNK         0.0600 
    232 H232       -2.2119  -23.6747  -52.4007 H         1 UNK         0.0600 
    233 H233       -1.5889  -22.6281  -53.6640 H         1 UNK         0.0600 
    234 H234       -2.5322  -21.9411  -52.3495 H         1 UNK         0.0600 
    235 H235       -5.3962  -21.1401  -53.4739 H         1 UNK         0.3000 
    236 H236       -6.0161  -19.1942  -54.2805 H         1 UNK         0.0600 
    237 H237       -6.7609  -20.5131  -56.2801 H         1 UNK         0.0600 
    238 H238       -6.2973  -18.8757  -56.7114 H         1 UNK         0.0600 
    239 H239       -5.2073  -20.2116  -57.0578 H         1 UNK         0.0600 
    240 H240       -3.3535  -19.5213  -53.2834 H         1 UNK         0.3000 
    241 H241       -1.3542  -18.6675  -53.0814 H         1 UNK         0.0600 
    242 H242       -1.9187  -20.2334  -55.7078 H         1 UNK         0.3800 
    243 H243       -0.4825  -19.8597  -56.6232 H         1 UNK         0.3800 
    244 H244       -2.8123  -16.4555  -53.0489 H         1 UNK         0.0800 
    245 H245       -2.0400  -16.1047  -54.5647 H         1 UNK         0.0800 
    246 H246       -1.6730  -17.2612  -51.0288 H         1 UNK         0.0800 
    247 H247       -1.1801  -15.7030  -50.4391 H         1 UNK         0.0800 
@<TRIPOS>BOND
     1    1    2 1    
     2    1  127 1    
     3    1  128 1    
     4    1  129 1    
     5    2    3 2    
     6    2    4 am   BACKBONE|DICT|INTERRES
     7    4    5 1    
     8    4  130 1    
     9    5    6 1    
    10    5   65 1    
    11    5  131 1    
    12    6    7 1    
    13    6  132 1    
    14    6  133 1    
    15    7    8 1    
    16    8    9 1    
    17    8  134 1    
    18    8  135 1    
    19    9   10 ar   
    20    9   14 ar   
    21   10   11 ar   
    22   10  136 1    
    23   11   12 ar   
    24   11  126 1    
    25   12   13 ar   
    26   12  137 1    
    27   13   14 ar   
    28   13   15 1    
    29   14  138 1    
    30   15   16 1    
    31   15  139 1    
    32   15  140 1    
    33   16   17 1    
    34   17   18 1    
    35   17  141 1    
    36   17  142 1    
    37   18   19 1    
    38   18   67 1    
    39   18  143 1    
    40   19   20 am   BACKBONE|DICT|INTERRES
    41   19  144 1    
    42   20   21 2    
    43   20   22 1    
    44   22   23 1    
    45   22   24 1    
    46   22  145 1    
    47   23  146 1    
    48   23  147 1    
    49   23  148 1    
    50   24   25 am   BACKBONE|DICT|INTERRES
    51   24  149 1    
    52   25   26 2    
    53   25   27 1    
    54   27   28 1    
    55   27   29 1    
    56   27  150 1    
    57   28  151 1    
    58   28  152 1    
    59   28  153 1    
    60   29   30 am   BACKBONE|DICT|INTERRES
    61   29  154 1    
    62   30   31 2    
    63   30   32 1    
    64   32   33 1    
    65   32   34 1    
    66   32  155 1    
    67   33  156 1    
    68   33  157 1    
    69   33  158 1    
    70   34   35 am   BACKBONE|DICT|INTERRES
    71   34  159 1    
    72   35   36 2    
    73   35   37 1    
    74   37   38 1    
    75   37   39 1    
    76   37  160 1    
    77   38  161 1    
    78   38  162 1    
    79   38  163 1    
    80   39   40 am   BACKBONE|DICT|INTERRES
    81   39  164 1    
    82   40   41 2    
    83   40   42 1    
    84   42   43 1    
    85   42   44 1    
    86   42  165 1    
    87   43  166 1    
    88   43  167 1    
    89   43  168 1    
    90   44   45 am   BACKBONE|DICT|INTERRES
    91   44  169 1    
    92   45   46 2    
    93   45   47 1    
    94   47   48 1    
    95   47   49 1    
    96   47  170 1    
    97   48  171 1    
    98   48  172 1    
    99   48  173 1    
   100   49   50 am   BACKBONE|DICT|INTERRES
   101   49  174 1    
   102   50   51 2    
   103   50   52 1    
   104   52   53 1    
   105   52   54 1    
   106   52  175 1    
   107   53  176 1    
   108   53  177 1    
   109   53  178 1    
   110   54   55 am   BACKBONE|DICT|INTERRES
   111   54  179 1    
   112   55   56 2    
   113   55   57 1    
   114   57   58 1    
   115   57   59 1    
   116   57  180 1    
   117   58  181 1    
   118   58  182 1    
   119   58  183 1    
   120   59   60 am   BACKBONE|DICT|INTERRES
   121   59  184 1    
   122   60   61 2    
   123   60   62 1    
   124   62   63 1    
   125   62   64 1    
   126   62  185 1    
   127   63  186 1    
   128   63  187 1    
   129   63  188 1    
   130   64   65 am   BACKBONE|DICT|INTERRES
   131   64  189 1    
   132   65   66 2    
   133   67   68 2    
   134   67   69 am   BACKBONE|DICT|INTERRES
   135   69   70 1    
   136   69  190 1    
   137   70   71 1    
   138   70   72 1    
   139   70  191 1    
   140   71  192 1    
   141   71  193 1    
   142   71  194 1    
   143   72   73 2    
   144   72   74 am   BACKBONE|DICT|INTERRES
   145   74   75 1    
   146   74  195 1    
   147   75   76 1    
   148   75   77 1    
   149   75  196 1    
   150   76  197 1    
   151   76  198 1    
   152   76  199 1    
   153   77   78 2    
   154   77   79 am   BACKBONE|DICT|INTERRES
   155   79   80 1    
   156   79  200 1    
   157   80   81 1    
   158   80   82 1    
   159   80  201 1    
   160   81  202 1    
   161   81  203 1    
   162   81  204 1    
   163   82   83 2    
   164   82   84 am   BACKBONE|DICT|INTERRES
   165   84   85 1    
   166   84  205 1    
   167   85   86 1    
   168   85   87 1    
   169   85  206 1    
   170   86  207 1    
   171   86  208 1    
   172   86  209 1    
   173   87   88 2    
   174   87   89 am   BACKBONE|DICT|INTERRES
   175   89   90 1    
   176   89  210 1    
   177   90   91 1    
   178   90   92 1    
   179   90  211 1    
   180   91  212 1    
   181   91  213 1    
   182   91  214 1    
   183   92   93 2    
   184   92   94 am   BACKBONE|DICT|INTERRES
   185   94   95 1    
   186   94  215 1    
   187   95   96 1    
   188   95   97 1    
   189   95  216 1    
   190   96  217 1    
   191   96  218 1    
   192   96  219 1    
   193   97   98 2    
   194   97   99 am   BACKBONE|DICT|INTERRES
   195   99  100 1    
   196   99  220 1    
   197  100  101 1    
   198  100  102 1    
   199  100  221 1    
   200  101  222 1    
   201  101  223 1    
   202  101  224 1    
   203  102  103 2    
   204  102  104 am   BACKBONE|DICT|INTERRES
   205  104  105 1    
   206  104  225 1    
   207  105  106 1    
   208  105  107 1    
   209  105  226 1    
   210  106  227 1    
   211  106  228 1    
   212  106  229 1    
   213  107  108 2    
   214  107  109 am   BACKBONE|DICT|INTERRES
   215  109  110 1    
   216  109  230 1    
   217  110  111 1    
   218  110  112 1    
   219  110  231 1    
   220  111  232 1    
   221  111  233 1    
   222  111  234 1    
   223  112  113 2    
   224  112  114 am   BACKBONE|DICT|INTERRES
   225  114  115 1    
   226  114  235 1    
   227  115  116 1    
   228  115  117 1    
   229  115  236 1    
   230  116  237 1    
   231  116  238 1    
   232  116  239 1    
   233  117  118 2    
   234  117  119 am   BACKBONE|DICT|INTERRES
   235  119  120 1    
   236  119  240 1    
   237  120  121 1    
   238  120  124 1    
   239  120  241 1    
   240  121  122 am   BACKBONE|DICT|INTERRES
   241  121  123 2    
   242  122  242 1    
   243  122  243 1    
   244  124  125 1    
   245  124  244 1    
   246  124  245 1    
   247  125  126 1    
   248  126  246 1    
   249  126  247 1    
@<TRIPOS>SUBSTRUCTURE
     1 UNK         1 GROUP             0       ****    0 ROOT    
