@<TRIPOS>MOLECULE
3R540
247   249    1
SMALL
USER_CHARGES


@<TRIPOS>ATOM
      1 CA          6.0405  -11.7072  -48.1611 C.3       0 UNK        -0.1800 
      2 C           5.0529  -12.4523  -47.2753 C.2       0 UNK         0.5000 
      3 O           4.9088  -12.1168  -46.1013 O.2       0 UNK        -0.5000 
      4 N           4.3569  -13.4493  -47.8362 N.am      1 UNK        -0.5000 
      5 CA          3.3658  -14.2977  -47.1559 C.3       1 UNK         0.1400 
      6 C6          2.9350  -15.4887  -48.0510 C.3       23 UNK        -0.0398 
      7 S7          2.1878  -14.9621  -49.6367 S.3       23 UNK        -0.2404 
      8 C8          2.7693  -16.2418  -50.7948 C.3       23 UNK        -0.0205 
      9 C9          1.9526  -17.5249  -50.7135 C.ar      23 UNK        -0.0193 
     10 C10         0.5666  -17.4895  -50.8950 C.ar      23 UNK        -0.1150 
     11 C11        -0.1869  -18.6662  -50.8813 C.ar      23 UNK        -0.0193 
     12 C12         0.4563  -19.8881  -50.6703 C.ar      23 UNK        -0.1150 
     13 C13         1.8411  -19.9401  -50.4855 C.ar      23 UNK        -0.0193 
     14 C14         2.5845  -18.7555  -50.5111 C.ar      23 UNK        -0.1150 
     15 C15         2.5288  -21.2813  -50.2677 C.3       23 UNK        -0.0205 
     16 S16         3.3447  -21.4163  -48.6415 S.3       23 UNK        -0.2404 
     17 C17         2.0156  -20.9601  -47.4764 C.3       23 UNK        -0.0398 
     18 CA          1.2510  -22.1673  -46.8870 C.3       11 UNK         0.1400 
     19 N           0.5578  -21.8033  -45.6501 N.am      11 UNK        -0.5000 
     20 C          -0.0683  -22.6619  -44.8341 C.2       10 UNK         0.5000 
     21 O          -0.0755  -23.8821  -44.9982 O.2       10 UNK        -0.5000 
     22 CA         -0.8588  -22.0455  -43.6661 C.3       10 UNK         0.1400 
     23 CB          0.0769  -21.6878  -42.5020 C.3       10 UNK        -0.1800 
     24 N          -1.6191  -20.8607  -44.0705 N.am      10 UNK        -0.5000 
     25 C          -2.6396  -20.8765  -44.9396 C.2       9 UNK         0.5000 
     26 O          -3.0817  -21.9066  -45.4471 O.2       9 UNK        -0.5000 
     27 CA         -3.2392  -19.5165  -45.3471 C.3       9 UNK         0.1400 
     28 CB         -4.2295  -19.0075  -44.2905 C.3       9 UNK        -0.1800 
     29 N          -2.2194  -18.4979  -45.6031 N.am      9 UNK        -0.5000 
     30 C          -1.3209  -18.5676  -46.5956 C.2       8 UNK         0.5000 
     31 O          -1.2806  -19.4794  -47.4179 O.2       8 UNK        -0.5000 
     32 CA         -0.2545  -17.4629  -46.6504 C.3       8 UNK         0.1400 
     33 CB         -0.8073  -16.2170  -47.3611 C.3       8 UNK        -0.1800 
     34 N           0.2508  -17.1173  -45.3185 N.am      8 UNK        -0.5000 
     35 C           0.9331  -17.9636  -44.5308 C.2       7 UNK         0.5000 
     36 O           1.2532  -19.1011  -44.8719 O.2       7 UNK        -0.5000 
     37 CA          1.2669  -17.4890  -43.1052 C.3       7 UNK         0.1400 
     38 CB          2.4815  -16.5492  -43.1131 C.3       7 UNK        -0.1800 
     39 N           0.1340  -16.8287  -42.4581 N.am      7 UNK        -0.5000 
     40 C          -1.0264  -17.4296  -42.1490 C.2       6 UNK         0.5000 
     41 O          -1.2267  -18.6336  -42.2990 O.2       6 UNK        -0.5000 
     42 CA         -2.1784  -16.5344  -41.6415 C.3       6 UNK         0.1400 
     43 CB         -2.1723  -16.4686  -40.1075 C.3       6 UNK        -0.1800 
     44 N          -2.1249  -15.1747  -42.1800 N.am      6 UNK        -0.5000 
     45 C          -2.1300  -14.8690  -43.4840 C.2       5 UNK         0.5000 
     46 O          -2.3986  -15.6894  -44.3625 O.2       5 UNK        -0.5000 
     47 CA         -1.6997  -13.4423  -43.8893 C.3       5 UNK         0.1400 
     48 CB         -2.8862  -12.6688  -44.4833 C.3       5 UNK        -0.1800 
     49 N          -1.0741  -12.6183  -42.8434 N.am      5 UNK        -0.5000 
     50 C           0.0024  -12.9177  -42.0997 C.2       4 UNK         0.5000 
     51 O           0.5681  -14.0111  -42.1129 O.2       4 UNK        -0.5000 
     52 CA          0.5374  -11.7715  -41.2203 C.3       4 UNK         0.1400 
     53 CB          1.3930  -12.2577  -40.0308 C.3       4 UNK        -0.1800 
     54 N           1.2494  -10.8030  -42.0591 N.am      4 UNK        -0.5000 
     55 C           2.3806  -11.0084  -42.7499 C.2       3 UNK         0.5000 
     56 O           3.1253  -11.9798  -42.6106 O.2       3 UNK        -0.5000 
     57 CA          2.6811   -9.9803  -43.8527 C.3       3 UNK         0.1400 
     58 CB          4.1668   -9.5853  -43.8925 C.3       3 UNK        -0.1800 
     59 N           2.2883  -10.5552  -45.1381 N.am      3 UNK        -0.5000 
     60 C           1.0170  -10.6782  -45.5510 C.2       2 UNK         0.5000 
     61 O           0.0590  -10.1987  -44.9427 O.2       2 UNK        -0.5000 
     62 CA          0.7545  -11.4629  -46.8510 C.3       2 UNK         0.1400 
     63 CB          0.4859  -10.4990  -48.0164 C.3       2 UNK        -0.1800 
     64 N           1.8483  -12.3580  -47.2237 N.am      2 UNK        -0.5000 
     65 C           2.1378  -13.5202  -46.6211 C.2       1 UNK         0.5000 
     66 O           1.4833  -13.9850  -45.6881 O.2       1 UNK        -0.5000 
     67 C           0.2828  -22.7965  -47.9104 C.2       11 UNK         0.5000 
     68 O           0.5999  -23.8400  -48.4803 O.2       11 UNK        -0.5000 
     69 N          -0.8995  -22.1871  -48.0852 N.am      12 UNK        -0.5000 
     70 CA         -1.9839  -22.6962  -48.9226 C.3       12 UNK         0.1400 
     71 CB         -3.1413  -21.6898  -48.9619 C.3       12 UNK        -0.1800 
     72 C          -2.4846  -24.0722  -48.4596 C.2       12 UNK         0.5000 
     73 O          -2.6055  -24.9718  -49.2874 O.2       12 UNK        -0.5000 
     74 N          -2.7129  -24.2303  -47.1484 N.am      13 UNK        -0.5000 
     75 CA         -3.1207  -25.4907  -46.5263 C.3       13 UNK         0.1400 
     76 CB         -3.4146  -25.2629  -45.0361 C.3       13 UNK        -0.1800 
     77 C          -2.0892  -26.6183  -46.7204 C.2       13 UNK         0.5000 
     78 O          -2.4787  -27.7438  -47.0328 O.2       13 UNK        -0.5000 
     79 N          -0.7968  -26.2887  -46.5832 N.am      14 UNK        -0.5000 
     80 CA          0.3239  -27.1960  -46.8404 C.3       14 UNK         0.1400 
     81 CB          1.6256  -26.5565  -46.3337 C.3       14 UNK        -0.1800 
     82 C           0.4488  -27.5922  -48.3255 C.2       14 UNK         0.5000 
     83 O           0.7473  -28.7494  -48.6228 O.2       14 UNK        -0.5000 
     84 N           0.1953  -26.6353  -49.2280 N.am      15 UNK        -0.5000 
     85 CA          0.1923  -26.8233  -50.6810 C.3       15 UNK         0.1400 
     86 CB          0.3452  -25.4484  -51.3534 C.3       15 UNK        -0.1800 
     87 C          -1.0648  -27.5420  -51.2168 C.2       15 UNK         0.5000 
     88 O          -1.0684  -27.9445  -52.3808 O.2       15 UNK        -0.5000 
     89 N          -2.1047  -27.6671  -50.3785 N.am      16 UNK        -0.5000 
     90 CA         -3.4565  -28.1475  -50.6880 C.3       16 UNK         0.1400 
     91 CB         -3.4436  -29.6311  -51.1121 C.3       16 UNK        -0.1800 
     92 C          -4.1907  -27.2253  -51.6876 C.2       16 UNK         0.5000 
     93 O          -4.8914  -27.7014  -52.5831 O.2       16 UNK        -0.5000 
     94 N          -4.0051  -25.9147  -51.5051 N.am      17 UNK        -0.5000 
     95 CA         -4.6073  -24.8278  -52.2688 C.3       17 UNK         0.1400 
     96 CB         -3.4673  -23.9555  -52.8233 C.3       17 UNK        -0.1800 
     97 C          -5.5290  -23.9966  -51.3578 C.2       17 UNK         0.5000 
     98 O          -5.5876  -24.2290  -50.1475 O.2       17 UNK        -0.5000 
     99 N          -6.2210  -23.0199  -51.9529 N.am      18 UNK        -0.5000 
    100 CA        -6.9724  -21.9940  -51.2318 C.3       18 UNK         0.1400 
    101 CB        -8.2259  -21.6328  -52.0426 C.3       18 UNK        -0.1800 
    102 C         -6.0863  -20.7527  -51.0479 C.2       18 UNK         0.5000 
    103 O         -5.2151  -20.4960  -51.8790 O.2       18 UNK        -0.5000 
    104 N         -6.3476  -19.9646  -49.9984 N.am      19 UNK        -0.5000 
    105 CA        -5.6264  -18.7156  -49.7195 C.3       19 UNK         0.1400 
    106 CB        -5.9758  -18.2407  -48.3008 C.3       19 UNK        -0.1800 
    107 C         -5.8996  -17.6010  -50.7538 C.2       19 UNK         0.5000 
    108 O         -5.0926  -16.6809  -50.8805 O.2       19 UNK        -0.5000 
    109 N         -7.0263  -17.7083  -51.4711 N.am      20 UNK        -0.5000 
    110 CA        -7.4444  -16.7982  -52.5382 C.3       20 UNK         0.1400 
    111 CB        -8.9658  -16.6004  -52.4300 C.3       20 UNK        -0.1800 
    112 C         -7.0680  -17.3051  -53.9469 C.2       20 UNK         0.5000 
    113 O         -7.2968  -16.5830  -54.9184 O.2       20 UNK        -0.5000 
    114 N         -6.5233  -18.5242  -54.0544 N.am      21 UNK        -0.5000 
    115 CA        -6.1657  -19.1760  -55.3133 C.3       21 UNK         0.1400 
    116 CB        -7.3936  -19.8853  -55.9175 C.3       21 UNK        -0.1800 
    117 C         -4.9840  -20.1166  -55.0462 C.2       21 UNK         0.5000 
    118 O         -5.1371  -21.3397  -55.0733 O.2       21 UNK        -0.5000 
    119 N         -3.8458  -19.4992  -54.7139 N.am      22 UNK        -0.5000 
    120 CA        -2.5919  -20.1421  -54.2972 C.3       22 UNK         0.1400 
    121 C         -1.9921  -21.1059  -55.3604 C.2       22 UNK         0.5000 
    122 N         -1.2986  -22.1533  -54.9346 N.am      22 UNK        -0.7600 
    123 O         -2.1017  -20.8848  -56.5648 O.2       22 UNK        -0.5000 
    124 C124       -1.5334  -19.0863  -53.8843 C.3       23 UNK        -0.0398 
    125 S125       -2.1560  -17.8576  -52.6824 S.3       23 UNK        -0.2404 
    126 C126       -1.6936  -18.6191  -51.0955 C.3       23 UNK        -0.0205 
    127 H127        5.7784  -10.6502  -48.2080 H         1 UNK         0.0600 
    128 H128        6.0509  -12.1011  -49.1777 H         1 UNK         0.0600 
    129 H129        7.0475  -11.7920  -47.7528 H         1 UNK         0.0600 
    130 H130        4.5029  -13.6621  -48.8131 H         1 UNK         0.3000 
    131 H131        3.8616  -14.7153  -46.2769 H         1 UNK         0.0600 
    132 H132        3.8052  -16.1131  -48.2571 H         1 UNK         0.0800 
    133 H133        2.2352  -16.1358  -47.5230 H         1 UNK         0.0800 
    134 H134        2.6869  -15.8504  -51.8095 H         1 UNK         0.0800 
    135 H135        3.8303  -16.4345  -50.6295 H         1 UNK         0.0800 
    136 H136        0.0728  -16.5427  -51.0637 H         1 UNK         0.1150 
    137 H137       -0.1220  -20.8007  -50.6517 H         1 UNK         0.1150 
    138 H138        3.6564  -18.7972  -50.3778 H         1 UNK         0.1150 
    139 H139        1.8207  -22.1037  -50.3788 H         1 UNK         0.0800 
    140 H140        3.2783  -21.4234  -51.0472 H         1 UNK         0.0800 
    141 H141        1.3328  -20.2308  -47.9118 H         1 UNK         0.0800 
    142 H142        2.5212  -20.4300  -46.6694 H         1 UNK         0.0800 
    143 H143        1.9824  -22.9324  -46.6178 H         1 UNK         0.0600 
    144 H144        0.5569  -20.8159  -45.4097 H         1 UNK         0.3000 
    145 H145       -1.5690  -22.7958  -43.3126 H         1 UNK         0.0600 
    146 H146        0.6472  -22.5588  -42.1768 H         1 UNK         0.0600 
    147 H147        0.7904  -20.9120  -42.7815 H         1 UNK         0.0600 
    148 H148       -0.4867  -21.3277  -41.6412 H         1 UNK         0.0600 
    149 H149       -1.3519  -19.9795  -43.6399 H         1 UNK         0.3000 
    150 H150       -3.7894  -19.6681  -46.2776 H         1 UNK         0.0600 
    151 H151       -5.0465  -19.7166  -44.1520 H         1 UNK         0.0600 
    152 H152       -4.6703  -18.0555  -44.5875 H         1 UNK         0.0600 
    153 H153       -3.7505  -18.8691  -43.3219 H         1 UNK         0.0600 
    154 H154       -2.2027  -17.6894  -44.9912 H         1 UNK         0.3000 
    155 H155        0.5828  -17.8437  -47.2388 H         1 UNK         0.0600 
    156 H156       -1.6856  -15.8135  -46.8584 H         1 UNK         0.0600 
    157 H157       -0.0654  -15.4232  -47.4196 H         1 UNK         0.0600 
    158 H158       -1.1007  -16.4568  -48.3839 H         1 UNK         0.0600 
    159 H159        0.0105  -16.2032  -44.9623 H         1 UNK         0.3000 
    160 H160        1.5236  -18.3696  -42.5128 H         1 UNK         0.0600 
    161 H161        2.2785  -15.6315  -43.6663 H         1 UNK         0.0600 
    162 H162        3.3450  -17.0285  -43.5758 H         1 UNK         0.0600 
    163 H163        2.7677  -16.2678  -42.0996 H         1 UNK         0.0600 
    164 H164        0.2271  -15.8262  -42.3046 H         1 UNK         0.3000 
    165 H165       -3.1190  -16.9839  -41.9642 H         1 UNK         0.0600 
    166 H166       -3.0238  -15.9002  -39.7331 H         1 UNK         0.0600 
    167 H167       -2.2337  -17.4679  -39.6742 H         1 UNK         0.0600 
    168 H168       -1.2622  -16.0013  -39.7289 H         1 UNK         0.0600 
    169 H169       -1.8801  -14.4432  -41.5298 H         1 UNK         0.3000 
    170 H170       -0.9550  -13.5641  -44.6770 H         1 UNK         0.0600 
    171 H171       -3.3545  -13.2282  -45.2946 H         1 UNK         0.0600 
    172 H172       -3.6531  -12.4734  -43.7329 H         1 UNK         0.0600 
    173 H173       -2.5659  -11.7119  -44.8964 H         1 UNK         0.0600 
    174 H174       -1.4484  -11.6838  -42.7624 H         1 UNK         0.3000 
    175 H175       -0.3255  -11.2496  -40.8036 H         1 UNK         0.0600 
    176 H176        2.2500  -12.8524  -40.3471 H         1 UNK         0.0600 
    177 H177        1.7660  -11.4178  -39.4450 H         1 UNK         0.0600 
    178 H178        0.7996  -12.8830  -39.3628 H         1 UNK         0.0600 
    179 H179        0.7128   -9.9805  -42.2994 H         1 UNK         0.3000 
    180 H180        2.1006   -9.0728  -43.6726 H         1 UNK         0.0600 
    181 H181        4.8159  -10.4477  -44.0453 H         1 UNK         0.0600 
    182 H182        4.4663   -9.1146  -42.9556 H         1 UNK         0.0600 
    183 H183        4.3641   -8.8728  -44.6936 H         1 UNK         0.0600 
    184 H184        3.0175  -11.0371  -45.6500 H         1 UNK         0.3000 
    185 H185       -0.1428  -12.0652  -46.6933 H         1 UNK         0.0600 
    186 H186       -0.3488   -9.8344  -47.7897 H         1 UNK         0.0600 
    187 H187        1.3543   -9.8746  -48.2305 H         1 UNK         0.0600 
    188 H188        0.2290  -11.0421  -48.9261 H         1 UNK         0.0600 
    189 H189        2.4345  -12.0647  -47.9914 H         1 UNK         0.3000 
    190 H190       -1.0685  -21.2949  -47.6256 H         1 UNK         0.3000 
    191 H191       -1.5906  -22.8023  -49.9352 H         1 UNK         0.0600 
    192 H192       -3.6467  -21.6059  -48.0007 H         1 UNK         0.0600 
    193 H193       -3.8849  -21.9984  -49.6944 H         1 UNK         0.0600 
    194 H194       -2.8004  -20.6957  -49.2395 H         1 UNK         0.0600 
    195 H195       -2.6302  -23.4232  -46.5357 H         1 UNK         0.3000 
    196 H196       -4.0479  -25.8063  -47.0091 H         1 UNK         0.0600 
    197 H197       -3.7512  -26.1841  -44.5593 H         1 UNK         0.0600 
    198 H198       -4.1999  -24.5193  -44.8991 H         1 UNK         0.0600 
    199 H199       -2.5315  -24.9182  -44.4982 H         1 UNK         0.0600 
    200 H200       -0.5629  -25.3477  -46.2807 H         1 UNK         0.3000 
    201 H201        0.1516  -28.1098  -46.2680 H         1 UNK         0.0600 
    202 H202        1.5679  -26.3384  -45.2671 H         1 UNK         0.0600 
    203 H203        1.8460  -25.6235  -46.8529 H         1 UNK         0.0600 
    204 H204        2.4739  -27.2251  -46.4846 H         1 UNK         0.0600 
    205 H205        0.0225  -25.6902  -48.8974 H         1 UNK         0.3000 
    206 H206        1.0568  -27.4325  -50.9523 H         1 UNK         0.0600 
    207 H207        1.2594  -24.9500  -51.0304 H         1 UNK         0.0600 
    208 H208        0.3936  -25.5440  -52.4388 H         1 UNK         0.0600 
    209 H209       -0.4939  -24.7926  -51.1194 H         1 UNK         0.0600 
    210 H210       -1.9975  -27.2524  -49.4617 H         1 UNK         0.3000 
    211 H211       -4.0155  -28.0814  -49.7535 H         1 UNK         0.0600 
    212 H212       -2.9639  -29.7753  -52.0803 H         1 UNK         0.0600 
    213 H213       -4.4589  -30.0211  -51.1915 H         1 UNK         0.0600 
    214 H214       -2.9171  -30.2447  -50.3810 H         1 UNK         0.0600 
    215 H215       -3.4722  -25.6156  -50.6881 H         1 UNK         0.3000 
    216 H216       -5.2012  -25.2178  -53.0977 H         1 UNK         0.0600 
    217 H217       -3.8522  -23.1551  -53.4554 H         1 UNK         0.0600 
    218 H218       -2.7822  -24.5455  -53.4325 H         1 UNK         0.0600 
    219 H219       -2.8889  -23.4934  -52.0225 H         1 UNK         0.0600 
    220 H220       -6.0577  -22.8333  -52.9333 H         1 UNK         0.3000 
    221 H221       -7.2837  -22.3609  -50.2514 H         1 UNK         0.0600 
    222 H222       -7.9686  -21.2187  -53.0170 H         1 UNK         0.0600 
    223 H223       -8.8540  -22.5086  -52.2068 H         1 UNK         0.0600 
    224 H224       -8.8329  -20.8923  -51.5204 H         1 UNK         0.0600 
    225 H225       -7.0809  -20.2197  -49.3522 H         1 UNK         0.3000 
    226 H226       -4.5561  -18.9298  -49.7497 H         1 UNK         0.0600 
    227 H227       -5.7481  -19.0069  -47.5601 H         1 UNK         0.0600 
    228 H228       -5.4018  -17.3521  -48.0343 H         1 UNK         0.0600 
    229 H229       -7.0332  -17.9894  -48.2099 H         1 UNK         0.0600 
    230 H230       -7.6375  -18.4883  -51.2818 H         1 UNK         0.3000 
    231 H231       -6.9666  -15.8253  -52.4055 H         1 UNK         0.0600 
    232 H232       -9.3248  -15.8921  -53.1779 H         1 UNK         0.0600 
    233 H233       -9.2431  -16.2046  -51.4528 H         1 UNK         0.0600 
    234 H234       -9.5053  -17.5367  -52.5789 H         1 UNK         0.0600 
    235 H235       -6.2751  -19.0348  -53.2151 H         1 UNK         0.3000 
    236 H236       -5.8199  -18.4272  -56.0294 H         1 UNK         0.0600 
    237 H237       -8.1930  -19.1766  -56.1337 H         1 UNK         0.0600 
    238 H238       -7.1339  -20.3770  -56.8556 H         1 UNK         0.0600 
    239 H239       -7.7939  -20.6467  -55.2492 H         1 UNK         0.0600 
    240 H240       -3.8386  -18.4907  -54.6831 H         1 UNK         0.3000 
    241 H241       -2.8348  -20.7373  -53.4149 H         1 UNK         0.0600 
    242 H242       -1.1709  -22.3455  -53.9547 H         1 UNK         0.3800 
    243 H243       -0.8894  -22.7729  -55.6164 H         1 UNK         0.3800 
    244 H244       -0.6457  -19.5727  -53.4772 H         1 UNK         0.0800 
    245 H245       -1.1925  -18.5345  -54.7621 H         1 UNK         0.0800 
    246 H246       -2.1506  -18.0563  -50.2805 H         1 UNK         0.0800 
    247 H247       -2.1242  -19.6195  -51.0665 H         1 UNK         0.0800 
@<TRIPOS>BOND
     1    1    2 1    
     2    1  127 1    
     3    1  128 1    
     4    1  129 1    
     5    2    3 2    
     6    2    4 am   BACKBONE|DICT|INTERRES
     7    4    5 1    
     8    4  130 1    
     9    5    6 1    
    10    5   65 1    
    11    5  131 1    
    12    6    7 1    
    13    6  132 1    
    14    6  133 1    
    15    7    8 1    
    16    8    9 1    
    17    8  134 1    
    18    8  135 1    
    19    9   10 ar   
    20    9   14 ar   
    21   10   11 ar   
    22   10  136 1    
    23   11   12 ar   
    24   11  126 1    
    25   12   13 ar   
    26   12  137 1    
    27   13   14 ar   
    28   13   15 1    
    29   14  138 1    
    30   15   16 1    
    31   15  139 1    
    32   15  140 1    
    33   16   17 1    
    34   17   18 1    
    35   17  141 1    
    36   17  142 1    
    37   18   19 1    
    38   18   67 1    
    39   18  143 1    
    40   19   20 am   BACKBONE|DICT|INTERRES
    41   19  144 1    
    42   20   21 2    
    43   20   22 1    
    44   22   23 1    
    45   22   24 1    
    46   22  145 1    
    47   23  146 1    
    48   23  147 1    
    49   23  148 1    
    50   24   25 am   BACKBONE|DICT|INTERRES
    51   24  149 1    
    52   25   26 2    
    53   25   27 1    
    54   27   28 1    
    55   27   29 1    
    56   27  150 1    
    57   28  151 1    
    58   28  152 1    
    59   28  153 1    
    60   29   30 am   BACKBONE|DICT|INTERRES
    61   29  154 1    
    62   30   31 2    
    63   30   32 1    
    64   32   33 1    
    65   32   34 1    
    66   32  155 1    
    67   33  156 1    
    68   33  157 1    
    69   33  158 1    
    70   34   35 am   BACKBONE|DICT|INTERRES
    71   34  159 1    
    72   35   36 2    
    73   35   37 1    
    74   37   38 1    
    75   37   39 1    
    76   37  160 1    
    77   38  161 1    
    78   38  162 1    
    79   38  163 1    
    80   39   40 am   BACKBONE|DICT|INTERRES
    81   39  164 1    
    82   40   41 2    
    83   40   42 1    
    84   42   43 1    
    85   42   44 1    
    86   42  165 1    
    87   43  166 1    
    88   43  167 1    
    89   43  168 1    
    90   44   45 am   BACKBONE|DICT|INTERRES
    91   44  169 1    
    92   45   46 2    
    93   45   47 1    
    94   47   48 1    
    95   47   49 1    
    96   47  170 1    
    97   48  171 1    
    98   48  172 1    
    99   48  173 1    
   100   49   50 am   BACKBONE|DICT|INTERRES
   101   49  174 1    
   102   50   51 2    
   103   50   52 1    
   104   52   53 1    
   105   52   54 1    
   106   52  175 1    
   107   53  176 1    
   108   53  177 1    
   109   53  178 1    
   110   54   55 am   BACKBONE|DICT|INTERRES
   111   54  179 1    
   112   55   56 2    
   113   55   57 1    
   114   57   58 1    
   115   57   59 1    
   116   57  180 1    
   117   58  181 1    
   118   58  182 1    
   119   58  183 1    
   120   59   60 am   BACKBONE|DICT|INTERRES
   121   59  184 1    
   122   60   61 2    
   123   60   62 1    
   124   62   63 1    
   125   62   64 1    
   126   62  185 1    
   127   63  186 1    
   128   63  187 1    
   129   63  188 1    
   130   64   65 am   BACKBONE|DICT|INTERRES
   131   64  189 1    
   132   65   66 2    
   133   67   68 2    
   134   67   69 am   BACKBONE|DICT|INTERRES
   135   69   70 1    
   136   69  190 1    
   137   70   71 1    
   138   70   72 1    
   139   70  191 1    
   140   71  192 1    
   141   71  193 1    
   142   71  194 1    
   143   72   73 2    
   144   72   74 am   BACKBONE|DICT|INTERRES
   145   74   75 1    
   146   74  195 1    
   147   75   76 1    
   148   75   77 1    
   149   75  196 1    
   150   76  197 1    
   151   76  198 1    
   152   76  199 1    
   153   77   78 2    
   154   77   79 am   BACKBONE|DICT|INTERRES
   155   79   80 1    
   156   79  200 1    
   157   80   81 1    
   158   80   82 1    
   159   80  201 1    
   160   81  202 1    
   161   81  203 1    
   162   81  204 1    
   163   82   83 2    
   164   82   84 am   BACKBONE|DICT|INTERRES
   165   84   85 1    
   166   84  205 1    
   167   85   86 1    
   168   85   87 1    
   169   85  206 1    
   170   86  207 1    
   171   86  208 1    
   172   86  209 1    
   173   87   88 2    
   174   87   89 am   BACKBONE|DICT|INTERRES
   175   89   90 1    
   176   89  210 1    
   177   90   91 1    
   178   90   92 1    
   179   90  211 1    
   180   91  212 1    
   181   91  213 1    
   182   91  214 1    
   183   92   93 2    
   184   92   94 am   BACKBONE|DICT|INTERRES
   185   94   95 1    
   186   94  215 1    
   187   95   96 1    
   188   95   97 1    
   189   95  216 1    
   190   96  217 1    
   191   96  218 1    
   192   96  219 1    
   193   97   98 2    
   194   97   99 am   BACKBONE|DICT|INTERRES
   195   99  100 1    
   196   99  220 1    
   197  100  101 1    
   198  100  102 1    
   199  100  221 1    
   200  101  222 1    
   201  101  223 1    
   202  101  224 1    
   203  102  103 2    
   204  102  104 am   BACKBONE|DICT|INTERRES
   205  104  105 1    
   206  104  225 1    
   207  105  106 1    
   208  105  107 1    
   209  105  226 1    
   210  106  227 1    
   211  106  228 1    
   212  106  229 1    
   213  107  108 2    
   214  107  109 am   BACKBONE|DICT|INTERRES
   215  109  110 1    
   216  109  230 1    
   217  110  111 1    
   218  110  112 1    
   219  110  231 1    
   220  111  232 1    
   221  111  233 1    
   222  111  234 1    
   223  112  113 2    
   224  112  114 am   BACKBONE|DICT|INTERRES
   225  114  115 1    
   226  114  235 1    
   227  115  116 1    
   228  115  117 1    
   229  115  236 1    
   230  116  237 1    
   231  116  238 1    
   232  116  239 1    
   233  117  118 2    
   234  117  119 am   BACKBONE|DICT|INTERRES
   235  119  120 1    
   236  119  240 1    
   237  120  121 1    
   238  120  124 1    
   239  120  241 1    
   240  121  122 am   BACKBONE|DICT|INTERRES
   241  121  123 2    
   242  122  242 1    
   243  122  243 1    
   244  124  125 1    
   245  124  244 1    
   246  124  245 1    
   247  125  126 1    
   248  126  246 1    
   249  126  247 1    
@<TRIPOS>SUBSTRUCTURE
     1 UNK         1 GROUP             0       ****    0 ROOT    
