@<TRIPOS>MOLECULE
3R540
247   249    1
SMALL
USER_CHARGES


@<TRIPOS>ATOM
      1 CA          4.8254  -15.7731  -48.1401 C.3       0 UNK        -0.1800 
      2 C           3.3107  -15.6763  -48.2472 C.2       0 UNK         0.5000 
      3 O           2.6025  -16.3660  -47.5151 O.2       0 UNK        -0.5000 
      4 N           2.8131  -14.8172  -49.1466 N.am      1 UNK        -0.5000 
      5 CA          1.3912  -14.5357  -49.3699 C.3       1 UNK         0.1400 
      6 C6          1.1727  -13.8754  -50.7588 C.3       23 UNK        -0.0398 
      7 S7         -0.5844  -13.5996  -51.1897 S.3       23 UNK        -0.2404 
      8 C8         -0.8800  -14.8549  -52.4783 C.3       23 UNK        -0.0205 
      9 C9         -0.7832  -16.2927  -51.9791 C.ar      23 UNK        -0.0193 
     10 C10        -0.1564  -17.2559  -52.7747 C.ar      23 UNK        -0.1150 
     11 C11        -0.0917  -18.5890  -52.3611 C.ar      23 UNK        -0.0193 
     12 C12        -0.6602  -18.9587  -51.1404 C.ar      23 UNK        -0.1150 
     13 C13        -1.2579  -18.0005  -50.3174 C.ar      23 UNK        -0.0193 
     14 C14        -1.3357  -16.6755  -50.7514 C.ar      23 UNK        -0.1150 
     15 C15        -1.8302  -18.3948  -48.9658 C.3       23 UNK        -0.0205 
     16 S16        -0.6344  -18.1961  -47.6011 S.3       23 UNK        -0.2404 
     17 C17         0.6519  -19.4509  -47.9572 C.3       23 UNK        -0.0398 
     18 CA          0.4538  -20.8745  -47.3678 C.3       11 UNK         0.1400 
     19 N           0.7732  -20.9777  -45.9420 N.am      11 UNK        -0.5000 
     20 C           1.0087  -22.1442  -45.3216 C.2       10 UNK         0.5000 
     21 O           0.9649  -23.2363  -45.8882 O.2       10 UNK        -0.5000 
     22 CA          1.3130  -22.1013  -43.8157 C.3       10 UNK         0.1400 
     23 CB          2.7531  -21.6325  -43.5614 C.3       10 UNK        -0.1800 
     24 N           0.3738  -21.2694  -43.0665 N.am      10 UNK        -0.5000 
     25 C          -0.9409  -21.5122  -42.9636 C.2       9 UNK         0.5000 
     26 O          -1.5052  -22.4709  -43.4919 O.2       9 UNK        -0.5000 
     27 CA         -1.7712  -20.4910  -42.1653 C.3       9 UNK         0.1400 
     28 CB         -1.5886  -20.6932  -40.6536 C.3       9 UNK        -0.1800 
     29 N          -1.4453  -19.1102  -42.5187 N.am      9 UNK        -0.5000 
     30 C          -1.6400  -18.5785  -43.7340 C.2       8 UNK         0.5000 
     31 O          -2.1653  -19.1812  -44.6690 O.2       8 UNK        -0.5000 
     32 CA         -1.1151  -17.1494  -43.9508 C.3       8 UNK         0.1400 
     33 CB         -2.0572  -16.1184  -43.3089 C.3       8 UNK        -0.1800 
     34 N           0.2415  -16.9704  -43.4329 N.am      8 UNK        -0.5000 
     35 C           1.3210  -17.6545  -43.8412 C.2       7 UNK         0.5000 
     36 O           1.3073  -18.4940  -44.7379 O.2       7 UNK        -0.5000 
     37 CA          2.6294  -17.3989  -43.0764 C.3       7 UNK         0.1400 
     38 CB          3.3302  -16.1341  -43.5955 C.3       7 UNK        -0.1800 
     39 N           2.4068  -17.2989  -41.6329 N.am      7 UNK        -0.5000 
     40 C           2.0244  -18.3245  -40.8569 C.2       6 UNK         0.5000 
     41 O           1.8479  -19.4688  -41.2730 O.2       6 UNK        -0.5000 
     42 CA          1.7545  -18.0092  -39.3749 C.3       6 UNK         0.1400 
     43 CB          3.0670  -17.9799  -38.5777 C.3       6 UNK        -0.1800 
     44 N           1.0476  -16.7413  -39.1955 N.am      6 UNK        -0.5000 
     45 C          -0.2142  -16.5154  -39.5883 C.2       5 UNK         0.5000 
     46 O          -0.9348  -17.3711  -40.1029 O.2       5 UNK        -0.5000 
     47 CA         -0.7322  -15.0717  -39.4298 C.3       5 UNK         0.1400 
     48 CB         -1.2931  -14.8493  -38.0175 C.3       5 UNK        -0.1800 
     49 N           0.2892  -14.0562  -39.7167 N.am      5 UNK        -0.5000 
     50 C           0.8977  -13.9218  -40.9016 C.2       4 UNK         0.5000 
     51 O           0.6517  -14.6423  -41.8746 O.2       4 UNK        -0.5000 
     52 CA          1.9882  -12.8460  -41.0177 C.3       4 UNK         0.1400 
     53 CB          3.2449  -13.2357  -40.2186 C.3       4 UNK        -0.1800 
     54 N           2.3153  -12.7412  -42.4308 N.am      4 UNK        -0.5000 
     55 C           2.8867  -11.7249  -43.0790 C.2       3 UNK         0.5000 
     56 O           3.3073  -10.7069  -42.5282 O.2       3 UNK        -0.5000 
     57 CA          2.9967  -11.8755  -44.6126 C.3       3 UNK         0.1400 
     58 CB          4.4222  -12.2903  -45.0096 C.3       3 UNK        -0.1800 
     59 N           2.0543  -12.8464  -45.1843 N.am      3 UNK        -0.5000 
     60 C           0.7205  -12.7077  -45.2103 C.2       2 UNK         0.5000 
     61 O           0.1293  -11.7270  -44.7554 O.2       2 UNK        -0.5000 
     62 CA         -0.0687  -13.8716  -45.8478 C.3       2 UNK         0.1400 
     63 CB         -1.5572  -13.5432  -46.0805 C.3       2 UNK        -0.1800 
     64 N           0.5335  -14.3883  -47.0805 N.am      2 UNK        -0.5000 
     65 C           0.8260  -13.7029  -48.1953 C.2       1 UNK         0.5000 
     66 O           0.7025  -12.4816  -48.3059 O.2       1 UNK        -0.5000 
     67 C          -0.9111  -21.5094  -47.6995 C.2       11 UNK         0.5000 
     68 O          -1.0259  -22.1824  -48.7242 O.2       11 UNK        -0.5000 
     69 N          -1.9049  -21.3284  -46.8148 N.am      12 UNK        -0.5000 
     70 CA         -3.2259  -21.9449  -46.9274 C.3       12 UNK         0.1400 
     71 CB         -4.1775  -21.3593  -45.8755 C.3       12 UNK        -0.1800 
     72 C          -3.1743  -23.4770  -46.8318 C.2       12 UNK         0.5000 
     73 O          -3.8485  -24.1478  -47.6111 O.2       12 UNK        -0.5000 
     74 N          -2.3518  -24.0023  -45.9136 N.am      13 UNK        -0.5000 
     75 CA         -2.0991  -25.4343  -45.7646 C.3       13 UNK         0.1400 
     76 CB         -1.3283  -25.6894  -44.4603 C.3       13 UNK        -0.1800 
     77 C          -1.3508  -26.0299  -46.9715 C.2       13 UNK         0.5000 
     78 O          -1.7330  -27.0973  -47.4518 O.2       13 UNK        -0.5000 
     79 N          -0.3124  -25.3269  -47.4455 N.am      14 UNK        -0.5000 
     80 CA          0.5329  -25.7427  -48.5652 C.3       14 UNK         0.1400 
     81 CB          1.7720  -24.8370  -48.6380 C.3       14 UNK        -0.1800 
     82 C          -0.2066  -25.7571  -49.9144 C.2       14 UNK         0.5000 
     83 O          -0.0962  -26.7348  -50.6553 O.2       14 UNK        -0.5000 
     84 N          -0.9441  -24.6788  -50.2100 N.am      15 UNK        -0.5000 
     85 CA         -1.6782  -24.5070  -51.4662 C.3       15 UNK         0.1400 
     86 CB         -1.7638  -23.0080  -51.7792 C.3       15 UNK        -0.1800 
     87 C          -3.0821  -25.1432  -51.4445 C.2       15 UNK         0.5000 
     88 O          -3.7331  -25.1960  -52.4876 O.2       15 UNK        -0.5000 
     89 N          -3.5391  -25.5867  -50.2651 N.am      16 UNK        -0.5000 
     90 CA         -4.8209  -26.2268  -49.9373 C.3       16 UNK         0.1400 
     91 CB         -5.0333  -27.5219  -50.7439 C.3       16 UNK        -0.1800 
     92 C          -6.0466  -25.2960  -50.0350 C.2       16 UNK         0.5000 
     93 O          -6.8806  -25.3056  -49.1288 O.2       16 UNK        -0.5000 
     94 N          -6.1318  -24.5039  -51.1098 N.am      17 UNK        -0.5000 
     95 CA         -7.1721  -23.4984  -51.3469 C.3       17 UNK         0.1400 
     96 CB         -7.7812  -23.7223  -52.7412 C.3       17 UNK        -0.1800 
     97 C          -6.6263  -22.0642  -51.2013 C.2       17 UNK         0.5000 
     98 O          -7.3168  -21.1158  -51.5763 O.2       17 UNK        -0.5000 
     99 N          -5.4017  -21.9226  -50.6710 N.am      18 UNK        -0.5000 
    100 CA        -4.6674  -20.6668  -50.4955 C.3       18 UNK         0.1400 
    101 CB        -5.3636  -19.7800  -49.4355 C.3       18 UNK        -0.1800 
    102 C         -4.4111  -19.9635  -51.8467 C.2       18 UNK         0.5000 
    103 O         -4.0632  -20.6305  -52.8245 O.2       18 UNK        -0.5000 
    104 N         -4.6065  -18.6393  -51.8919 N.am      19 UNK        -0.5000 
    105 CA        -4.3983  -17.7917  -53.0672 C.3       19 UNK         0.1400 
    106 CB        -4.6351  -16.3264  -52.6729 C.3       19 UNK        -0.1800 
    107 C         -5.2659  -18.1670  -54.2863 C.2       19 UNK         0.5000 
    108 O         -4.8757  -17.8602  -55.4124 O.2       19 UNK        -0.5000 
    109 N         -6.4022  -18.8440  -54.0595 N.am      20 UNK        -0.5000 
    110 CA        -7.2929  -19.3350  -55.1130 C.3       20 UNK         0.1400 
    111 CB        -8.6221  -19.7924  -54.4942 C.3       20 UNK        -0.1800 
    112 C         -6.6720  -20.4632  -55.9602 C.2       20 UNK         0.5000 
    113 O         -7.0294  -20.5934  -57.1317 O.2       20 UNK        -0.5000 
    114 N         -5.7497  -21.2420  -55.3748 N.am      21 UNK        -0.5000 
    115 CA        -4.9572  -22.2363  -56.0992 C.3       21 UNK         0.1400 
    116 CB        -4.4827  -23.3361  -55.1372 C.3       21 UNK        -0.1800 
    117 C         -3.7576  -21.5881  -56.8090 C.2       21 UNK         0.5000 
    118 O         -3.4547  -21.9532  -57.9459 O.2       21 UNK        -0.5000 
    119 N         -3.0932  -20.6519  -56.1208 N.am      22 UNK        -0.5000 
    120 CA        -1.8884  -19.9630  -56.6088 C.3       22 UNK         0.1400 
    121 C         -2.1557  -18.9161  -57.7258 C.2       22 UNK         0.5000 
    122 N         -3.2930  -18.2334  -57.7338 N.am      22 UNK        -0.7600 
    123 O         -1.3186  -18.7258  -58.6038 O.2       22 UNK        -0.5000 
    124 C124       -1.0822  -19.3322  -55.4499 C.3       23 UNK        -0.0398 
    125 S125       -0.5613  -20.5806  -54.2268 S.3       23 UNK        -0.2404 
    126 C126        0.6117  -19.6279  -53.2192 C.3       23 UNK        -0.0205 
    127 H127        5.1469  -15.5021  -47.1343 H         1 UNK         0.0600 
    128 H128        5.1501  -16.7943  -48.3394 H         1 UNK         0.0600 
    129 H129        5.3261  -15.1119  -48.8477 H         1 UNK         0.0600 
    130 H130        3.4549  -14.2648  -49.6972 H         1 UNK         0.3000 
    131 H131        0.8622  -15.4912  -49.3783 H         1 UNK         0.0600 
    132 H132        1.6287  -14.4944  -51.5327 H         1 UNK         0.0800 
    133 H133        1.6864  -12.9139  -50.8083 H         1 UNK         0.0800 
    134 H134       -0.1817  -14.6820  -53.2988 H         1 UNK         0.0800 
    135 H135       -1.8787  -14.7017  -52.8885 H         1 UNK         0.0800 
    136 H136        0.2767  -16.9708  -53.7232 H         1 UNK         0.1150 
    137 H137       -0.6189  -19.9920  -50.8242 H         1 UNK         0.1150 
    138 H138       -1.8214  -15.9402  -50.1257 H         1 UNK         0.1150 
    139 H139       -2.6966  -17.7707  -48.7446 H         1 UNK         0.0800 
    140 H140       -2.2002  -19.4174  -48.9976 H         1 UNK         0.0800 
    141 H141        1.5945  -19.0460  -47.5858 H         1 UNK         0.0800 
    142 H142        0.7983  -19.5211  -49.0321 H         1 UNK         0.0800 
    143 H143        1.1943  -21.4971  -47.8749 H         1 UNK         0.0600 
    144 H144        0.8438  -20.1020  -45.4247 H         1 UNK         0.3000 
    145 H145        1.2220  -23.1205  -43.4343 H         1 UNK         0.0600 
    146 H146        3.0059  -21.6928  -42.5028 H         1 UNK         0.0600 
    147 H147        3.4676  -22.2547  -44.1018 H         1 UNK         0.0600 
    148 H148        2.9049  -20.6026  -43.8840 H         1 UNK         0.0600 
    149 H149        0.7683  -20.4738  -42.5736 H         1 UNK         0.3000 
    150 H150       -2.8232  -20.6581  -42.4057 H         1 UNK         0.0600 
    151 H151       -1.8394  -21.7141  -40.3630 H         1 UNK         0.0600 
    152 H152       -2.2364  -20.0243  -40.0867 H         1 UNK         0.0600 
    153 H153       -0.5610  -20.5046  -40.3416 H         1 UNK         0.0600 
    154 H154       -1.0401  -18.5335  -41.7888 H         1 UNK         0.3000 
    155 H155       -1.0866  -16.9580  -45.0238 H         1 UNK         0.0600 
    156 H156       -2.1702  -16.2849  -42.2380 H         1 UNK         0.0600 
    157 H157       -3.0509  -16.1722  -43.7548 H         1 UNK         0.0600 
    158 H158       -1.6932  -15.1010  -43.4461 H         1 UNK         0.0600 
    159 H159        0.3591  -16.2690  -42.7060 H         1 UNK         0.3000 
    160 H160        3.2937  -18.2467  -43.2553 H         1 UNK         0.0600 
    161 H161        4.2638  -15.9497  -43.0641 H         1 UNK         0.0600 
    162 H162        2.7017  -15.2528  -43.4894 H         1 UNK         0.0600 
    163 H163        3.5720  -16.2341  -44.6547 H         1 UNK         0.0600 
    164 H164        2.4820  -16.3818  -41.2215 H         1 UNK         0.3000 
    165 H165        1.1281  -18.8085  -38.9729 H         1 UNK         0.0600 
    166 H166        2.8785  -17.8332  -37.5140 H         1 UNK         0.0600 
    167 H167        3.6084  -18.9210  -38.6839 H         1 UNK         0.0600 
    168 H168        3.7282  -17.1807  -38.9151 H         1 UNK         0.0600 
    169 H169        1.5658  -15.9819  -38.7796 H         1 UNK         0.3000 
    170 H170       -1.5465  -14.9355  -40.1445 H         1 UNK         0.0600 
    171 H171       -2.0679  -15.5815  -37.7858 H         1 UNK         0.0600 
    172 H172       -0.5176  -14.9396  -37.2560 H         1 UNK         0.0600 
    173 H173       -1.7436  -13.8611  -37.9232 H         1 UNK         0.0600 
    174 H174        0.5373  -13.4357  -38.9595 H         1 UNK         0.3000 
    175 H175        1.5878  -11.8951  -40.6613 H         1 UNK         0.0600 
    176 H176        3.6549  -14.1895  -40.5534 H         1 UNK         0.0600 
    177 H177        4.0272  -12.4837  -40.3225 H         1 UNK         0.0600 
    178 H178        3.0255  -13.3252  -39.1542 H         1 UNK         0.0600 
    179 H179        1.9356  -13.5055  -42.9744 H         1 UNK         0.3000 
    180 H180        2.7853  -10.8994  -45.0539 H         1 UNK         0.0600 
    181 H181        4.6818  -13.2712  -44.6088 H         1 UNK         0.0600 
    182 H182        5.1564  -11.5770  -44.6328 H         1 UNK         0.0600 
    183 H183        4.5354  -12.3290  -46.0933 H         1 UNK         0.0600 
    184 H184        2.4562  -13.6701  -45.6069 H         1 UNK         0.3000 
    185 H185       -0.0183  -14.6860  -45.1266 H         1 UNK         0.0600 
    186 H186       -2.0463  -13.2499  -45.1509 H         1 UNK         0.0600 
    187 H187       -1.6833  -12.7248  -46.7900 H         1 UNK         0.0600 
    188 H188       -2.0939  -14.4094  -46.4679 H         1 UNK         0.0600 
    189 H189        0.7850  -15.3719  -47.0722 H         1 UNK         0.3000 
    190 H190       -1.7503  -20.7265  -46.0119 H         1 UNK         0.3000 
    191 H191       -3.6221  -21.6980  -47.9116 H         1 UNK         0.0600 
    192 H192       -3.8101  -21.5266  -44.8625 H         1 UNK         0.0600 
    193 H193       -5.1670  -21.8124  -45.9473 H         1 UNK         0.0600 
    194 H194       -4.3020  -20.2853  -46.0144 H         1 UNK         0.0600 
    195 H195       -1.8641  -23.3823  -45.2745 H         1 UNK         0.3000 
    196 H196       -3.0642  -25.9399  -45.6895 H         1 UNK         0.0600 
    197 H197       -1.1370  -26.7540  -44.3207 H         1 UNK         0.0600 
    198 H198       -1.8949  -25.3442  -43.5953 H         1 UNK         0.0600 
    199 H199       -0.3654  -25.1779  -44.4527 H         1 UNK         0.0600 
    200 H200       -0.0340  -24.4784  -46.9594 H         1 UNK         0.3000 
    201 H201        0.8734  -26.7606  -48.3641 H         1 UNK         0.0600 
    202 H202        2.3558  -24.8939  -47.7191 H         1 UNK         0.0600 
    203 H203        1.4987  -23.7934  -48.7962 H         1 UNK         0.0600 
    204 H204        2.4269  -25.1340  -49.4580 H         1 UNK         0.0600 
    205 H205       -0.9691  -23.8954  -49.5608 H         1 UNK         0.3000 
    206 H206       -1.1208  -24.9823  -52.2760 H         1 UNK         0.0600 
    207 H207       -0.7741  -22.5522  -51.8063 H         1 UNK         0.0600 
    208 H208       -2.2272  -22.8319  -52.7495 H         1 UNK         0.0600 
    209 H209       -2.3523  -22.4797  -51.0332 H         1 UNK         0.0600 
    210 H210       -2.9421  -25.4309  -49.4637 H         1 UNK         0.3000 
    211 H211       -4.7340  -26.5132  -48.8878 H         1 UNK         0.0600 
    212 H212       -5.1597  -27.3264  -51.8089 H         1 UNK         0.0600 
    213 H213       -5.9262  -28.0475  -50.4033 H         1 UNK         0.0600 
    214 H214       -4.1901  -28.2022  -50.6245 H         1 UNK         0.0600 
    215 H215       -5.4005  -24.5884  -51.8120 H         1 UNK         0.3000 
    216 H216       -7.9738  -23.6042  -50.6137 H         1 UNK         0.0600 
    217 H217       -8.6623  -23.0962  -52.8860 H         1 UNK         0.0600 
    218 H218       -8.0946  -24.7575  -52.8771 H         1 UNK         0.0600 
    219 H219       -7.0765  -23.4746  -53.5327 H         1 UNK         0.0600 
    220 H220       -4.9121  -22.7654  -50.4100 H         1 UNK         0.3000 
    221 H221       -3.6854  -20.9311  -50.1075 H         1 UNK         0.0600 
    222 H222       -6.3250  -19.4006  -49.7835 H         1 UNK         0.0600 
    223 H223       -5.5502  -20.3390  -48.5189 H         1 UNK         0.0600 
    224 H224       -4.7501  -18.9223  -49.1626 H         1 UNK         0.0600 
    225 H225       -4.9195  -18.1709  -51.0548 H         1 UNK         0.3000 
    226 H226       -3.3533  -17.8998  -53.3633 H         1 UNK         0.0600 
    227 H227       -5.6649  -16.1570  -52.3561 H         1 UNK         0.0600 
    228 H228       -3.9791  -16.0234  -51.8571 H         1 UNK         0.0600 
    229 H229       -4.4351  -15.6592  -53.5124 H         1 UNK         0.0600 
    230 H230       -6.6417  -19.0921  -53.1091 H         1 UNK         0.3000 
    231 H231       -7.5049  -18.4998  -55.7839 H         1 UNK         0.0600 
    232 H232       -9.0731  -19.0038  -53.8918 H         1 UNK         0.0600 
    233 H233       -8.4914  -20.6690  -53.8606 H         1 UNK         0.0600 
    234 H234       -9.3396  -20.0588  -55.2712 H         1 UNK         0.0600 
    235 H235       -5.4781  -21.0505  -54.4176 H         1 UNK         0.3000 
    236 H236       -5.5767  -22.7111  -56.8633 H         1 UNK         0.0600 
    237 H237       -3.7581  -23.9955  -55.6168 H         1 UNK         0.0600 
    238 H238       -4.0075  -22.9205  -54.2497 H         1 UNK         0.0600 
    239 H239       -5.3101  -23.9642  -54.8130 H         1 UNK         0.0600 
    240 H240       -3.3850  -20.4377  -55.1773 H         1 UNK         0.3000 
    241 H241       -1.2484  -20.7241  -57.0605 H         1 UNK         0.0600 
    242 H242       -3.4607  -17.5629  -58.4664 H         1 UNK         0.3800 
    243 H243       -3.9475  -18.2976  -56.9574 H         1 UNK         0.3800 
    244 H244       -0.1887  -18.8360  -55.8331 H         1 UNK         0.0800 
    245 H245       -1.6731  -18.5661  -54.9466 H         1 UNK         0.0800 
    246 H246        1.1602  -20.3178  -52.5762 H         1 UNK         0.0800 
    247 H247        1.3560  -19.1583  -53.8641 H         1 UNK         0.0800 
@<TRIPOS>BOND
     1    1    2 1    
     2    1  127 1    
     3    1  128 1    
     4    1  129 1    
     5    2    3 2    
     6    2    4 am   BACKBONE|DICT|INTERRES
     7    4    5 1    
     8    4  130 1    
     9    5    6 1    
    10    5   65 1    
    11    5  131 1    
    12    6    7 1    
    13    6  132 1    
    14    6  133 1    
    15    7    8 1    
    16    8    9 1    
    17    8  134 1    
    18    8  135 1    
    19    9   10 ar   
    20    9   14 ar   
    21   10   11 ar   
    22   10  136 1    
    23   11   12 ar   
    24   11  126 1    
    25   12   13 ar   
    26   12  137 1    
    27   13   14 ar   
    28   13   15 1    
    29   14  138 1    
    30   15   16 1    
    31   15  139 1    
    32   15  140 1    
    33   16   17 1    
    34   17   18 1    
    35   17  141 1    
    36   17  142 1    
    37   18   19 1    
    38   18   67 1    
    39   18  143 1    
    40   19   20 am   BACKBONE|DICT|INTERRES
    41   19  144 1    
    42   20   21 2    
    43   20   22 1    
    44   22   23 1    
    45   22   24 1    
    46   22  145 1    
    47   23  146 1    
    48   23  147 1    
    49   23  148 1    
    50   24   25 am   BACKBONE|DICT|INTERRES
    51   24  149 1    
    52   25   26 2    
    53   25   27 1    
    54   27   28 1    
    55   27   29 1    
    56   27  150 1    
    57   28  151 1    
    58   28  152 1    
    59   28  153 1    
    60   29   30 am   BACKBONE|DICT|INTERRES
    61   29  154 1    
    62   30   31 2    
    63   30   32 1    
    64   32   33 1    
    65   32   34 1    
    66   32  155 1    
    67   33  156 1    
    68   33  157 1    
    69   33  158 1    
    70   34   35 am   BACKBONE|DICT|INTERRES
    71   34  159 1    
    72   35   36 2    
    73   35   37 1    
    74   37   38 1    
    75   37   39 1    
    76   37  160 1    
    77   38  161 1    
    78   38  162 1    
    79   38  163 1    
    80   39   40 am   BACKBONE|DICT|INTERRES
    81   39  164 1    
    82   40   41 2    
    83   40   42 1    
    84   42   43 1    
    85   42   44 1    
    86   42  165 1    
    87   43  166 1    
    88   43  167 1    
    89   43  168 1    
    90   44   45 am   BACKBONE|DICT|INTERRES
    91   44  169 1    
    92   45   46 2    
    93   45   47 1    
    94   47   48 1    
    95   47   49 1    
    96   47  170 1    
    97   48  171 1    
    98   48  172 1    
    99   48  173 1    
   100   49   50 am   BACKBONE|DICT|INTERRES
   101   49  174 1    
   102   50   51 2    
   103   50   52 1    
   104   52   53 1    
   105   52   54 1    
   106   52  175 1    
   107   53  176 1    
   108   53  177 1    
   109   53  178 1    
   110   54   55 am   BACKBONE|DICT|INTERRES
   111   54  179 1    
   112   55   56 2    
   113   55   57 1    
   114   57   58 1    
   115   57   59 1    
   116   57  180 1    
   117   58  181 1    
   118   58  182 1    
   119   58  183 1    
   120   59   60 am   BACKBONE|DICT|INTERRES
   121   59  184 1    
   122   60   61 2    
   123   60   62 1    
   124   62   63 1    
   125   62   64 1    
   126   62  185 1    
   127   63  186 1    
   128   63  187 1    
   129   63  188 1    
   130   64   65 am   BACKBONE|DICT|INTERRES
   131   64  189 1    
   132   65   66 2    
   133   67   68 2    
   134   67   69 am   BACKBONE|DICT|INTERRES
   135   69   70 1    
   136   69  190 1    
   137   70   71 1    
   138   70   72 1    
   139   70  191 1    
   140   71  192 1    
   141   71  193 1    
   142   71  194 1    
   143   72   73 2    
   144   72   74 am   BACKBONE|DICT|INTERRES
   145   74   75 1    
   146   74  195 1    
   147   75   76 1    
   148   75   77 1    
   149   75  196 1    
   150   76  197 1    
   151   76  198 1    
   152   76  199 1    
   153   77   78 2    
   154   77   79 am   BACKBONE|DICT|INTERRES
   155   79   80 1    
   156   79  200 1    
   157   80   81 1    
   158   80   82 1    
   159   80  201 1    
   160   81  202 1    
   161   81  203 1    
   162   81  204 1    
   163   82   83 2    
   164   82   84 am   BACKBONE|DICT|INTERRES
   165   84   85 1    
   166   84  205 1    
   167   85   86 1    
   168   85   87 1    
   169   85  206 1    
   170   86  207 1    
   171   86  208 1    
   172   86  209 1    
   173   87   88 2    
   174   87   89 am   BACKBONE|DICT|INTERRES
   175   89   90 1    
   176   89  210 1    
   177   90   91 1    
   178   90   92 1    
   179   90  211 1    
   180   91  212 1    
   181   91  213 1    
   182   91  214 1    
   183   92   93 2    
   184   92   94 am   BACKBONE|DICT|INTERRES
   185   94   95 1    
   186   94  215 1    
   187   95   96 1    
   188   95   97 1    
   189   95  216 1    
   190   96  217 1    
   191   96  218 1    
   192   96  219 1    
   193   97   98 2    
   194   97   99 am   BACKBONE|DICT|INTERRES
   195   99  100 1    
   196   99  220 1    
   197  100  101 1    
   198  100  102 1    
   199  100  221 1    
   200  101  222 1    
   201  101  223 1    
   202  101  224 1    
   203  102  103 2    
   204  102  104 am   BACKBONE|DICT|INTERRES
   205  104  105 1    
   206  104  225 1    
   207  105  106 1    
   208  105  107 1    
   209  105  226 1    
   210  106  227 1    
   211  106  228 1    
   212  106  229 1    
   213  107  108 2    
   214  107  109 am   BACKBONE|DICT|INTERRES
   215  109  110 1    
   216  109  230 1    
   217  110  111 1    
   218  110  112 1    
   219  110  231 1    
   220  111  232 1    
   221  111  233 1    
   222  111  234 1    
   223  112  113 2    
   224  112  114 am   BACKBONE|DICT|INTERRES
   225  114  115 1    
   226  114  235 1    
   227  115  116 1    
   228  115  117 1    
   229  115  236 1    
   230  116  237 1    
   231  116  238 1    
   232  116  239 1    
   233  117  118 2    
   234  117  119 am   BACKBONE|DICT|INTERRES
   235  119  120 1    
   236  119  240 1    
   237  120  121 1    
   238  120  124 1    
   239  120  241 1    
   240  121  122 am   BACKBONE|DICT|INTERRES
   241  121  123 2    
   242  122  242 1    
   243  122  243 1    
   244  124  125 1    
   245  124  244 1    
   246  124  245 1    
   247  125  126 1    
   248  126  246 1    
   249  126  247 1    
@<TRIPOS>SUBSTRUCTURE
     1 UNK         1 GROUP             0       ****    0 ROOT    
