@<TRIPOS>MOLECULE
3R540
247   249    1
SMALL
USER_CHARGES


@<TRIPOS>ATOM
      1 CA          3.8507  -11.8073  -52.6940 C.3       0 UNK        -0.1800 
      2 C           2.9943  -12.6091  -51.7238 C.2       0 UNK         0.5000 
      3 O           2.0036  -13.2113  -52.1358 O.2       0 UNK        -0.5000 
      4 N           3.3715  -12.6167  -50.4423 N.am      1 UNK        -0.5000 
      5 CA          2.6953  -13.3344  -49.3669 C.3       1 UNK         0.1400 
      6 C6          1.4534  -12.5619  -48.8484 C.3       23 UNK        -0.0398 
      7 S7          0.5546  -13.4230  -47.5117 S.3       23 UNK        -0.2404 
      8 C8         -0.9224  -14.0337  -48.3818 C.3       23 UNK        -0.0205 
      9 C9         -0.6069  -15.0607  -49.4614 C.ar      23 UNK        -0.0193 
     10 C10        -1.1327  -14.8998  -50.7456 C.ar      23 UNK        -0.1150 
     11 C11        -0.8918  -15.8538  -51.7369 C.ar      23 UNK        -0.0193 
     12 C12        -0.1044  -16.9695  -51.4417 C.ar      23 UNK        -0.1150 
     13 C13         0.4406  -17.1407  -50.1664 C.ar      23 UNK        -0.0193 
     14 C14         0.1791  -16.1830  -49.1785 C.ar      23 UNK        -0.1150 
     15 C15         1.3345  -18.3480  -49.8969 C.3       23 UNK        -0.0205 
     16 S16         1.1321  -19.0716  -48.2393 S.3       23 UNK        -0.2404 
     17 C17        -0.6108  -19.5991  -48.2685 C.3       23 UNK        -0.0398 
     18 CA         -0.8172  -20.8627  -47.4054 C.3       11 UNK         0.1400 
     19 N          -0.6268  -20.6098  -45.9747 N.am      11 UNK        -0.5000 
     20 C          -0.5096  -21.5677  -45.0458 C.2       10 UNK         0.5000 
     21 O          -0.5360  -22.7706  -45.3026 O.2       10 UNK        -0.5000 
     22 CA         -0.4083  -21.1128  -43.5789 C.3       10 UNK         0.1400 
     23 CB          0.9979  -20.5949  -43.2462 C.3       10 UNK        -0.1800 
     24 N          -1.4024  -20.0959  -43.2393 N.am      10 UNK        -0.5000 
     25 C          -2.7279  -20.2913  -43.2739 C.2       9 UNK         0.5000 
     26 O          -3.2559  -21.3661  -43.5593 O.2       9 UNK        -0.5000 
     27 CA         -3.6120  -19.0674  -42.9848 C.3       9 UNK         0.1400 
     28 CB         -3.7507  -18.8347  -41.4728 C.3       9 UNK        -0.1800 
     29 N          -3.0961  -17.8586  -43.6261 N.am      9 UNK        -0.5000 
     30 C          -3.1058  -17.6447  -44.9495 C.2       8 UNK         0.5000 
     31 O          -3.5705  -18.4363  -45.7688 O.2       8 UNK        -0.5000 
     32 CA         -2.4441  -16.3452  -45.4427 C.3       8 UNK         0.1400 
     33 CB         -3.4034  -15.1553  -45.2876 C.3       8 UNK        -0.1800 
     34 N          -1.1854  -16.0486  -44.7561 N.am      8 UNK        -0.5000 
     35 C          -0.1028  -16.8367  -44.8029 C.2       7 UNK         0.5000 
     36 O          -0.0560  -17.8944  -45.4243 O.2       7 UNK        -0.5000 
     37 CA          1.1154  -16.4032  -43.9719 C.3       7 UNK         0.1400 
     38 CB          1.9449  -15.3685  -44.7458 C.3       7 UNK        -0.1800 
     39 N           0.7839  -15.8801  -42.6433 N.am      7 UNK        -0.5000 
     40 C           0.0642  -16.5214  -41.7110 C.2       6 UNK         0.5000 
     41 O          -0.4573  -17.6238  -41.8890 O.2       6 UNK        -0.5000 
     42 CA         -0.0255  -15.8301  -40.3401 C.3       6 UNK         0.1400 
     43 CB         -0.9760  -16.5534  -39.3690 C.3       6 UNK        -0.1800 
     44 N           1.3164  -15.8089  -39.7673 N.am      6 UNK        -0.5000 
     45 C           2.0821  -14.7237  -39.5967 C.2       5 UNK         0.5000 
     46 O           1.6917  -13.5699  -39.7760 O.2       5 UNK        -0.5000 
     47 CA          3.5536  -14.9838  -39.2086 C.3       5 UNK         0.1400 
     48 CB          3.7131  -15.0148  -37.6810 C.3       5 UNK        -0.1800 
     49 N           4.0758  -16.2332  -39.7769 N.am      5 UNK        -0.5000 
     50 C           4.2197  -16.4592  -41.0901 C.2       4 UNK         0.5000 
     51 O           4.0352  -15.5958  -41.9526 O.2       4 UNK        -0.5000 
     52 CA          4.5780  -17.8928  -41.5142 C.3       4 UNK         0.1400 
     53 CB          3.5497  -18.9090  -40.9738 C.3       4 UNK        -0.1800 
     54 N           4.5943  -17.9413  -42.9726 N.am      4 UNK        -0.5000 
     55 C           5.1566  -18.8882  -43.7315 C.2       3 UNK         0.5000 
     56 O           5.7888  -19.8434  -43.2802 O.2       3 UNK        -0.5000 
     57 CA          4.9833  -18.7409  -45.2510 C.3       3 UNK         0.1400 
     58 CB          3.6709  -19.4305  -45.6808 C.3       3 UNK        -0.1800 
     59 N           5.0268  -17.3257  -45.6404 N.am      3 UNK        -0.5000 
     60 C           4.8565  -16.8284  -46.8712 C.2       2 UNK         0.5000 
     61 O           4.6025  -17.5018  -47.8722 O.2       2 UNK        -0.5000 
     62 CA          5.0277  -15.3113  -47.0211 C.3       2 UNK         0.1400 
     63 CB          6.4789  -14.9667  -47.4081 C.3       2 UNK        -0.1800 
     64 N           4.0930  -14.8498  -48.0423 N.am      2 UNK        -0.5000 
     65 C           3.7532  -13.5790  -48.2778 C.2       1 UNK         0.5000 
     66 O           4.2512  -12.6138  -47.6938 O.2       1 UNK        -0.5000 
     67 C          -2.1758  -21.5213  -47.7053 C.2       11 UNK         0.5000 
     68 O          -2.2301  -22.3873  -48.5781 O.2       11 UNK        -0.5000 
     69 N          -3.2348  -21.1439  -46.9742 N.am      12 UNK        -0.5000 
     70 CA         -4.5491  -21.7825  -47.0605 C.3       12 UNK         0.1400 
     71 CB         -5.5887  -20.9695  -46.2760 C.3       12 UNK        -0.1800 
     72 C          -4.5221  -23.2493  -46.5944 C.2       12 UNK         0.5000 
     73 O          -5.0795  -24.1103  -47.2748 O.2       12 UNK        -0.5000 
     74 N          -3.8397  -23.5136  -45.4709 N.am      13 UNK        -0.5000 
     75 CA         -3.6353  -24.8538  -44.9167 C.3       13 UNK         0.1400 
     76 CB         -3.0309  -24.7385  -43.5092 C.3       13 UNK        -0.1800 
     77 C          -2.7615  -25.7496  -45.8159 C.2       13 UNK         0.5000 
     78 O          -3.0619  -26.9338  -45.9702 O.2       13 UNK        -0.5000 
     79 N          -1.7135  -25.1646  -46.4114 N.am      14 UNK        -0.5000 
     80 CA         -0.8062  -25.8248  -47.3535 C.3       14 UNK         0.1400 
     81 CB          0.4823  -24.9936  -47.4612 C.3       14 UNK        -0.1800 
     82 C          -1.4120  -26.0407  -48.7556 C.2       14 UNK         0.5000 
     83 O          -0.8334  -26.7882  -49.5451 O.2       14 UNK        -0.5000 
     84 N          -2.5350  -25.3677  -49.0478 N.am      15 UNK        -0.5000 
     85 CA         -3.2206  -25.2914  -50.3418 C.3       15 UNK         0.1400 
     86 CB         -3.7687  -26.6671  -50.7745 C.3       15 UNK        -0.1800 
     87 C          -2.3701  -24.5995  -51.4300 C.2       15 UNK         0.5000 
     88 O          -2.4709  -24.9406  -52.6082 O.2       15 UNK        -0.5000 
     89 N          -1.5632  -23.6167  -51.0111 N.am      16 UNK        -0.5000 
     90 CA         -0.8646  -22.6664  -51.8794 C.3       16 UNK         0.1400 
     91 CB          0.4433  -22.2397  -51.1956 C.3       16 UNK        -0.1800 
     92 C          -1.7460  -21.4370  -52.1786 C.2       16 UNK         0.5000 
     93 O          -1.5044  -20.7284  -53.1568 O.2       16 UNK        -0.5000 
     94 N          -2.7617  -21.2212  -51.3383 N.am      17 UNK        -0.5000 
     95 CA         -3.8267  -20.2441  -51.4895 C.3       17 UNK         0.1400 
     96 CB         -3.4918  -18.9924  -50.6597 C.3       17 UNK        -0.1800 
     97 C          -5.1437  -20.8971  -51.0446 C.2       17 UNK         0.5000 
     98 O          -5.1428  -22.0610  -50.6327 O.2       17 UNK        -0.5000 
     99 N          -6.2431  -20.1408  -51.1493 N.am      18 UNK        -0.5000 
    100 CA        -7.6201  -20.4900  -50.7837 C.3       18 UNK         0.1400 
    101 CB        -7.7522  -20.7831  -49.2744 C.3       18 UNK        -0.1800 
    102 C         -8.1875  -21.6196  -51.6609 C.2       18 UNK         0.5000 
    103 O         -8.9336  -21.3382  -52.5984 O.2       18 UNK        -0.5000 
    104 N         -7.7816  -22.8656  -51.3853 N.am      19 UNK        -0.5000 
    105 CA        -8.1335  -24.0647  -52.1507 C.3       19 UNK         0.1400 
    106 CB        -7.6133  -25.3017  -51.4030 C.3       19 UNK        -0.1800 
    107 C         -7.5919  -24.0373  -53.5939 C.2       19 UNK         0.5000 
    108 O         -8.2423  -24.5580  -54.5001 O.2       19 UNK        -0.5000 
    109 N         -6.4302  -23.3971  -53.7759 N.am      20 UNK        -0.5000 
    110 CA        -5.7897  -23.1452  -55.0686 C.3       20 UNK         0.1400 
    111 CB        -4.2974  -23.4928  -54.9431 C.3       20 UNK        -0.1800 
    112 C         -5.9781  -21.6861  -55.5338 C.2       20 UNK         0.5000 
    113 O         -5.2921  -21.2605  -56.4641 O.2       20 UNK        -0.5000 
    114 N         -6.8714  -20.9365  -54.8675 N.am      21 UNK        -0.5000 
    115 CA        -7.0984  -19.4908  -54.9642 C.3       21 UNK         0.1400 
    116 CB        -7.5577  -19.0610  -56.3732 C.3       21 UNK        -0.1800 
    117 C         -5.8799  -18.6994  -54.4569 C.2       21 UNK         0.5000 
    118 O         -5.9075  -18.2173  -53.3244 O.2       21 UNK        -0.5000 
    119 N         -4.8242  -18.6400  -55.2720 N.am      22 UNK        -0.5000 
    120 CA        -3.5167  -18.0591  -54.9631 C.3       22 UNK         0.1400 
    121 C         -2.5047  -18.5453  -56.0289 C.2       22 UNK         0.5000 
    122 N         -1.5635  -19.4060  -55.6678 N.am      22 UNK        -0.7600 
    123 O         -2.5641  -18.1369  -57.1861 O.2       22 UNK        -0.5000 
    124 C124       -3.5523  -16.5059  -54.8329 C.3       23 UNK        -0.0398 
    125 S125       -3.2784  -15.9782  -53.1107 S.3       23 UNK        -0.2404 
    126 C126       -1.4840  -15.6812  -53.1255 C.3       23 UNK        -0.0205 
    127 H127        4.2462  -12.4597  -53.4725 H         1 UNK         0.0600 
    128 H128        4.6918  -11.3277  -52.1924 H         1 UNK         0.0600 
    129 H129        3.2514  -11.0311  -53.1700 H         1 UNK         0.0600 
    130 H130        4.2012  -12.1142  -50.1534 H         1 UNK         0.3000 
    131 H131        2.3651  -14.3024  -49.7505 H         1 UNK         0.0600 
    132 H132        1.7466  -11.5779  -48.4789 H         1 UNK         0.0800 
    133 H133        0.7648  -12.3742  -49.6731 H         1 UNK         0.0800 
    134 H134       -1.5905  -14.4919  -47.6549 H         1 UNK         0.0800 
    135 H135       -1.4624  -13.1816  -48.7975 H         1 UNK         0.0800 
    136 H136       -1.7463  -14.0401  -50.9754 H         1 UNK         0.1150 
    137 H137        0.0874  -17.7059  -52.2098 H         1 UNK         0.1150 
    138 H138        0.5894  -16.3059  -48.1860 H         1 UNK         0.1150 
    139 H139        1.1600  -19.1289  -50.6385 H         1 UNK         0.0800 
    140 H140        2.3742  -18.0390  -50.0115 H         1 UNK         0.0800 
    141 H141       -0.8941  -19.7866  -49.3056 H         1 UNK         0.0800 
    142 H142       -1.2385  -18.7777  -47.9181 H         1 UNK         0.0800 
    143 H143       -0.0580  -21.5894  -47.7022 H         1 UNK         0.0600 
    144 H144       -0.5385  -19.6331  -45.6987 H         1 UNK         0.3000 
    145 H145       -0.6008  -21.9856  -42.9516 H         1 UNK         0.0600 
    146 H146        1.0898  -20.3786  -42.1822 H         1 UNK         0.0600 
    147 H147        1.2319  -19.6830  -43.7936 H         1 UNK         0.0600 
    148 H148        1.7589  -21.3351  -43.4957 H         1 UNK         0.0600 
    149 H149       -1.0527  -19.1834  -42.9626 H         1 UNK         0.3000 
    150 H150       -4.6065  -19.2687  -43.3884 H         1 UNK         0.0600 
    151 H151       -4.1883  -19.7067  -40.9853 H         1 UNK         0.0600 
    152 H152       -4.3992  -17.9844  -41.2612 H         1 UNK         0.0600 
    153 H153       -2.7861  -18.6477  -41.0007 H         1 UNK         0.0600 
    154 H154       -2.6261  -17.1935  -43.0297 H         1 UNK         0.3000 
    155 H155       -2.2225  -16.4751  -46.5040 H         1 UNK         0.0600 
    156 H156       -4.3333  -15.3324  -45.8297 H         1 UNK         0.0600 
    157 H157       -2.9675  -14.2378  -45.6825 H         1 UNK         0.0600 
    158 H158       -3.6613  -14.9785  -44.2426 H         1 UNK         0.0600 
    159 H159       -1.1449  -15.2003  -44.2111 H         1 UNK         0.3000 
    160 H160        1.7347  -17.2888  -43.8219 H         1 UNK         0.0600 
    161 H161        1.4263  -14.4122  -44.8152 H         1 UNK         0.0600 
    162 H162        2.1446  -15.7079  -45.7632 H         1 UNK         0.0600 
    163 H163        2.9073  -15.1881  -44.2702 H         1 UNK         0.0600 
    164 H164        1.2094  -14.9983  -42.3942 H         1 UNK         0.3000 
    165 H165       -0.4035  -14.8183  -40.5001 H         1 UNK         0.0600 
    166 H166       -1.0177  -16.0411  -38.4077 H         1 UNK         0.0600 
    167 H167       -1.9913  -16.5813  -39.7660 H         1 UNK         0.0600 
    168 H168       -0.6642  -17.5824  -39.1854 H         1 UNK         0.0600 
    169 H169        1.7413  -16.7120  -39.6158 H         1 UNK         0.3000 
    170 H170        4.1509  -14.1571  -39.5993 H         1 UNK         0.0600 
    171 H171        3.1519  -15.8359  -37.2331 H         1 UNK         0.0600 
    172 H172        3.3529  -14.0880  -37.2325 H         1 UNK         0.0600 
    173 H173        4.7592  -15.1271  -37.3957 H         1 UNK         0.0600 
    174 H174        4.2660  -16.9800  -39.1241 H         1 UNK         0.3000 
    175 H175        5.5736  -18.1262  -41.1319 H         1 UNK         0.0600 
    176 H176        2.5361  -18.6505  -41.2825 H         1 UNK         0.0600 
    177 H177        3.7574  -19.9180  -41.3301 H         1 UNK         0.0600 
    178 H178        3.5629  -18.9513  -39.8846 H         1 UNK         0.0600 
    179 H179        4.1244  -17.1550  -43.4007 H         1 UNK         0.3000 
    180 H180        5.8224  -19.2505  -45.7283 H         1 UNK         0.0600 
    181 H181        3.6626  -19.6324  -46.7508 H         1 UNK         0.0600 
    182 H182        2.7975  -18.8211  -45.4489 H         1 UNK         0.0600 
    183 H183        3.5431  -20.3939  -45.1853 H         1 UNK         0.0600 
    184 H184        5.3105  -16.6937  -44.9046 H         1 UNK         0.3000 
    185 H185        4.7779  -14.8292  -46.0736 H         1 UNK         0.0600 
    186 H186        6.6363  -13.8897  -47.4619 H         1 UNK         0.0600 
    187 H187        7.1829  -15.3566  -46.6719 H         1 UNK         0.0600 
    188 H188        6.7462  -15.3926  -48.3759 H         1 UNK         0.0600 
    189 H189        3.6624  -15.6015  -48.5672 H         1 UNK         0.3000 
    190 H190       -3.1402  -20.3822  -46.3110 H         1 UNK         0.3000 
    191 H191       -4.8495  -21.7784  -48.1074 H         1 UNK         0.0600 
    192 H192       -5.6808  -19.9601  -46.6769 H         1 UNK         0.0600 
    193 H193       -5.3288  -20.8889  -45.2210 H         1 UNK         0.0600 
    194 H194       -6.5739  -21.4334  -46.3369 H         1 UNK         0.0600 
    195 H195       -3.4456  -22.7394  -44.9433 H         1 UNK         0.3000 
    196 H196       -4.6137  -25.3301  -44.8265 H         1 UNK         0.0600 
    197 H197       -3.6851  -24.1733  -42.8452 H         1 UNK         0.0600 
    198 H198       -2.0618  -24.2389  -43.5261 H         1 UNK         0.0600 
    199 H199       -2.8861  -25.7234  -43.0634 H         1 UNK         0.0600 
    200 H200       -1.4872  -24.2047  -46.1640 H         1 UNK         0.3000 
    201 H201       -0.5469  -26.8069  -46.9532 H         1 UNK         0.0600 
    202 H202        0.9570  -24.8721  -46.4873 H         1 UNK         0.0600 
    203 H203        0.2844  -24.0001  -47.8646 H         1 UNK         0.0600 
    204 H204        1.2080  -25.4753  -48.1176 H         1 UNK         0.0600 
    205 H205       -2.9112  -24.7639  -48.3284 H         1 UNK         0.3000 
    206 H206       -4.0796  -24.6382  -50.1802 H         1 UNK         0.0600 
    207 H207       -2.9689  -27.3678  -51.0144 H         1 UNK         0.0600 
    208 H208       -4.3814  -27.1105  -49.9896 H         1 UNK         0.0600 
    209 H209       -4.3958  -26.5758  -51.6619 H         1 UNK         0.0600 
    210 H210       -1.5934  -23.3787  -50.0230 H         1 UNK         0.3000 
    211 H211       -0.6189  -23.1432  -52.8305 H         1 UNK         0.0600 
    212 H212        0.2601  -21.7646  -50.2322 H         1 UNK         0.0600 
    213 H213        0.9945  -21.5300  -51.8137 H         1 UNK         0.0600 
    214 H214        1.0945  -23.0972  -51.0251 H         1 UNK         0.0600 
    215 H215       -2.9124  -21.8808  -50.5829 H         1 UNK         0.3000 
    216 H216       -3.9336  -19.9818  -52.5407 H         1 UNK         0.0600 
    217 H217       -4.2312  -18.2060  -50.8145 H         1 UNK         0.0600 
    218 H218       -2.5249  -18.5784  -50.9454 H         1 UNK         0.0600 
    219 H219       -3.4618  -19.2124  -49.5919 H         1 UNK         0.0600 
    220 H220       -6.1403  -19.2331  -51.5944 H         1 UNK         0.3000 
    221 H221       -8.2190  -19.6020  -50.9924 H         1 UNK         0.0600 
    222 H222       -7.1747  -21.6529  -48.9624 H         1 UNK         0.0600 
    223 H223       -7.4156  -19.9325  -48.6818 H         1 UNK         0.0600 
    224 H224       -8.7922  -20.9725  -49.0067 H         1 UNK         0.0600 
    225 H225       -7.0849  -22.9773  -50.6583 H         1 UNK         0.3000 
    226 H226       -9.2224  -24.1245  -52.2047 H         1 UNK         0.0600 
    227 H227       -8.0580  -25.3783  -50.4106 H         1 UNK         0.0600 
    228 H228       -7.8597  -26.2180  -51.9411 H         1 UNK         0.0600 
    229 H229       -6.5299  -25.2713  -51.2824 H         1 UNK         0.0600 
    230 H230       -5.9699  -23.0140  -52.9620 H         1 UNK         0.3000 
    231 H231       -6.2228  -23.7848  -55.8400 H         1 UNK         0.0600 
    232 H232       -3.7741  -23.3541  -55.8899 H         1 UNK         0.0600 
    233 H233       -4.1647  -24.5356  -54.6558 H         1 UNK         0.0600 
    234 H234       -3.7991  -22.8717  -54.1975 H         1 UNK         0.0600 
    235 H235       -7.4158  -21.3938  -54.1467 H         1 UNK         0.3000 
    236 H236       -7.9198  -19.2703  -54.2804 H         1 UNK         0.0600 
    237 H237       -6.8077  -19.2520  -57.1403 H         1 UNK         0.0600 
    238 H238       -8.4677  -19.5865  -56.6626 H         1 UNK         0.0600 
    239 H239       -7.7792  -17.9934  -56.3967 H         1 UNK         0.0600 
    240 H240       -4.8671  -19.1568  -56.1437 H         1 UNK         0.3000 
    241 H241       -3.1951  -18.4880  -54.0138 H         1 UNK         0.0600 
    242 H242       -0.9009  -19.7229  -56.3572 H         1 UNK         0.3800 
    243 H243       -1.5263  -19.7991  -54.7278 H         1 UNK         0.3800 
    244 H244       -2.8131  -16.0142  -55.4682 H         1 UNK         0.0800 
    245 H245       -4.5136  -16.1072  -55.1598 H         1 UNK         0.0800 
    246 H246       -1.2837  -14.6732  -53.4914 H         1 UNK         0.0800 
    247 H247       -1.0020  -16.3669  -53.8244 H         1 UNK         0.0800 
@<TRIPOS>BOND
     1    1    2 1    
     2    1  127 1    
     3    1  128 1    
     4    1  129 1    
     5    2    3 2    
     6    2    4 am   BACKBONE|DICT|INTERRES
     7    4    5 1    
     8    4  130 1    
     9    5    6 1    
    10    5   65 1    
    11    5  131 1    
    12    6    7 1    
    13    6  132 1    
    14    6  133 1    
    15    7    8 1    
    16    8    9 1    
    17    8  134 1    
    18    8  135 1    
    19    9   10 ar   
    20    9   14 ar   
    21   10   11 ar   
    22   10  136 1    
    23   11   12 ar   
    24   11  126 1    
    25   12   13 ar   
    26   12  137 1    
    27   13   14 ar   
    28   13   15 1    
    29   14  138 1    
    30   15   16 1    
    31   15  139 1    
    32   15  140 1    
    33   16   17 1    
    34   17   18 1    
    35   17  141 1    
    36   17  142 1    
    37   18   19 1    
    38   18   67 1    
    39   18  143 1    
    40   19   20 am   BACKBONE|DICT|INTERRES
    41   19  144 1    
    42   20   21 2    
    43   20   22 1    
    44   22   23 1    
    45   22   24 1    
    46   22  145 1    
    47   23  146 1    
    48   23  147 1    
    49   23  148 1    
    50   24   25 am   BACKBONE|DICT|INTERRES
    51   24  149 1    
    52   25   26 2    
    53   25   27 1    
    54   27   28 1    
    55   27   29 1    
    56   27  150 1    
    57   28  151 1    
    58   28  152 1    
    59   28  153 1    
    60   29   30 am   BACKBONE|DICT|INTERRES
    61   29  154 1    
    62   30   31 2    
    63   30   32 1    
    64   32   33 1    
    65   32   34 1    
    66   32  155 1    
    67   33  156 1    
    68   33  157 1    
    69   33  158 1    
    70   34   35 am   BACKBONE|DICT|INTERRES
    71   34  159 1    
    72   35   36 2    
    73   35   37 1    
    74   37   38 1    
    75   37   39 1    
    76   37  160 1    
    77   38  161 1    
    78   38  162 1    
    79   38  163 1    
    80   39   40 am   BACKBONE|DICT|INTERRES
    81   39  164 1    
    82   40   41 2    
    83   40   42 1    
    84   42   43 1    
    85   42   44 1    
    86   42  165 1    
    87   43  166 1    
    88   43  167 1    
    89   43  168 1    
    90   44   45 am   BACKBONE|DICT|INTERRES
    91   44  169 1    
    92   45   46 2    
    93   45   47 1    
    94   47   48 1    
    95   47   49 1    
    96   47  170 1    
    97   48  171 1    
    98   48  172 1    
    99   48  173 1    
   100   49   50 am   BACKBONE|DICT|INTERRES
   101   49  174 1    
   102   50   51 2    
   103   50   52 1    
   104   52   53 1    
   105   52   54 1    
   106   52  175 1    
   107   53  176 1    
   108   53  177 1    
   109   53  178 1    
   110   54   55 am   BACKBONE|DICT|INTERRES
   111   54  179 1    
   112   55   56 2    
   113   55   57 1    
   114   57   58 1    
   115   57   59 1    
   116   57  180 1    
   117   58  181 1    
   118   58  182 1    
   119   58  183 1    
   120   59   60 am   BACKBONE|DICT|INTERRES
   121   59  184 1    
   122   60   61 2    
   123   60   62 1    
   124   62   63 1    
   125   62   64 1    
   126   62  185 1    
   127   63  186 1    
   128   63  187 1    
   129   63  188 1    
   130   64   65 am   BACKBONE|DICT|INTERRES
   131   64  189 1    
   132   65   66 2    
   133   67   68 2    
   134   67   69 am   BACKBONE|DICT|INTERRES
   135   69   70 1    
   136   69  190 1    
   137   70   71 1    
   138   70   72 1    
   139   70  191 1    
   140   71  192 1    
   141   71  193 1    
   142   71  194 1    
   143   72   73 2    
   144   72   74 am   BACKBONE|DICT|INTERRES
   145   74   75 1    
   146   74  195 1    
   147   75   76 1    
   148   75   77 1    
   149   75  196 1    
   150   76  197 1    
   151   76  198 1    
   152   76  199 1    
   153   77   78 2    
   154   77   79 am   BACKBONE|DICT|INTERRES
   155   79   80 1    
   156   79  200 1    
   157   80   81 1    
   158   80   82 1    
   159   80  201 1    
   160   81  202 1    
   161   81  203 1    
   162   81  204 1    
   163   82   83 2    
   164   82   84 am   BACKBONE|DICT|INTERRES
   165   84   85 1    
   166   84  205 1    
   167   85   86 1    
   168   85   87 1    
   169   85  206 1    
   170   86  207 1    
   171   86  208 1    
   172   86  209 1    
   173   87   88 2    
   174   87   89 am   BACKBONE|DICT|INTERRES
   175   89   90 1    
   176   89  210 1    
   177   90   91 1    
   178   90   92 1    
   179   90  211 1    
   180   91  212 1    
   181   91  213 1    
   182   91  214 1    
   183   92   93 2    
   184   92   94 am   BACKBONE|DICT|INTERRES
   185   94   95 1    
   186   94  215 1    
   187   95   96 1    
   188   95   97 1    
   189   95  216 1    
   190   96  217 1    
   191   96  218 1    
   192   96  219 1    
   193   97   98 2    
   194   97   99 am   BACKBONE|DICT|INTERRES
   195   99  100 1    
   196   99  220 1    
   197  100  101 1    
   198  100  102 1    
   199  100  221 1    
   200  101  222 1    
   201  101  223 1    
   202  101  224 1    
   203  102  103 2    
   204  102  104 am   BACKBONE|DICT|INTERRES
   205  104  105 1    
   206  104  225 1    
   207  105  106 1    
   208  105  107 1    
   209  105  226 1    
   210  106  227 1    
   211  106  228 1    
   212  106  229 1    
   213  107  108 2    
   214  107  109 am   BACKBONE|DICT|INTERRES
   215  109  110 1    
   216  109  230 1    
   217  110  111 1    
   218  110  112 1    
   219  110  231 1    
   220  111  232 1    
   221  111  233 1    
   222  111  234 1    
   223  112  113 2    
   224  112  114 am   BACKBONE|DICT|INTERRES
   225  114  115 1    
   226  114  235 1    
   227  115  116 1    
   228  115  117 1    
   229  115  236 1    
   230  116  237 1    
   231  116  238 1    
   232  116  239 1    
   233  117  118 2    
   234  117  119 am   BACKBONE|DICT|INTERRES
   235  119  120 1    
   236  119  240 1    
   237  120  121 1    
   238  120  124 1    
   239  120  241 1    
   240  121  122 am   BACKBONE|DICT|INTERRES
   241  121  123 2    
   242  122  242 1    
   243  122  243 1    
   244  124  125 1    
   245  124  244 1    
   246  124  245 1    
   247  125  126 1    
   248  126  246 1    
   249  126  247 1    
@<TRIPOS>SUBSTRUCTURE
     1 UNK         1 GROUP             0       ****    0 ROOT    
