@<TRIPOS>MOLECULE
3R540
247   249    1
SMALL
USER_CHARGES


@<TRIPOS>ATOM
      1 CA         -0.7395  -10.0525  -47.9082 C.3       0 UNK        -0.1800 
      2 C          -0.0909  -11.3018  -47.3304 C.2       0 UNK         0.5000 
      3 O           0.6644  -11.2054  -46.3628 O.2       0 UNK        -0.5000 
      4 N          -0.3707  -12.4690  -47.9304 N.am      1 UNK        -0.5000 
      5 CA          0.0981  -13.8028  -47.5148 C.3       1 UNK         0.1400 
      6 C6         -0.4606  -14.2284  -46.1282 C.3       23 UNK        -0.0398 
      7 S7         -2.2427  -14.6025  -46.1745 S.3       23 UNK        -0.2404 
      8 C8         -2.2012  -16.4226  -46.1692 C.3       23 UNK        -0.0205 
      9 C9         -1.6820  -16.9752  -47.4866 C.ar      23 UNK        -0.0193 
     10 C10        -2.5484  -17.1141  -48.5747 C.ar      23 UNK        -0.1150 
     11 C11        -2.0831  -17.6127  -49.7950 C.ar      23 UNK        -0.0193 
     12 C12        -0.7320  -17.9432  -49.9274 C.ar      23 UNK        -0.1150 
     13 C13         0.1421  -17.8180  -48.8448 C.ar      23 UNK        -0.0193 
     14 C14        -0.3395  -17.3432  -47.6221 C.ar      23 UNK        -0.1150 
     15 C15         1.6076  -18.1855  -49.0121 C.3       23 UNK        -0.0205 
     16 S16         1.8407  -19.9883  -49.0968 S.3       23 UNK        -0.2404 
     17 C17         1.7567  -20.4329  -47.3334 C.3       23 UNK        -0.0398 
     18 CA          1.5185  -21.9510  -47.1135 C.3       11 UNK         0.1400 
     19 N           1.9109  -22.3647  -45.7719 N.am      11 UNK        -0.5000 
     20 C           3.1543  -22.7100  -45.4138 C.2       10 UNK         0.5000 
     21 O           4.0829  -22.8144  -46.2170 O.2       10 UNK        -0.5000 
     22 CA          3.4235  -22.9583  -43.9155 C.3       10 UNK         0.1400 
     23 CB          4.7403  -22.3019  -43.4635 C.3       10 UNK        -0.1800 
     24 N           2.3427  -22.4294  -43.0858 N.am      10 UNK        -0.5000 
     25 C           1.5447  -23.1501  -42.2886 C.2       9 UNK         0.5000 
     26 O           1.6525  -24.3665  -42.1315 O.2       9 UNK        -0.5000 
     27 CA          0.4268  -22.3924  -41.5412 C.3       9 UNK         0.1400 
     28 CB          0.8247  -22.1625  -40.0753 C.3       9 UNK        -0.1800 
     29 N           0.0652  -21.1019  -42.1337 N.am      9 UNK        -0.5000 
     30 C          -0.4424  -20.9231  -43.3607 C.2       8 UNK         0.5000 
     31 O          -0.6373  -21.8355  -44.1623 O.2       8 UNK        -0.5000 
     32 CA         -0.7032  -19.4698  -43.7925 C.3       8 UNK         0.1400 
     33 CB         -2.0762  -19.0187  -43.2727 C.3       8 UNK        -0.1800 
     34 N           0.3328  -18.5290  -43.3494 N.am      8 UNK        -0.5000 
     35 C           1.6516  -18.6561  -43.5820 C.2       7 UNK         0.5000 
     36 O           2.1428  -19.6015  -44.1975 O.2       7 UNK        -0.5000 
     37 CA          2.5963  -17.5730  -43.0292 C.3       7 UNK         0.1400 
     38 CB          3.1144  -16.6923  -44.1739 C.3       7 UNK        -0.1800 
     39 N           1.9869  -16.7262  -42.0035 N.am      7 UNK        -0.5000 
     40 C           1.6782  -17.1346  -40.7628 C.2       6 UNK         0.5000 
     41 O           1.8974  -18.2747  -40.3515 O.2       6 UNK        -0.5000 
     42 CA          0.9845  -16.1199  -39.8290 C.3       6 UNK         0.1400 
     43 CB          2.0065  -15.4901  -38.8705 C.3       6 UNK        -0.1800 
     44 N           0.2773  -15.0488  -40.5335 N.am      6 UNK        -0.5000 
     45 C          -0.7551  -15.2197  -41.3709 C.2       5 UNK         0.5000 
     46 O          -1.2720  -16.3129  -41.5999 O.2       5 UNK        -0.5000 
     47 CA         -1.2596  -13.9700  -42.1199 C.3       5 UNK         0.1400 
     48 CB         -2.4833  -13.3752  -41.4079 C.3       5 UNK        -0.1800 
     49 N          -0.2548  -12.9142  -42.3101 N.am      5 UNK        -0.5000 
     50 C           0.9160  -13.0639  -42.9460 C.2       4 UNK         0.5000 
     51 O           1.3163  -14.1510  -43.3648 O.2       4 UNK        -0.5000 
     52 CA          1.7400  -11.7801  -43.1665 C.3       4 UNK         0.1400 
     53 CB          2.1809  -11.1428  -41.8315 C.3       4 UNK        -0.1800 
     54 N           2.8777  -11.9763  -44.0757 N.am      4 UNK        -0.5000 
     55 C           4.0083  -12.6652  -43.8528 C.2       3 UNK         0.5000 
     56 O           4.2892  -13.2096  -42.7835 O.2       3 UNK        -0.5000 
     57 CA          4.9892  -12.7482  -45.0364 C.3       3 UNK         0.1400 
     58 CB          6.1131  -13.7834  -44.8334 C.3       3 UNK        -0.1800 
     59 N           4.2738  -13.0385  -46.2771 N.am      3 UNK        -0.5000 
     60 C           4.6008  -12.5838  -47.4909 C.2       2 UNK         0.5000 
     61 O           5.5443  -11.8187  -47.6952 O.2       2 UNK        -0.5000 
     62 CA          3.7375  -13.0393  -48.6878 C.3       2 UNK         0.1400 
     63 CB          4.2799  -14.3488  -49.2936 C.3       2 UNK        -0.1800 
     64 N           2.2947  -13.1302  -48.4194 N.am      2 UNK        -0.5000 
     65 C           1.6346  -13.9746  -47.6125 C.2       1 UNK         0.5000 
     66 O           2.1955  -14.8575  -46.9643 O.2       1 UNK        -0.5000 
     67 C           0.0853  -22.4517  -47.3642 C.2       11 UNK         0.5000 
     68 O          -0.0842  -23.6445  -47.6204 O.2       11 UNK        -0.5000 
     69 N          -0.9167  -21.5657  -47.2677 N.am      12 UNK        -0.5000 
     70 CA         -2.3382  -21.8058  -47.5485 C.3       12 UNK         0.1400 
     71 CB         -3.1187  -20.5189  -47.2543 C.3       12 UNK        -0.1800 
     72 C          -2.9959  -22.9959  -46.8189 C.2       12 UNK         0.5000 
     73 O          -3.9769  -23.5379  -47.3260 O.2       12 UNK        -0.5000 
     74 N          -2.4561  -23.3987  -45.6606 N.am      13 UNK        -0.5000 
     75 CA         -2.8728  -24.5937  -44.9232 C.3       13 UNK         0.1400 
     76 CB         -2.1779  -24.6110  -43.5536 C.3       13 UNK        -0.1800 
     77 C          -2.5968  -25.9066  -45.6853 C.2       13 UNK         0.5000 
     78 O          -3.3413  -26.8720  -45.5102 O.2       13 UNK        -0.5000 
     79 N          -1.5491  -25.9134  -46.5200 N.am      14 UNK        -0.5000 
     80 CA         -1.2097  -27.0065  -47.4282 C.3       14 UNK         0.1400 
     81 CB          0.3099  -27.2362  -47.3994 C.3       14 UNK        -0.1800 
     82 C          -1.6870  -26.6785  -48.8518 C.2       14 UNK         0.5000 
     83 O          -2.3361  -27.5086  -49.4898 O.2       14 UNK        -0.5000 
     84 N          -1.3868  -25.4589  -49.3166 N.am      15 UNK        -0.5000 
     85 CA         -1.7634  -24.9180  -50.6208 C.3       15 UNK         0.1400 
     86 CB         -0.7367  -23.8431  -51.0159 C.3       15 UNK        -0.1800 
     87 C          -3.2075  -24.3797  -50.5973 C.2       15 UNK         0.5000 
     88 O          -3.4314  -23.1850  -50.7889 O.2       15 UNK        -0.5000 
     89 N          -4.1627  -25.2812  -50.3395 N.am      16 UNK        -0.5000 
     90 CA         -5.5780  -24.9911  -50.0887 C.3       16 UNK         0.1400 
     91 CB         -6.2428  -26.2656  -49.5447 C.3       16 UNK        -0.1800 
     92 C          -6.3683  -24.4346  -51.2917 C.2       16 UNK         0.5000 
     93 O          -7.5095  -24.0049  -51.1121 O.2       16 UNK        -0.5000 
     94 N          -5.7716  -24.4431  -52.4909 N.am      17 UNK        -0.5000 
     95 CA         -6.3305  -23.9324  -53.7442 C.3       17 UNK         0.1400 
     96 CB         -5.5324  -24.5335  -54.9151 C.3       17 UNK        -0.1800 
     97 C          -6.3762  -22.3884  -53.7977 C.2       17 UNK         0.5000 
     98 O          -5.8225  -21.7804  -54.7156 O.2       17 UNK        -0.5000 
     99 N          -7.0491  -21.7663  -52.8219 N.am      18 UNK        -0.5000 
    100 CA        -7.2055  -20.3145  -52.6817 C.3       18 UNK         0.1400 
    101 CB        -7.9259  -20.0104  -51.3609 C.3       18 UNK        -0.1800 
    102 C         -7.9324  -19.6514  -53.8688 C.2       18 UNK         0.5000 
    103 O         -7.6483  -18.4968  -54.1872 O.2       18 UNK        -0.5000 
    104 N         -8.8050  -20.4131  -54.5448 N.am      19 UNK        -0.5000 
    105 CA        -9.4725  -20.0323  -55.7934 C.3       19 UNK         0.1400 
    106 CB       -10.5532  -21.0756  -56.1153 C.3       19 UNK        -0.1800 
    107 C         -8.5052  -19.8737  -56.9869 C.2       19 UNK         0.5000 
    108 O         -8.8277  -19.1554  -57.9333 O.2       19 UNK        -0.5000 
    109 N         -7.3343  -20.5201  -56.9088 N.am      20 UNK        -0.5000 
    110 CA        -6.2235  -20.4092  -57.8539 C.3       20 UNK         0.1400 
    111 CB        -5.7678  -21.8265  -58.2451 C.3       20 UNK        -0.1800 
    112 C         -5.0706  -19.5828  -57.2451 C.2       20 UNK         0.5000 
    113 O         -3.9131  -19.7770  -57.6217 O.2       20 UNK        -0.5000 
    114 N         -5.3978  -18.6993  -56.2873 N.am      21 UNK        -0.5000 
    115 CA        -4.4986  -17.8062  -55.5468 C.3       21 UNK         0.1400 
    116 CB        -3.9296  -16.7188  -56.4818 C.3       21 UNK        -0.1800 
    117 C         -3.4013  -18.5501  -54.7555 C.2       21 UNK         0.5000 
    118 O         -2.3077  -18.0133  -54.5713 O.2       21 UNK        -0.5000 
    119 N         -3.7140  -19.7758  -54.3131 N.am      22 UNK        -0.5000 
    120 CA        -2.8095  -20.7153  -53.6291 C.3       22 UNK         0.1400 
    121 C         -1.7040  -21.3062  -54.5592 C.2       22 UNK         0.5000 
    122 N         -1.8195  -21.2098  -55.8800 N.am      22 UNK        -0.7600 
    123 O         -0.7304  -21.8833  -54.0854 O.2       22 UNK        -0.5000 
    124 C124       -2.2450  -20.1803  -52.2803 C.3       23 UNK        -0.0398 
    125 S125       -3.5389  -19.5398  -51.1544 S.3       23 UNK        -0.2404 
    126 C126       -3.0421  -17.7963  -50.9624 C.3       23 UNK        -0.0205 
    127 H127       -1.3509   -9.5640  -47.1496 H         1 UNK         0.0600 
    128 H128       -1.3769  -10.2834  -48.7620 H         1 UNK         0.0600 
    129 H129        0.0265   -9.3493  -48.2349 H         1 UNK         0.0600 
    130 H130       -0.9969  -12.4681  -48.7238 H         1 UNK         0.3000 
    131 H131       -0.2954  -14.4969  -48.2585 H         1 UNK         0.0600 
    132 H132        0.0602  -15.0936  -45.7171 H         1 UNK         0.0800 
    133 H133       -0.3122  -13.4324  -45.4032 H         1 UNK         0.0800 
    134 H134       -1.5799  -16.7666  -45.3424 H         1 UNK         0.0800 
    135 H135       -3.2058  -16.8037  -45.9797 H         1 UNK         0.0800 
    136 H136       -3.5890  -16.8423  -48.4661 H         1 UNK         0.1150 
    137 H137       -0.3558  -18.3140  -50.8691 H         1 UNK         0.1150 
    138 H138        0.3363  -17.2400  -46.7844 H         1 UNK         0.1150 
    139 H139        1.9837  -17.7382  -49.9333 H         1 UNK         0.0800 
    140 H140        2.2118  -17.7685  -48.2041 H         1 UNK         0.0800 
    141 H141        1.0204  -19.8222  -46.8111 H         1 UNK         0.0800 
    142 H142        2.7181  -20.1487  -46.9028 H         1 UNK         0.0800 
    143 H143        2.1398  -22.4935  -47.8298 H         1 UNK         0.0600 
    144 H144        1.1824  -22.3295  -45.0679 H         1 UNK         0.3000 
    145 H145        3.5169  -24.0384  -43.7883 H         1 UNK         0.0600 
    146 H146        4.9262  -22.4819  -42.4046 H         1 UNK         0.0600 
    147 H147        4.7231  -21.2226  -43.6221 H         1 UNK         0.0600 
    148 H148        5.5924  -22.7035  -44.0130 H         1 UNK         0.0600 
    149 H149        2.1634  -21.4366  -43.1928 H         1 UNK         0.3000 
    150 H150       -0.4615  -23.0263  -41.5591 H         1 UNK         0.0600 
    151 H151        1.0805  -23.1030  -39.5854 H         1 UNK         0.0600 
    152 H152        0.0070  -21.7154  -39.5096 H         1 UNK         0.0600 
    153 H153        1.6896  -21.5026  -39.9938 H         1 UNK         0.0600 
    154 H154        0.2356  -20.2841  -41.5652 H         1 UNK         0.3000 
    155 H155       -0.7222  -19.4442  -44.8834 H         1 UNK         0.0600 
    156 H156       -2.8671  -19.6772  -43.6346 H         1 UNK         0.0600 
    157 H157       -2.3225  -18.0096  -43.5977 H         1 UNK         0.0600 
    158 H158       -2.1149  -19.0286  -42.1826 H         1 UNK         0.0600 
    159 H159        0.0140  -17.7310  -42.8133 H         1 UNK         0.3000 
    160 H160        3.4513  -18.0834  -42.5812 H         1 UNK         0.0600 
    161 H161        2.2941  -16.2097  -44.7045 H         1 UNK         0.0600 
    162 H162        3.6725  -17.2806  -44.9032 H         1 UNK         0.0600 
    163 H163        3.7788  -15.9123  -43.8035 H         1 UNK         0.0600 
    164 H164        1.7599  -15.7773  -42.2878 H         1 UNK         0.3000 
    165 H165        0.2505  -16.6706  -39.2374 H         1 UNK         0.0600 
    166 H166        1.5195  -14.8348  -38.1481 H         1 UNK         0.0600 
    167 H167        2.5372  -16.2573  -38.3051 H         1 UNK         0.0600 
    168 H168        2.7524  -14.9035  -39.4086 H         1 UNK         0.0600 
    169 H169        0.6458  -14.1159  -40.4233 H         1 UNK         0.3000 
    170 H170       -1.5727  -14.3013  -43.1118 H         1 UNK         0.0600 
    171 H171       -2.2254  -12.9882  -40.4212 H         1 UNK         0.0600 
    172 H172       -2.9198  -12.5608  -41.9864 H         1 UNK         0.0600 
    173 H173       -3.2614  -14.1278  -41.2727 H         1 UNK         0.0600 
    174 H174       -0.5178  -11.9929  -41.9914 H         1 UNK         0.3000 
    175 H175        1.0826  -11.0705  -43.6705 H         1 UNK         0.0600 
    176 H176        2.7312  -11.8442  -41.2038 H         1 UNK         0.0600 
    177 H177        2.8164  -10.2734  -42.0002 H         1 UNK         0.0600 
    178 H178        1.3204  -10.8029  -41.2547 H         1 UNK         0.0600 
    179 H179        2.7300  -11.6147  -45.0090 H         1 UNK         0.3000 
    180 H180        5.4494  -11.7605  -45.1077 H         1 UNK         0.0600 
    181 H181        6.8217  -13.7633  -45.6615 H         1 UNK         0.0600 
    182 H182        5.7160  -14.7959  -44.7591 H         1 UNK         0.0600 
    183 H183        6.6774  -13.5803  -43.9225 H         1 UNK         0.0600 
    184 H184        3.4947  -13.6894  -46.2108 H         1 UNK         0.3000 
    185 H185        3.8393  -12.2654  -49.4502 H         1 UNK         0.0600 
    186 H186        5.3176  -14.2295  -49.6073 H         1 UNK         0.0600 
    187 H187        4.2513  -15.1733  -48.5808 H         1 UNK         0.0600 
    188 H188        3.7067  -14.6447  -50.1721 H         1 UNK         0.0600 
    189 H189        1.7357  -12.4255  -48.8794 H         1 UNK         0.3000 
    190 H190       -0.6811  -20.6091  -47.0563 H         1 UNK         0.3000 
    191 H191       -2.4167  -22.0075  -48.6176 H         1 UNK         0.0600 
    192 H192       -2.7691  -19.7087  -47.8891 H         1 UNK         0.0600 
    193 H193       -3.0127  -20.2085  -46.2144 H         1 UNK         0.0600 
    194 H194       -4.1829  -20.6464  -47.4573 H         1 UNK         0.0600 
    195 H195       -1.6868  -22.8643  -45.2633 H         1 UNK         0.3000 
    196 H196       -3.9502  -24.5284  -44.7584 H         1 UNK         0.0600 
    197 H197       -2.4382  -23.7273  -42.9709 H         1 UNK         0.0600 
    198 H198       -1.0922  -24.6396  -43.6551 H         1 UNK         0.0600 
    199 H199       -2.4777  -25.4836  -42.9720 H         1 UNK         0.0600 
    200 H200       -1.0202  -25.0549  -46.6370 H         1 UNK         0.3000 
    201 H201       -1.6963  -27.9319  -47.1133 H         1 UNK         0.0600 
    202 H202        0.6438  -27.5193  -46.4011 H         1 UNK         0.0600 
    203 H203        0.8629  -26.3433  -47.6942 H         1 UNK         0.0600 
    204 H204        0.5960  -28.0402  -48.0787 H         1 UNK         0.0600 
    205 H205       -0.8754  -24.8227  -48.7085 H         1 UNK         0.3000 
    206 H206       -1.7175  -25.7140  -51.3668 H         1 UNK         0.0600 
    207 H207       -0.7473  -22.9967  -50.3284 H         1 UNK         0.0600 
    208 H208        0.2750  -24.2483  -51.0320 H         1 UNK         0.0600 
    209 H209       -0.9479  -23.4594  -52.0130 H         1 UNK         0.0600 
    210 H210       -3.8643  -26.2363  -50.1768 H         1 UNK         0.3000 
    211 H211       -5.6246  -24.2275  -49.3105 H         1 UNK         0.0600 
    212 H212       -6.2077  -27.0777  -50.2719 H         1 UNK         0.0600 
    213 H213       -7.2906  -26.0896  -49.2976 H         1 UNK         0.0600 
    214 H214       -5.7504  -26.6075  -48.6338 H         1 UNK         0.0600 
    215 H215       -4.8229  -24.7833  -52.5312 H         1 UNK         0.3000 
    216 H216       -7.3602  -24.2851  -53.8292 H         1 UNK         0.0600 
    217 H217       -5.9615  -24.2379  -55.8732 H         1 UNK         0.0600 
    218 H218       -5.5415  -25.6230  -54.8820 H         1 UNK         0.0600 
    219 H219       -4.4921  -24.2050  -54.9044 H         1 UNK         0.0600 
    220 H220       -7.4520  -22.3476  -52.0923 H         1 UNK         0.3000 
    221 H221       -6.2059  -19.8792  -52.6314 H         1 UNK         0.0600 
    222 H222       -8.9222  -20.4534  -51.3347 H         1 UNK         0.0600 
    223 H223       -7.3637  -20.3955  -50.5098 H         1 UNK         0.0600 
    224 H224       -8.0382  -18.9352  -51.2151 H         1 UNK         0.0600 
    225 H225       -8.9781  -21.3484  -54.2071 H         1 UNK         0.3000 
    226 H226       -9.9603  -19.0682  -55.6354 H         1 UNK         0.0600 
    227 H227      -11.2867  -21.1453  -55.3118 H         1 UNK         0.0600 
    228 H228      -11.0942  -20.8103  -57.0247 H         1 UNK         0.0600 
    229 H229      -10.1234  -22.0666  -56.2664 H         1 UNK         0.0600 
    230 H230       -7.1252  -21.0541  -56.0722 H         1 UNK         0.3000 
    231 H231       -6.5436  -19.8929  -58.7608 H         1 UNK         0.0600 
    232 H232       -5.0030  -21.7929  -59.0219 H         1 UNK         0.0600 
    233 H233       -6.5985  -22.4148  -58.6350 H         1 UNK         0.0600 
    234 H234       -5.3472  -22.3619  -57.3935 H         1 UNK         0.0600 
    235 H235       -6.3693  -18.6471  -56.0076 H         1 UNK         0.3000 
    236 H236       -5.1166  -17.3063  -54.7997 H         1 UNK         0.0600 
    237 H237       -3.2476  -17.1386  -57.2219 H         1 UNK         0.0600 
    238 H238       -4.7267  -16.2010  -57.0152 H         1 UNK         0.0600 
    239 H239       -3.3774  -15.9661  -55.9180 H         1 UNK         0.0600 
    240 H240       -4.6164  -20.1678  -54.5572 H         1 UNK         0.3000 
    241 H241       -3.4320  -21.5742  -53.3783 H         1 UNK         0.0600 
    242 H242       -2.5985  -20.7223  -56.3075 H         1 UNK         0.3800 
    243 H243       -1.0997  -21.6026  -56.4651 H         1 UNK         0.3800 
    244 H244       -1.4962  -19.4128  -52.4709 H         1 UNK         0.0800 
    245 H245       -1.7247  -20.9783  -51.7489 H         1 UNK         0.0800 
    246 H246       -2.5919  -17.4209  -51.8820 H         1 UNK         0.0800 
    247 H247       -3.9411  -17.1991  -50.8044 H         1 UNK         0.0800 
@<TRIPOS>BOND
     1    1    2 1    
     2    1  127 1    
     3    1  128 1    
     4    1  129 1    
     5    2    3 2    
     6    2    4 am   BACKBONE|DICT|INTERRES
     7    4    5 1    
     8    4  130 1    
     9    5    6 1    
    10    5   65 1    
    11    5  131 1    
    12    6    7 1    
    13    6  132 1    
    14    6  133 1    
    15    7    8 1    
    16    8    9 1    
    17    8  134 1    
    18    8  135 1    
    19    9   10 ar   
    20    9   14 ar   
    21   10   11 ar   
    22   10  136 1    
    23   11   12 ar   
    24   11  126 1    
    25   12   13 ar   
    26   12  137 1    
    27   13   14 ar   
    28   13   15 1    
    29   14  138 1    
    30   15   16 1    
    31   15  139 1    
    32   15  140 1    
    33   16   17 1    
    34   17   18 1    
    35   17  141 1    
    36   17  142 1    
    37   18   19 1    
    38   18   67 1    
    39   18  143 1    
    40   19   20 am   BACKBONE|DICT|INTERRES
    41   19  144 1    
    42   20   21 2    
    43   20   22 1    
    44   22   23 1    
    45   22   24 1    
    46   22  145 1    
    47   23  146 1    
    48   23  147 1    
    49   23  148 1    
    50   24   25 am   BACKBONE|DICT|INTERRES
    51   24  149 1    
    52   25   26 2    
    53   25   27 1    
    54   27   28 1    
    55   27   29 1    
    56   27  150 1    
    57   28  151 1    
    58   28  152 1    
    59   28  153 1    
    60   29   30 am   BACKBONE|DICT|INTERRES
    61   29  154 1    
    62   30   31 2    
    63   30   32 1    
    64   32   33 1    
    65   32   34 1    
    66   32  155 1    
    67   33  156 1    
    68   33  157 1    
    69   33  158 1    
    70   34   35 am   BACKBONE|DICT|INTERRES
    71   34  159 1    
    72   35   36 2    
    73   35   37 1    
    74   37   38 1    
    75   37   39 1    
    76   37  160 1    
    77   38  161 1    
    78   38  162 1    
    79   38  163 1    
    80   39   40 am   BACKBONE|DICT|INTERRES
    81   39  164 1    
    82   40   41 2    
    83   40   42 1    
    84   42   43 1    
    85   42   44 1    
    86   42  165 1    
    87   43  166 1    
    88   43  167 1    
    89   43  168 1    
    90   44   45 am   BACKBONE|DICT|INTERRES
    91   44  169 1    
    92   45   46 2    
    93   45   47 1    
    94   47   48 1    
    95   47   49 1    
    96   47  170 1    
    97   48  171 1    
    98   48  172 1    
    99   48  173 1    
   100   49   50 am   BACKBONE|DICT|INTERRES
   101   49  174 1    
   102   50   51 2    
   103   50   52 1    
   104   52   53 1    
   105   52   54 1    
   106   52  175 1    
   107   53  176 1    
   108   53  177 1    
   109   53  178 1    
   110   54   55 am   BACKBONE|DICT|INTERRES
   111   54  179 1    
   112   55   56 2    
   113   55   57 1    
   114   57   58 1    
   115   57   59 1    
   116   57  180 1    
   117   58  181 1    
   118   58  182 1    
   119   58  183 1    
   120   59   60 am   BACKBONE|DICT|INTERRES
   121   59  184 1    
   122   60   61 2    
   123   60   62 1    
   124   62   63 1    
   125   62   64 1    
   126   62  185 1    
   127   63  186 1    
   128   63  187 1    
   129   63  188 1    
   130   64   65 am   BACKBONE|DICT|INTERRES
   131   64  189 1    
   132   65   66 2    
   133   67   68 2    
   134   67   69 am   BACKBONE|DICT|INTERRES
   135   69   70 1    
   136   69  190 1    
   137   70   71 1    
   138   70   72 1    
   139   70  191 1    
   140   71  192 1    
   141   71  193 1    
   142   71  194 1    
   143   72   73 2    
   144   72   74 am   BACKBONE|DICT|INTERRES
   145   74   75 1    
   146   74  195 1    
   147   75   76 1    
   148   75   77 1    
   149   75  196 1    
   150   76  197 1    
   151   76  198 1    
   152   76  199 1    
   153   77   78 2    
   154   77   79 am   BACKBONE|DICT|INTERRES
   155   79   80 1    
   156   79  200 1    
   157   80   81 1    
   158   80   82 1    
   159   80  201 1    
   160   81  202 1    
   161   81  203 1    
   162   81  204 1    
   163   82   83 2    
   164   82   84 am   BACKBONE|DICT|INTERRES
   165   84   85 1    
   166   84  205 1    
   167   85   86 1    
   168   85   87 1    
   169   85  206 1    
   170   86  207 1    
   171   86  208 1    
   172   86  209 1    
   173   87   88 2    
   174   87   89 am   BACKBONE|DICT|INTERRES
   175   89   90 1    
   176   89  210 1    
   177   90   91 1    
   178   90   92 1    
   179   90  211 1    
   180   91  212 1    
   181   91  213 1    
   182   91  214 1    
   183   92   93 2    
   184   92   94 am   BACKBONE|DICT|INTERRES
   185   94   95 1    
   186   94  215 1    
   187   95   96 1    
   188   95   97 1    
   189   95  216 1    
   190   96  217 1    
   191   96  218 1    
   192   96  219 1    
   193   97   98 2    
   194   97   99 am   BACKBONE|DICT|INTERRES
   195   99  100 1    
   196   99  220 1    
   197  100  101 1    
   198  100  102 1    
   199  100  221 1    
   200  101  222 1    
   201  101  223 1    
   202  101  224 1    
   203  102  103 2    
   204  102  104 am   BACKBONE|DICT|INTERRES
   205  104  105 1    
   206  104  225 1    
   207  105  106 1    
   208  105  107 1    
   209  105  226 1    
   210  106  227 1    
   211  106  228 1    
   212  106  229 1    
   213  107  108 2    
   214  107  109 am   BACKBONE|DICT|INTERRES
   215  109  110 1    
   216  109  230 1    
   217  110  111 1    
   218  110  112 1    
   219  110  231 1    
   220  111  232 1    
   221  111  233 1    
   222  111  234 1    
   223  112  113 2    
   224  112  114 am   BACKBONE|DICT|INTERRES
   225  114  115 1    
   226  114  235 1    
   227  115  116 1    
   228  115  117 1    
   229  115  236 1    
   230  116  237 1    
   231  116  238 1    
   232  116  239 1    
   233  117  118 2    
   234  117  119 am   BACKBONE|DICT|INTERRES
   235  119  120 1    
   236  119  240 1    
   237  120  121 1    
   238  120  124 1    
   239  120  241 1    
   240  121  122 am   BACKBONE|DICT|INTERRES
   241  121  123 2    
   242  122  242 1    
   243  122  243 1    
   244  124  125 1    
   245  124  244 1    
   246  124  245 1    
   247  125  126 1    
   248  126  246 1    
   249  126  247 1    
@<TRIPOS>SUBSTRUCTURE
     1 UNK         1 GROUP             0       ****    0 ROOT    
