@<TRIPOS>MOLECULE
3R540
247   249    1
SMALL
USER_CHARGES


@<TRIPOS>ATOM
      1 CA          1.8262  -10.6130  -45.7917 C.3       0 UNK        -0.1800 
      2 C           3.0847  -10.9259  -46.5900 C.2       0 UNK         0.5000 
      3 O           4.1467  -10.3747  -46.3033 O.2       0 UNK        -0.5000 
      4 N           2.9668  -11.8078  -47.5897 N.am      1 UNK        -0.5000 
      5 CA          4.0762  -12.3228  -48.4060 C.3       1 UNK         0.1400 
      6 C6          3.5747  -12.9046  -49.7511 C.3       23 UNK        -0.0398 
      7 S7          2.2231  -14.1189  -49.5574 S.3       23 UNK        -0.2404 
      8 C8          2.9664  -15.6400  -50.2431 C.3       23 UNK        -0.0205 
      9 C9          2.0129  -16.8346  -50.2426 C.ar      23 UNK        -0.0193 
     10 C10         0.6367  -16.6624  -50.4331 C.ar      23 UNK        -0.1150 
     11 C11        -0.2343  -17.7509  -50.4084 C.ar      23 UNK        -0.0193 
     12 C12         0.2821  -19.0354  -50.2191 C.ar      23 UNK        -0.1150 
     13 C13         1.6580  -19.2357  -50.0724 C.ar      23 UNK        -0.0193 
     14 C14         2.5169  -18.1304  -50.0777 C.ar      23 UNK        -0.1150 
     15 C15         2.2054  -20.6519  -49.9305 C.3       23 UNK        -0.0205 
     16 S16         2.9612  -20.9911  -48.3046 S.3       23 UNK        -0.2404 
     17 C17         1.6477  -20.5058  -47.1369 C.3       23 UNK        -0.0398 
     18 CA          0.7631  -21.6681  -46.6255 C.3       11 UNK         0.1400 
     19 N           0.0489  -21.2837  -45.4059 N.am      11 UNK        -0.5000 
     20 C          -0.6948  -22.0921  -44.6405 C.2       10 UNK         0.5000 
     21 O          -0.8054  -23.3007  -44.8351 O.2       10 UNK        -0.5000 
     22 CA         -1.4914  -21.4314  -43.4982 C.3       10 UNK         0.1400 
     23 CB         -0.6298  -21.2925  -42.2351 C.3       10 UNK        -0.1800 
     24 N          -2.0389  -20.1255  -43.8760 N.am      10 UNK        -0.5000 
     25 C          -2.9676  -19.9462  -44.8271 C.2       9 UNK         0.5000 
     26 O          -3.5065  -20.8746  -45.4301 O.2       9 UNK        -0.5000 
     27 CA         -3.3101  -18.4922  -45.2093 C.3       9 UNK         0.1400 
     28 CB         -4.3194  -17.8818  -44.2261 C.3       9 UNK        -0.1800 
     29 N          -2.1212  -17.6407  -45.2962 N.am      9 UNK        -0.5000 
     30 C          -1.1465  -17.8046  -46.2023 C.2       8 UNK         0.5000 
     31 O          -1.1994  -18.6429  -47.1014 O.2       8 UNK        -0.5000 
     32 CA          0.1226  -16.9425  -46.0357 C.3       8 UNK         0.1400 
     33 CB         -0.0400  -15.5666  -46.6973 C.3       8 UNK        -0.1800 
     34 N           0.5015  -16.7773  -44.6292 N.am      8 UNK        -0.5000 
     35 C           0.9142  -17.7810  -43.8412 C.2       7 UNK         0.5000 
     36 O           1.0952  -18.9263  -44.2452 O.2       7 UNK        -0.5000 
     37 CA          1.0985  -17.4818  -42.3438 C.3       7 UNK         0.1400 
     38 CB          2.5112  -16.9638  -42.0419 C.3       7 UNK        -0.1800 
     39 N           0.0977  -16.5366  -41.8518 N.am      7 UNK        -0.5000 
     40 C          -1.1945  -16.8464  -41.6731 C.2       6 UNK         0.5000 
     41 O          -1.6538  -17.9736  -41.8553 O.2       6 UNK        -0.5000 
     42 CA         -2.1357  -15.6969  -41.2662 C.3       6 UNK         0.1400 
     43 CB         -2.1482  -15.5252  -39.7402 C.3       6 UNK        -0.1800 
     44 N          -1.7715  -14.4247  -41.8927 N.am      6 UNK        -0.5000 
     45 C          -1.8496  -14.1749  -43.2081 C.2       5 UNK         0.5000 
     46 O          -2.3049  -14.9743  -44.0252 O.2       5 UNK        -0.5000 
     47 CA         -1.2584  -12.8351  -43.6944 C.3       5 UNK         0.1400 
     48 CB         -2.3231  -11.7294  -43.6681 C.3       5 UNK        -0.1800 
     49 N          -0.0941  -12.4113  -42.9075 N.am      5 UNK        -0.5000 
     50 C           1.0570  -13.0925  -42.8527 C.2       4 UNK         0.5000 
     51 O           1.2773  -14.1054  -43.5248 O.2       4 UNK        -0.5000 
     52 CA          2.1022  -12.6084  -41.8359 C.3       4 UNK         0.1400 
     53 CB          1.6021  -12.8418  -40.3954 C.3       4 UNK        -0.1800 
     54 N           3.3265  -13.3620  -42.0718 N.am      4 UNK        -0.5000 
     55 C           4.5394  -13.1427  -41.5528 C.2       3 UNK         0.5000 
     56 O           4.7962  -12.2284  -40.7688 O.2       3 UNK        -0.5000 
     57 CA          5.6605  -14.1122  -41.9879 C.3       3 UNK         0.1400 
     58 CB          5.8775  -15.1959  -40.9205 C.3       3 UNK        -0.1800 
     59 N           5.3988  -14.7601  -43.2792 N.am      3 UNK        -0.5000 
     60 C           5.4112  -14.1191  -44.4557 C.2       2 UNK         0.5000 
     61 O           5.7309  -12.9332  -44.5619 O.2       2 UNK        -0.5000 
     62 CA          4.9863  -14.9195  -45.7075 C.3       2 UNK         0.1400 
     63 CB          4.0151  -16.0764  -45.3999 C.3       2 UNK        -0.1800 
     64 N           4.3347  -14.0260  -46.6596 N.am      2 UNK        -0.5000 
     65 C           4.9431  -13.3466  -47.6399 C.2       1 UNK         0.5000 
     66 O           6.1276  -13.4923  -47.9471 O.2       1 UNK        -0.5000 
     67 C          -0.2063  -22.1887  -47.7096 C.2       11 UNK         0.5000 
     68 O           0.0547  -23.2363  -48.3002 O.2       11 UNK        -0.5000 
     69 N          -1.3335  -21.4898  -47.9151 N.am      12 UNK        -0.5000 
     70 CA         -2.4088  -21.9121  -48.8172 C.3       12 UNK         0.1400 
     71 CB         -3.4482  -20.7928  -48.9595 C.3       12 UNK        -0.1800 
     72 C          -3.0855  -23.2208  -48.3708 C.2       12 UNK         0.5000 
     73 O          -3.3684  -24.0728  -49.2139 O.2       12 UNK        -0.5000 
     74 N          -3.3026  -23.3742  -47.0569 N.am      13 UNK        -0.5000 
     75 CA         -3.8364  -24.5922  -46.4453 C.3       13 UNK         0.1400 
     76 CB         -4.1867  -24.3283  -44.9736 C.3       13 UNK        -0.1800 
     77 C          -2.8781  -25.7903  -46.5845 C.2       13 UNK         0.5000 
     78 O          -3.3265  -26.8856  -46.9227 O.2       13 UNK        -0.5000 
     79 N          -1.5734  -25.5564  -46.3814 N.am      14 UNK        -0.5000 
     80 CA         -0.5007  -26.5338  -46.5930 C.3       14 UNK         0.1400 
     81 CB          0.8242  -25.9666  -46.0618 C.3       14 UNK        -0.1800 
     82 C          -0.3614  -26.9610  -48.0677 C.2       14 UNK         0.5000 
     83 O          -0.0612  -28.1235  -48.3397 O.2       14 UNK        -0.5000 
     84 N          -0.6399  -26.0297  -48.9896 N.am      15 UNK        -0.5000 
     85 CA         -0.7466  -26.2579  -50.4322 C.3       15 UNK         0.1400 
     86 CB         -0.5084  -24.9252  -51.1635 C.3       15 UNK        -0.1800 
     87 C          -2.0899  -26.8934  -50.8593 C.2       15 UNK         0.5000 
     88 O          -2.3337  -27.0205  -52.0595 O.2       15 UNK        -0.5000 
     89 N          -2.9478  -27.2600  -49.8933 N.am      16 UNK        -0.5000 
     90 CA         -4.2550  -27.9081  -50.0517 C.3       16 UNK         0.1400 
     91 CB         -4.0869  -29.3325  -50.6207 C.3       16 UNK        -0.1800 
     92 C          -5.2729  -27.0627  -50.8453 C.2       16 UNK         0.5000 
     93 O          -6.1541  -27.6205  -51.5018 O.2       16 UNK        -0.5000 
     94 N          -5.1254  -25.7307  -50.7752 N.am      17 UNK        -0.5000 
     95 CA         -5.9078  -24.7112  -51.4781 C.3       17 UNK         0.1400 
     96 CB         -7.3606  -24.6766  -50.9611 C.3       17 UNK        -0.1800 
     97 C          -5.8178  -24.8117  -53.0166 C.2       17 UNK         0.5000 
     98 O          -6.7443  -24.3919  -53.7114 O.2       17 UNK        -0.5000 
     99 N          -4.6911  -25.3254  -53.5373 N.am      18 UNK        -0.5000 
    100 CA        -4.4146  -25.4551  -54.9745 C.3       18 UNK         0.1400 
    101 CB        -3.1116  -26.2442  -55.1688 C.3       18 UNK        -0.1800 
    102 C         -4.3435  -24.1048  -55.7184 C.2       18 UNK         0.5000 
    103 O         -4.6014  -24.0545  -56.9212 O.2       18 UNK        -0.5000 
    104 N         -4.0300  -23.0337  -54.9783 N.am      19 UNK        -0.5000 
    105 CA        -4.0370  -21.6440  -55.4358 C.3       19 UNK         0.1400 
    106 CB        -3.0468  -20.8550  -54.5670 C.3       19 UNK        -0.1800 
    107 C         -5.4389  -20.9930  -55.4017 C.2       19 UNK         0.5000 
    108 O         -5.5518  -19.8040  -55.7079 O.2       19 UNK        -0.5000 
    109 N         -6.4740  -21.7571  -55.0156 N.am      20 UNK        -0.5000 
    110 CA        -7.8730  -21.3545  -54.8589 C.3       20 UNK         0.1400 
    111 CB        -8.5048  -21.0190  -56.2294 C.3       20 UNK        -0.1800 
    112 C         -8.0100  -20.2426  -53.8012 C.2       20 UNK         0.5000 
    113 O         -7.7635  -20.5039  -52.6226 O.2       20 UNK        -0.5000 
    114 N         -8.3730  -19.0277  -54.2326 N.am      21 UNK        -0.5000 
    115 CA        -8.4655  -17.8333  -53.3913 C.3       21 UNK         0.1400 
    116 CB        -9.1975  -16.7314  -54.1729 C.3       21 UNK        -0.1800 
    117 C         -7.0977  -17.3230  -52.8926 C.2       21 UNK         0.5000 
    118 O         -7.0546  -16.6261  -51.8782 O.2       21 UNK        -0.5000 
    119 N         -6.0143  -17.6766  -53.6009 N.am      22 UNK        -0.5000 
    120 CA        -4.6218  -17.3200  -53.2807 C.3       22 UNK         0.1400 
    121 C         -4.2856  -15.8014  -53.4269 C.2       22 UNK         0.5000 
    122 N         -5.0612  -15.0292  -54.1789 N.am      22 UNK        -0.7600 
    123 O         -3.3035  -15.3113  -52.8775 O.2       22 UNK        -0.5000 
    124 C124       -4.1584  -17.9442  -51.9314 C.3       23 UNK        -0.0398 
    125 S125       -2.4135  -18.4731  -51.9622 S.3       23 UNK        -0.2404 
    126 C126       -1.7299  -17.5237  -50.5697 C.3       23 UNK        -0.0205 
    127 H127        1.5018   -9.5910  -45.9866 H         1 UNK         0.0600 
    128 H128        2.0258  -10.7103  -44.7248 H         1 UNK         0.0600 
    129 H129        1.0069  -11.2870  -46.0442 H         1 UNK         0.0600 
    130 H130        2.0627  -12.2070  -47.8019 H         1 UNK         0.3000 
    131 H131        4.7314  -11.4818  -48.6434 H         1 UNK         0.0600 
    132 H132        3.1944  -12.0917  -50.3710 H         1 UNK         0.0800 
    133 H133        4.3982  -13.3410  -50.3195 H         1 UNK         0.0800 
    134 H134        3.8619  -15.8770  -49.6662 H         1 UNK         0.0800 
    135 H135        3.2878  -15.4528  -51.2683 H         1 UNK         0.0800 
    136 H136        0.2315  -15.6734  -50.5899 H         1 UNK         0.1150 
    137 H137       -0.3921  -19.8798  -50.2013 H         1 UNK         0.1150 
    138 H138        3.5799  -18.2835  -49.9541 H         1 UNK         0.1150 
    139 H139        1.4214  -21.3880  -50.1148 H         1 UNK         0.0800 
    140 H140        2.9567  -20.8167  -50.7038 H         1 UNK         0.0800 
    141 H141        1.0439  -19.7042  -47.5546 H         1 UNK         0.0800 
    142 H142        2.1719  -20.0574  -46.2931 H         1 UNK         0.0800 
    143 H143        1.4202  -22.4959  -46.3513 H         1 UNK         0.0600 
    144 H144        0.1547  -20.3165  -45.1130 H         1 UNK         0.3000 
    145 H145       -2.3324  -22.0853  -43.2594 H         1 UNK         0.0600 
    146 H146       -1.1966  -20.8478  -41.4169 H         1 UNK         0.0600 
    147 H147       -0.2786  -22.2679  -41.8964 H         1 UNK         0.0600 
    148 H148        0.2488  -20.6729  -42.4099 H         1 UNK         0.0600 
    149 H149       -1.6873  -19.3163  -43.3751 H         1 UNK         0.3000 
    150 H150       -3.7755  -18.5129  -46.1970 H         1 UNK         0.0600 
    151 H151       -5.2357  -18.4724  -44.1937 H         1 UNK         0.0600 
    152 H152       -4.5943  -16.8692  -44.5219 H         1 UNK         0.0600 
    153 H153       -3.9236  -17.8372  -43.2122 H         1 UNK         0.0600 
    154 H154       -2.0451  -16.8813  -44.6278 H         1 UNK         0.3000 
    155 H155        0.9411  -17.4569  -46.5433 H         1 UNK         0.0600 
    156 H156       -0.8547  -14.9956  -46.2541 H         1 UNK         0.0600 
    157 H157       -0.2559  -15.6724  -47.7609 H         1 UNK         0.0600 
    158 H158        0.8724  -14.9766  -46.6084 H         1 UNK         0.0600 
    159 H159        0.4292  -15.8459  -44.2362 H         1 UNK         0.3000 
    160 H160        0.9721  -18.4209  -41.8013 H         1 UNK         0.0600 
    161 H161        2.7233  -16.0357  -42.5660 H         1 UNK         0.0600 
    162 H162        3.2642  -17.6913  -42.3474 H         1 UNK         0.0600 
    163 H163        2.6447  -16.7853  -40.9749 H         1 UNK         0.0600 
    164 H164        0.3927  -15.5803  -41.7306 H         1 UNK         0.3000 
    165 H165       -3.1445  -15.9608  -41.5905 H         1 UNK         0.0600 
    166 H166       -2.8654  -14.7630  -39.4351 H         1 UNK         0.0600 
    167 H167       -2.4336  -16.4547  -39.2457 H         1 UNK         0.0600 
    168 H168       -1.1681  -15.2371  -39.3576 H         1 UNK         0.0600 
    169 H169       -1.3985  -13.7086  -41.2879 H         1 UNK         0.3000 
    170 H170       -0.9348  -12.9724  -44.7283 H         1 UNK         0.0600 
    171 H171       -3.1924  -12.0112  -44.2639 H         1 UNK         0.0600 
    172 H172       -2.6709  -11.5273  -42.6543 H         1 UNK         0.0600 
    173 H173       -1.9347  -10.7989  -44.0825 H         1 UNK         0.0600 
    174 H174       -0.2105  -11.5870  -42.3355 H         1 UNK         0.3000 
    175 H175        2.2937  -11.5472  -42.0052 H         1 UNK         0.0600 
    176 H176        1.4187  -13.8991  -40.2000 H         1 UNK         0.0600 
    177 H177        2.3251  -12.4906  -39.6595 H         1 UNK         0.0600 
    178 H178        0.6729  -12.3045  -40.2034 H         1 UNK         0.0600 
    179 H179        3.2085  -14.1038  -42.7495 H         1 UNK         0.3000 
    180 H180        6.5815  -13.5318  -42.0748 H         1 UNK         0.0600 
    181 H181        4.9916  -15.8174  -40.7892 H         1 UNK         0.0600 
    182 H182        6.1098  -14.7491  -39.9529 H         1 UNK         0.0600 
    183 H183        6.7105  -15.8482  -41.1834 H         1 UNK         0.0600 
    184 H184        5.1586  -15.7400  -43.2557 H         1 UNK         0.3000 
    185 H185        5.8909  -15.3406  -46.1505 H         1 UNK         0.0600 
    186 H186        3.7070  -16.5813  -46.3161 H         1 UNK         0.0600 
    187 H187        4.4721  -16.8334  -44.7621 H         1 UNK         0.0600 
    188 H188        3.1122  -15.7165  -44.9077 H         1 UNK         0.0600 
    189 H189        3.3696  -13.8025  -46.4700 H         1 UNK         0.3000 
    190 H190       -1.4611  -20.6087  -47.4263 H         1 UNK         0.3000 
    191 H191       -1.9656  -22.0849  -49.7998 H         1 UNK         0.0600 
    192 H192       -3.9466  -20.5748  -48.0154 H         1 UNK         0.0600 
    193 H193       -4.2178  -21.0640  -49.6833 H         1 UNK         0.0600 
    194 H194       -2.9843  -19.8746  -49.3091 H         1 UNK         0.0600 
    195 H195       -3.0959  -22.5985  -46.4360 H         1 UNK         0.3000 
    196 H196       -4.7605  -24.8463  -46.9690 H         1 UNK         0.0600 
    197 H197       -4.6529  -25.2049  -44.5223 H         1 UNK         0.0600 
    198 H198       -4.8887  -23.4997  -44.8777 H         1 UNK         0.0600 
    199 H199       -3.3038  -24.0881  -44.3825 H         1 UNK         0.0600 
    200 H200       -1.2910  -24.6409  -46.0387 H         1 UNK         0.3000 
    201 H201       -0.7452  -27.4258  -46.0128 H         1 UNK         0.0600 
    202 H202        0.7521  -25.7246  -45.0013 H         1 UNK         0.0600 
    203 H203        1.1162  -25.0602  -46.5920 H         1 UNK         0.0600 
    204 H204        1.6328  -26.6894  -46.1768 H         1 UNK         0.0600 
    205 H205       -0.8053  -25.0796  -48.6745 H         1 UNK         0.3000 
    206 H206        0.0422  -26.9503  -50.7322 H         1 UNK         0.0600 
    207 H207        0.4473  -24.4843  -50.8792 H         1 UNK         0.0600 
    208 H208       -0.4900  -25.0661  -52.2448 H         1 UNK         0.0600 
    209 H209       -1.2898  -24.1990  -50.9415 H         1 UNK         0.0600 
    210 H210       -2.6875  -27.0702  -48.9331 H         1 UNK         0.3000 
    211 H211       -4.6684  -28.0044  -49.0472 H         1 UNK         0.0600 
    212 H212       -3.7424  -29.3173  -51.6552 H         1 UNK         0.0600 
    213 H213       -5.0310  -29.8779  -50.5987 H         1 UNK         0.0600 
    214 H214       -3.3689  -29.9077  -50.0361 H         1 UNK         0.0600 
    215 H215       -4.3711  -25.3618  -50.1999 H         1 UNK         0.3000 
    216 H216       -5.4498  -23.7558  -51.2184 H         1 UNK         0.0600 
    217 H217       -7.8993  -23.8190  -51.3661 H         1 UNK         0.0600 
    218 H218       -7.3898  -24.5915  -49.8748 H         1 UNK         0.0600 
    219 H219       -7.9134  -25.5728  -51.2437 H         1 UNK         0.0600 
    220 H220       -3.9851  -25.6902  -52.9091 H         1 UNK         0.3000 
    221 H221       -5.2305  -26.0285  -55.4192 H         1 UNK         0.0600 
    222 H222       -2.2635  -25.7403  -54.7034 H         1 UNK         0.0600 
    223 H223       -3.1876  -27.2415  -54.7348 H         1 UNK         0.0600 
    224 H224       -2.8813  -26.3686  -56.2276 H         1 UNK         0.0600 
    225 H225       -3.8283  -23.1819  -54.0007 H         1 UNK         0.3000 
    226 H226       -3.6881  -21.6071  -56.4697 H         1 UNK         0.0600 
    227 H227       -2.0488  -21.2920  -54.6060 H         1 UNK         0.0600 
    228 H228       -2.9577  -19.8230  -54.9072 H         1 UNK         0.0600 
    229 H229       -3.3635  -20.8345  -53.5238 H         1 UNK         0.0600 
    230 H230       -6.2852  -22.7127  -54.7338 H         1 UNK         0.3000 
    231 H231       -8.4012  -22.2211  -54.4588 H         1 UNK         0.0600 
    232 H232       -8.4448  -21.8756  -56.9008 H         1 UNK         0.0600 
    233 H233       -8.0128  -20.1816  -56.7247 H         1 UNK         0.0600 
    234 H234       -9.5616  -20.7703  -56.1238 H         1 UNK         0.0600 
    235 H235       -8.5369  -18.8997  -55.2207 H         1 UNK         0.3000 
    236 H236       -9.0623  -18.0825  -52.5114 H         1 UNK         0.0600 
    237 H237       -9.3084  -15.8304  -53.5679 H         1 UNK         0.0600 
    238 H238       -8.6579  -16.4540  -55.0793 H         1 UNK         0.0600 
    239 H239      -10.1987  -17.0514  -54.4622 H         1 UNK         0.0600 
    240 H240       -6.1334  -18.2692  -54.4156 H         1 UNK         0.3000 
    241 H241       -4.0484  -17.7955  -54.0764 H         1 UNK         0.0600 
    242 H242       -4.8391  -14.0510  -54.2780 H         1 UNK         0.3800 
    243 H243       -5.8665  -15.4116  -54.6477 H         1 UNK         0.3800 
    244 H244       -4.7395  -18.8415  -51.7129 H         1 UNK         0.0800 
    245 H245       -4.3464  -17.2647  -51.0984 H         1 UNK         0.0800 
    246 H246       -2.2323  -17.7942  -49.6415 H         1 UNK         0.0800 
    247 H247       -1.9411  -16.4659  -50.7340 H         1 UNK         0.0800 
@<TRIPOS>BOND
     1    1    2 1    
     2    1  127 1    
     3    1  128 1    
     4    1  129 1    
     5    2    3 2    
     6    2    4 am   BACKBONE|DICT|INTERRES
     7    4    5 1    
     8    4  130 1    
     9    5    6 1    
    10    5   65 1    
    11    5  131 1    
    12    6    7 1    
    13    6  132 1    
    14    6  133 1    
    15    7    8 1    
    16    8    9 1    
    17    8  134 1    
    18    8  135 1    
    19    9   10 ar   
    20    9   14 ar   
    21   10   11 ar   
    22   10  136 1    
    23   11   12 ar   
    24   11  126 1    
    25   12   13 ar   
    26   12  137 1    
    27   13   14 ar   
    28   13   15 1    
    29   14  138 1    
    30   15   16 1    
    31   15  139 1    
    32   15  140 1    
    33   16   17 1    
    34   17   18 1    
    35   17  141 1    
    36   17  142 1    
    37   18   19 1    
    38   18   67 1    
    39   18  143 1    
    40   19   20 am   BACKBONE|DICT|INTERRES
    41   19  144 1    
    42   20   21 2    
    43   20   22 1    
    44   22   23 1    
    45   22   24 1    
    46   22  145 1    
    47   23  146 1    
    48   23  147 1    
    49   23  148 1    
    50   24   25 am   BACKBONE|DICT|INTERRES
    51   24  149 1    
    52   25   26 2    
    53   25   27 1    
    54   27   28 1    
    55   27   29 1    
    56   27  150 1    
    57   28  151 1    
    58   28  152 1    
    59   28  153 1    
    60   29   30 am   BACKBONE|DICT|INTERRES
    61   29  154 1    
    62   30   31 2    
    63   30   32 1    
    64   32   33 1    
    65   32   34 1    
    66   32  155 1    
    67   33  156 1    
    68   33  157 1    
    69   33  158 1    
    70   34   35 am   BACKBONE|DICT|INTERRES
    71   34  159 1    
    72   35   36 2    
    73   35   37 1    
    74   37   38 1    
    75   37   39 1    
    76   37  160 1    
    77   38  161 1    
    78   38  162 1    
    79   38  163 1    
    80   39   40 am   BACKBONE|DICT|INTERRES
    81   39  164 1    
    82   40   41 2    
    83   40   42 1    
    84   42   43 1    
    85   42   44 1    
    86   42  165 1    
    87   43  166 1    
    88   43  167 1    
    89   43  168 1    
    90   44   45 am   BACKBONE|DICT|INTERRES
    91   44  169 1    
    92   45   46 2    
    93   45   47 1    
    94   47   48 1    
    95   47   49 1    
    96   47  170 1    
    97   48  171 1    
    98   48  172 1    
    99   48  173 1    
   100   49   50 am   BACKBONE|DICT|INTERRES
   101   49  174 1    
   102   50   51 2    
   103   50   52 1    
   104   52   53 1    
   105   52   54 1    
   106   52  175 1    
   107   53  176 1    
   108   53  177 1    
   109   53  178 1    
   110   54   55 am   BACKBONE|DICT|INTERRES
   111   54  179 1    
   112   55   56 2    
   113   55   57 1    
   114   57   58 1    
   115   57   59 1    
   116   57  180 1    
   117   58  181 1    
   118   58  182 1    
   119   58  183 1    
   120   59   60 am   BACKBONE|DICT|INTERRES
   121   59  184 1    
   122   60   61 2    
   123   60   62 1    
   124   62   63 1    
   125   62   64 1    
   126   62  185 1    
   127   63  186 1    
   128   63  187 1    
   129   63  188 1    
   130   64   65 am   BACKBONE|DICT|INTERRES
   131   64  189 1    
   132   65   66 2    
   133   67   68 2    
   134   67   69 am   BACKBONE|DICT|INTERRES
   135   69   70 1    
   136   69  190 1    
   137   70   71 1    
   138   70   72 1    
   139   70  191 1    
   140   71  192 1    
   141   71  193 1    
   142   71  194 1    
   143   72   73 2    
   144   72   74 am   BACKBONE|DICT|INTERRES
   145   74   75 1    
   146   74  195 1    
   147   75   76 1    
   148   75   77 1    
   149   75  196 1    
   150   76  197 1    
   151   76  198 1    
   152   76  199 1    
   153   77   78 2    
   154   77   79 am   BACKBONE|DICT|INTERRES
   155   79   80 1    
   156   79  200 1    
   157   80   81 1    
   158   80   82 1    
   159   80  201 1    
   160   81  202 1    
   161   81  203 1    
   162   81  204 1    
   163   82   83 2    
   164   82   84 am   BACKBONE|DICT|INTERRES
   165   84   85 1    
   166   84  205 1    
   167   85   86 1    
   168   85   87 1    
   169   85  206 1    
   170   86  207 1    
   171   86  208 1    
   172   86  209 1    
   173   87   88 2    
   174   87   89 am   BACKBONE|DICT|INTERRES
   175   89   90 1    
   176   89  210 1    
   177   90   91 1    
   178   90   92 1    
   179   90  211 1    
   180   91  212 1    
   181   91  213 1    
   182   91  214 1    
   183   92   93 2    
   184   92   94 am   BACKBONE|DICT|INTERRES
   185   94   95 1    
   186   94  215 1    
   187   95   96 1    
   188   95   97 1    
   189   95  216 1    
   190   96  217 1    
   191   96  218 1    
   192   96  219 1    
   193   97   98 2    
   194   97   99 am   BACKBONE|DICT|INTERRES
   195   99  100 1    
   196   99  220 1    
   197  100  101 1    
   198  100  102 1    
   199  100  221 1    
   200  101  222 1    
   201  101  223 1    
   202  101  224 1    
   203  102  103 2    
   204  102  104 am   BACKBONE|DICT|INTERRES
   205  104  105 1    
   206  104  225 1    
   207  105  106 1    
   208  105  107 1    
   209  105  226 1    
   210  106  227 1    
   211  106  228 1    
   212  106  229 1    
   213  107  108 2    
   214  107  109 am   BACKBONE|DICT|INTERRES
   215  109  110 1    
   216  109  230 1    
   217  110  111 1    
   218  110  112 1    
   219  110  231 1    
   220  111  232 1    
   221  111  233 1    
   222  111  234 1    
   223  112  113 2    
   224  112  114 am   BACKBONE|DICT|INTERRES
   225  114  115 1    
   226  114  235 1    
   227  115  116 1    
   228  115  117 1    
   229  115  236 1    
   230  116  237 1    
   231  116  238 1    
   232  116  239 1    
   233  117  118 2    
   234  117  119 am   BACKBONE|DICT|INTERRES
   235  119  120 1    
   236  119  240 1    
   237  120  121 1    
   238  120  124 1    
   239  120  241 1    
   240  121  122 am   BACKBONE|DICT|INTERRES
   241  121  123 2    
   242  122  242 1    
   243  122  243 1    
   244  124  125 1    
   245  124  244 1    
   246  124  245 1    
   247  125  126 1    
   248  126  246 1    
   249  126  247 1    
@<TRIPOS>SUBSTRUCTURE
     1 UNK         1 GROUP             0       ****    0 ROOT    
