@<TRIPOS>MOLECULE
3R540
247   249    1
SMALL
USER_CHARGES


@<TRIPOS>ATOM
      1 CA         -4.3471  -14.9575  -47.6280 C.3       0 UNK        -0.1800 
      2 C          -3.4370  -13.7978  -47.2476 C.2       0 UNK         0.5000 
      3 O          -3.9191  -12.7158  -46.9105 O.2       0 UNK        -0.5000 
      4 N          -2.1194  -14.0194  -47.3006 N.am      1 UNK        -0.5000 
      5 CA         -1.0616  -13.0604  -46.9720 C.3       1 UNK         0.1400 
      6 C6          0.2664  -13.3649  -47.7215 C.3       23 UNK        -0.0398 
      7 S7          0.7324  -15.1334  -47.8362 S.3       23 UNK        -0.2404 
      8 C8          0.0360  -15.5405  -49.4779 C.3       23 UNK        -0.0205 
      9 C9          0.4947  -16.8565  -50.1038 C.ar      23 UNK        -0.0193 
     10 C10         0.2080  -17.0619  -51.4562 C.ar      23 UNK        -0.1150 
     11 C11         0.6145  -18.2269  -52.1088 C.ar      23 UNK        -0.0193 
     12 C12         1.3272  -19.1955  -51.4012 C.ar      23 UNK        -0.1150 
     13 C13         1.6133  -19.0161  -50.0447 C.ar      23 UNK        -0.0193 
     14 C14         1.1864  -17.8509  -49.3983 C.ar      23 UNK        -0.1150 
     15 C15         2.4193  -20.0618  -49.2864 C.3       23 UNK        -0.0205 
     16 S16         1.6949  -21.7302  -49.3761 S.3       23 UNK        -0.2404 
     17 C17         0.0393  -21.5035  -48.6416 C.3       23 UNK        -0.0398 
     18 CA         -0.2796  -22.6508  -47.6546 C.3       11 UNK         0.1400 
     19 N           0.3294  -22.4557  -46.3377 N.am      11 UNK        -0.5000 
     20 C           0.4980  -23.4432  -45.4481 C.2       10 UNK         0.5000 
     21 O           0.1648  -24.6108  -45.6533 O.2       10 UNK        -0.5000 
     22 CA          1.1082  -23.0601  -44.0893 C.3       10 UNK         0.1400 
     23 CB          2.6186  -22.8099  -44.2169 C.3       10 UNK        -0.1800 
     24 N           0.4608  -21.8950  -43.4870 N.am      10 UNK        -0.5000 
     25 C          -0.8274  -21.8496  -43.1168 C.2       9 UNK         0.5000 
     26 O          -1.6094  -22.7944  -43.2330 O.2       9 UNK        -0.5000 
     27 CA         -1.3391  -20.5100  -42.5555 C.3       9 UNK         0.1400 
     28 CB         -0.9053  -20.3286  -41.0932 C.3       9 UNK        -0.1800 
     29 N          -0.9022  -19.3555  -43.3411 N.am      9 UNK        -0.5000 
     30 C          -1.2000  -19.1581  -44.6327 C.2       8 UNK         0.5000 
     31 O          -1.8866  -19.9224  -45.3024 O.2       8 UNK        -0.5000 
     32 CA         -0.5716  -17.9373  -45.3171 C.3       8 UNK         0.1400 
     33 CB         -1.2902  -16.6456  -44.9065 C.3       8 UNK        -0.1800 
     34 N           0.8590  -17.8312  -45.0442 N.am      8 UNK        -0.5000 
     35 C           1.7628  -18.7605  -45.3873 C.2       7 UNK         0.5000 
     36 O           1.4882  -19.8038  -45.9792 O.2       7 UNK        -0.5000 
     37 CA          3.2100  -18.4974  -44.9441 C.3       7 UNK         0.1400 
     38 CB          3.8786  -17.4685  -45.8686 C.3       7 UNK        -0.1800 
     39 N           3.2766  -18.0349  -43.5575 N.am      7 UNK        -0.5000 
     40 C           2.9130  -18.7705  -42.4963 C.2       6 UNK         0.5000 
     41 O           2.5286  -19.9379  -42.5657 O.2       6 UNK        -0.5000 
     42 CA          2.9306  -18.0564  -41.1351 C.3       6 UNK         0.1400 
     43 CB          4.3539  -18.0065  -40.5604 C.3       6 UNK        -0.1800 
     44 N           2.3875  -16.6997  -41.2108 N.am      6 UNK        -0.5000 
     45 C           1.1188  -16.3954  -41.5082 C.2       5 UNK         0.5000 
     46 O           0.2629  -17.2381  -41.7744 O.2       5 UNK        -0.5000 
     47 CA          0.7409  -14.9046  -41.5320 C.3       5 UNK         0.1400 
     48 CB          0.7629  -14.2993  -40.1155 C.3       5 UNK        -0.1800 
     49 N           1.5240  -14.1015  -42.4777 N.am      5 UNK        -0.5000 
     50 C           2.8296  -13.7917  -42.4551 C.2       4 UNK         0.5000 
     51 O           3.6278  -14.2029  -41.6120 O.2       4 UNK        -0.5000 
     52 CA          3.3173  -12.8418  -43.5613 C.3       4 UNK         0.1400 
     53 CB          3.5558  -13.6098  -44.8717 C.3       4 UNK        -0.1800 
     54 N           2.3443  -11.7727  -43.7880 N.am      4 UNK        -0.5000 
     55 C           2.3100  -10.6204  -43.1026 C.2       3 UNK         0.5000 
     56 O           3.1676  -10.2852  -42.2847 O.2       3 UNK        -0.5000 
     57 CA          1.1095   -9.6862  -43.3618 C.3       3 UNK         0.1400 
     58 CB          1.4217   -8.7144  -44.5100 C.3       3 UNK        -0.1800 
     59 N          -0.1211  -10.4152  -43.6734 N.am      3 UNK        -0.5000 
     60 C          -0.8040  -11.1709  -42.8013 C.2       2 UNK         0.5000 
     61 O          -0.5385  -11.2307  -41.6014 O.2       2 UNK        -0.5000 
     62 CA         -1.9613  -12.0264  -43.3605 C.3       2 UNK         0.1400 
     63 CB         -3.3151  -11.3752  -43.0407 C.3       2 UNK        -0.1800 
     64 N          -1.8915  -12.2868  -44.8030 N.am      2 UNK        -0.5000 
     65 C          -0.8970  -12.9134  -45.4445 C.2       1 UNK         0.5000 
     66 O           0.1053  -13.3471  -44.8736 O.2       1 UNK        -0.5000 
     67 C          -1.7893  -22.9496  -47.5589 C.2       11 UNK         0.5000 
     68 O          -2.2657  -23.8095  -48.3001 O.2       11 UNK        -0.5000 
     69 N          -2.5091  -22.3077  -46.6247 N.am      12 UNK        -0.5000 
     70 CA         -3.9260  -22.5656  -46.3505 C.3       12 UNK         0.1400 
     71 CB         -4.4753  -21.5674  -45.3218 C.3       12 UNK        -0.1800 
     72 C          -4.2019  -24.0101  -45.9051 C.2       12 UNK         0.5000 
     73 O          -5.1679  -24.6123  -46.3748 O.2       12 UNK        -0.5000 
     74 N          -3.3250  -24.5485  -45.0472 N.am      13 UNK        -0.5000 
     75 CA         -3.3507  -25.9438  -44.6105 C.3       13 UNK         0.1400 
     76 CB         -2.3875  -26.1175  -43.4264 C.3       13 UNK        -0.1800 
     77 C          -3.0102  -26.9394  -45.7378 C.2       13 UNK         0.5000 
     78 O          -3.4951  -28.0711  -45.7048 O.2       13 UNK        -0.5000 
     79 N          -2.1849  -26.5105  -46.7025 N.am      14 UNK        -0.5000 
     80 CA         -1.7586  -27.3090  -47.8470 C.3       14 UNK         0.1400 
     81 CB         -0.4260  -26.7706  -48.3963 C.3       14 UNK        -0.1800 
     82 C          -2.8409  -27.3861  -48.9388 C.2       14 UNK         0.5000 
     83 O          -3.3839  -28.4684  -49.1667 O.2       14 UNK        -0.5000 
     84 N          -3.1183  -26.2605  -49.6134 N.am      15 UNK        -0.5000 
     85 CA         -3.9600  -26.2062  -50.8146 C.3       15 UNK         0.1400 
     86 CB         -3.2539  -26.9078  -51.9975 C.3       15 UNK        -0.1800 
     87 C          -4.3822  -24.7635  -51.1571 C.2       15 UNK         0.5000 
     88 O          -4.3706  -24.3871  -52.3305 O.2       15 UNK        -0.5000 
     89 N          -4.7627  -23.9989  -50.1234 N.am      16 UNK        -0.5000 
     90 CA         -5.1310  -22.5755  -50.1296 C.3       16 UNK         0.1400 
     91 CB         -6.2308  -22.2559  -51.1610 C.3       16 UNK        -0.1800 
     92 C          -3.9199  -21.6343  -50.3011 C.2       16 UNK         0.5000 
     93 O          -2.9146  -21.9950  -50.9146 O.2       16 UNK        -0.5000 
     94 N          -4.0517  -20.4250  -49.7467 N.am      17 UNK        -0.5000 
     95 CA         -3.0979  -19.3297  -49.8893 C.3       17 UNK         0.1400 
     96 CB         -2.6762  -18.8367  -48.4971 C.3       17 UNK        -0.1800 
     97 C          -3.7891  -18.2075  -50.6710 C.2       17 UNK         0.5000 
     98 O          -4.9413  -17.8839  -50.3735 O.2       17 UNK        -0.5000 
     99 N          -3.0737  -17.6497  -51.6553 N.am      18 UNK        -0.5000 
    100 CA        -3.5154  -16.6149  -52.5989 C.3       18 UNK         0.1400 
    101 CB        -3.7674  -15.2815  -51.8636 C.3       18 UNK        -0.1800 
    102 C         -4.7038  -17.0522  -53.4886 C.2       18 UNK         0.5000 
    103 O         -5.4702  -16.2052  -53.9507 O.2       18 UNK        -0.5000 
    104 N         -4.8308  -18.3640  -53.7232 N.am      19 UNK        -0.5000 
    105 CA        -5.8938  -19.0140  -54.4830 C.3       19 UNK         0.1400 
    106 CB        -7.1998  -19.0108  -53.6630 C.3       19 UNK        -0.1800 
    107 C         -5.4609  -20.4512  -54.8147 C.2       19 UNK         0.5000 
    108 O         -4.4509  -20.9183  -54.2826 O.2       19 UNK        -0.5000 
    109 N         -6.2455  -21.1196  -55.6734 N.am      20 UNK        -0.5000 
    110 CA        -6.1464  -22.5261  -56.0859 C.3       20 UNK         0.1400 
    111 CB        -6.6779  -23.4514  -54.9727 C.3       20 UNK        -0.1800 
    112 C         -4.7412  -22.9144  -56.5874 C.2       20 UNK         0.5000 
    113 O         -4.4183  -22.6255  -57.7413 O.2       20 UNK        -0.5000 
    114 N         -3.9228  -23.5255  -55.7173 N.am      21 UNK        -0.5000 
    115 CA        -2.5389  -23.9289  -55.9854 C.3       21 UNK         0.1400 
    116 CB        -1.9895  -24.6779  -54.7636 C.3       21 UNK        -0.1800 
    117 C         -1.6013  -22.7678  -56.3737 C.2       21 UNK         0.5000 
    118 O         -0.5966  -23.0070  -57.0455 O.2       21 UNK        -0.5000 
    119 N         -1.9556  -21.5376  -55.9811 N.am      22 UNK        -0.5000 
    120 CA        -1.2977  -20.2992  -56.4254 C.3       22 UNK         0.1400 
    121 C         -1.5565  -19.9310  -57.9184 C.2       22 UNK         0.5000 
    122 N         -2.5009  -20.5527  -58.6164 N.am      22 UNK        -0.7600 
    123 O         -0.8794  -19.0603  -58.4579 O.2       22 UNK        -0.5000 
    124 C124       -1.6501  -19.0997  -55.5130 C.3       23 UNK        -0.0398 
    125 S125       -1.2478  -19.3923  -53.7583 S.3       23 UNK        -0.2404 
    126 C126        0.2841  -18.4326  -53.5767 C.3       23 UNK        -0.0205 
    127 H127       -4.9643  -15.2453  -46.7771 H         1 UNK         0.0600 
    128 H128       -3.7792  -15.8314  -47.9484 H         1 UNK         0.0600 
    129 H129       -5.0055  -14.6656  -48.4462 H         1 UNK         0.0600 
    130 H130       -1.7822  -14.9387  -47.5448 H         1 UNK         0.3000 
    131 H131       -1.3849  -12.0785  -47.3253 H         1 UNK         0.0600 
    132 H132        1.1011  -12.8217  -47.2745 H         1 UNK         0.0800 
    133 H133        0.1937  -12.9622  -48.7321 H         1 UNK         0.0800 
    134 H134        0.2971  -14.7371  -50.1682 H         1 UNK         0.0800 
    135 H135       -1.0520  -15.5517  -49.4140 H         1 UNK         0.0800 
    136 H136       -0.3305  -16.3035  -52.0076 H         1 UNK         0.1150 
    137 H137        1.6536  -20.0947  -51.9049 H         1 UNK         0.1150 
    138 H138        1.4138  -17.7199  -48.3507 H         1 UNK         0.1150 
    139 H139        3.4227  -20.0985  -49.7120 H         1 UNK         0.0800 
    140 H140        2.5486  -19.7798  -48.2437 H         1 UNK         0.0800 
    141 H141       -0.6701  -21.4807  -49.4704 H         1 UNK         0.0800 
    142 H142       -0.0309  -20.5333  -48.1483 H         1 UNK         0.0800 
    143 H143        0.1575  -23.5614  -48.0699 H         1 UNK         0.0600 
    144 H144        0.6494  -21.5167  -46.1117 H         1 UNK         0.3000 
    145 H145        0.9627  -23.9050  -43.4130 H         1 UNK         0.0600 
    146 H146        3.0723  -22.6376  -43.2408 H         1 UNK         0.0600 
    147 H147        3.1212  -23.6694  -44.6621 H         1 UNK         0.0600 
    148 H148        2.8334  -21.9429  -44.8421 H         1 UNK         0.0600 
    149 H149        1.0456  -21.0792  -43.3352 H         1 UNK         0.3000 
    150 H150       -2.4301  -20.5345  -42.5850 H         1 UNK         0.0600 
    151 H151       -1.2297  -21.1711  -40.4812 H         1 UNK         0.0600 
    152 H152       -1.3405  -19.4264  -40.6630 H         1 UNK         0.0600 
    153 H153        0.1786  -20.2518  -41.0013 H         1 UNK         0.0600 
    154 H154       -0.3470  -18.6570  -42.8532 H         1 UNK         0.3000 
    155 H155       -0.6872  -18.0601  -46.3957 H         1 UNK         0.0600 
    156 H156       -0.8534  -15.7882  -45.4104 H         1 UNK         0.0600 
    157 H157       -1.2339  -16.4650  -43.8335 H         1 UNK         0.0600 
    158 H158       -2.3455  -16.6823  -45.1794 H         1 UNK         0.0600 
    159 H159        1.1658  -17.0198  -44.5310 H         1 UNK         0.3000 
    160 H160        3.7619  -19.4370  -45.0168 H         1 UNK         0.0600 
    161 H161        4.9174  -17.2979  -45.5858 H         1 UNK         0.0600 
    162 H162        3.3617  -16.5085  -45.8485 H         1 UNK         0.0600 
    163 H163        3.8764  -17.8164  -46.9025 H         1 UNK         0.0600 
    164 H164        3.5768  -17.0843  -43.4027 H         1 UNK         0.3000 
    165 H165        2.3046  -18.6318  -40.4499 H         1 UNK         0.0600 
    166 H166        4.3583  -17.5768  -39.5585 H         1 UNK         0.0600 
    167 H167        4.7805  -19.0077  -40.4863 H         1 UNK         0.0600 
    168 H168        5.0207  -17.4092  -41.1835 H         1 UNK         0.0600 
    169 H169        3.0318  -15.9265  -41.0684 H         1 UNK         0.3000 
    170 H170       -0.2886  -14.8501  -41.8892 H         1 UNK         0.0600 
    171 H171        0.1058  -14.8555  -39.4459 H         1 UNK         0.0600 
    172 H172        1.7605  -14.3125  -39.6760 H         1 UNK         0.0600 
    173 H173        0.4175  -13.2662  -40.1230 H         1 UNK         0.0600 
    174 H174        0.9922  -13.7584  -43.2739 H         1 UNK         0.3000 
    175 H175        4.2698  -12.4109  -43.2454 H         1 UNK         0.0600 
    176 H176        2.6486  -14.0932  -45.2355 H         1 UNK         0.0600 
    177 H177        3.9156  -12.9449  -45.6568 H         1 UNK         0.0600 
    178 H178        4.3089  -14.3865  -44.7343 H         1 UNK         0.0600 
    179 H179        1.5691  -12.0002  -44.3983 H         1 UNK         0.3000 
    180 H180        0.9405   -9.1016  -42.4550 H         1 UNK         0.0600 
    181 H181        1.5835   -9.2407  -45.4515 H         1 UNK         0.0600 
    182 H182        2.3224   -8.1368  -44.2978 H         1 UNK         0.0600 
    183 H183        0.6085   -8.0033  -44.6572 H         1 UNK         0.0600 
    184 H184       -0.4289  -10.4000  -44.6340 H         1 UNK         0.3000 
    185 H185       -1.9185  -12.9921  -42.8531 H         1 UNK         0.0600 
    186 H186       -3.4220  -11.1973  -41.9698 H         1 UNK         0.0600 
    187 H187       -3.4280  -10.4156  -43.5467 H         1 UNK         0.0600 
    188 H188       -4.1429  -12.0156  -43.3463 H         1 UNK         0.0600 
    189 H189       -2.7036  -12.0224  -45.3504 H         1 UNK         0.3000 
    190 H190       -2.0748  -21.5754  -46.0663 H         1 UNK         0.3000 
    191 H191       -4.4671  -22.4035  -47.2786 H         1 UNK         0.0600 
    192 H192       -3.9205  -21.6091  -44.3843 H         1 UNK         0.0600 
    193 H193       -5.5216  -21.7744  -45.0937 H         1 UNK         0.0600 
    194 H194       -4.4258  -20.5463  -45.7000 H         1 UNK         0.0600 
    195 H195       -2.5811  -23.9672  -44.6746 H         1 UNK         0.3000 
    196 H196       -4.3608  -26.1712  -44.2633 H         1 UNK         0.0600 
    197 H197       -2.3987  -27.1445  -43.0594 H         1 UNK         0.0600 
    198 H198       -2.6660  -25.4710  -42.5940 H         1 UNK         0.0600 
    199 H199       -1.3607  -25.8782  -43.7054 H         1 UNK         0.0600 
    200 H200       -1.8274  -25.5661  -46.6483 H         1 UNK         0.3000 
    201 H201       -1.5706  -28.3276  -47.5003 H         1 UNK         0.0600 
    202 H202        0.3479  -26.7818  -47.6285 H         1 UNK         0.0600 
    203 H203       -0.5120  -25.7496  -48.7647 H         1 UNK         0.0600 
    204 H204       -0.0715  -27.3858  -49.2241 H         1 UNK         0.0600 
    205 H205       -2.6836  -25.3860  -49.3241 H         1 UNK         0.3000 
    206 H206       -4.8859  -26.7456  -50.6058 H         1 UNK         0.0600 
    207 H207       -3.8716  -26.8851  -52.8959 H         1 UNK         0.0600 
    208 H208       -2.3047  -26.4256  -52.2327 H         1 UNK         0.0600 
    209 H209       -3.0509  -27.9572  -51.7866 H         1 UNK         0.0600 
    210 H210       -4.6938  -24.4126  -49.2037 H         1 UNK         0.3000 
    211 H211       -5.5683  -22.3899  -49.1499 H         1 UNK         0.0600 
    212 H212       -5.8250  -22.1899  -52.1691 H         1 UNK         0.0600 
    213 H213       -6.6949  -21.2937  -50.9438 H         1 UNK         0.0600 
    214 H214       -7.0199  -23.0077  -51.1575 H         1 UNK         0.0600 
    215 H215       -4.9327  -20.1664  -49.3242 H         1 UNK         0.3000 
    216 H216       -2.2044  -19.6501  -50.4302 H         1 UNK         0.0600 
    217 H217       -1.9421  -18.0341  -48.5735 H         1 UNK         0.0600 
    218 H218       -2.2231  -19.6414  -47.9215 H         1 UNK         0.0600 
    219 H219       -3.5234  -18.4585  -47.9236 H         1 UNK         0.0600 
    220 H220       -2.1513  -18.0235  -51.8383 H         1 UNK         0.3000 
    221 H221       -2.6797  -16.4567  -53.2819 H         1 UNK         0.0600 
    222 H222       -4.6367  -15.3379  -51.2080 H         1 UNK         0.0600 
    223 H223       -2.9080  -14.9969  -51.2567 H         1 UNK         0.0600 
    224 H224       -3.9451  -14.4712  -52.5714 H         1 UNK         0.0600 
    225 H225       -4.1403  -19.0091  -53.3573 H         1 UNK         0.3000 
    226 H226       -6.0417  -18.4756  -55.4212 H         1 UNK         0.0600 
    227 H227       -8.0082  -19.5117  -54.1964 H         1 UNK         0.0600 
    228 H228       -7.0704  -19.5204  -52.7076 H         1 UNK         0.0600 
    229 H229       -7.5379  -17.9960  -53.4539 H         1 UNK         0.0600 
    230 H230       -7.0237  -20.6194  -56.0796 H         1 UNK         0.3000 
    231 H231       -6.8131  -22.6399  -56.9421 H         1 UNK         0.0600 
    232 H232       -7.7152  -23.2184  -54.7323 H         1 UNK         0.0600 
    233 H233       -6.1004  -23.3623  -54.0555 H         1 UNK         0.0600 
    234 H234       -6.6443  -24.4968  -55.2819 H         1 UNK         0.0600 
    235 H235       -4.2476  -23.6612  -54.7678 H         1 UNK         0.3000 
    236 H236       -2.5585  -24.6213  -56.8291 H         1 UNK         0.0600 
    237 H237       -2.5796  -25.5702  -54.5583 H         1 UNK         0.0600 
    238 H238       -0.9604  -25.0001  -54.9273 H         1 UNK         0.0600 
    239 H239       -2.0018  -24.0516  -53.8702 H         1 UNK         0.0600 
    240 H240       -2.7796  -21.4285  -55.3986 H         1 UNK         0.3000 
    241 H241       -0.2212  -20.4606  -56.3429 H         1 UNK         0.0600 
    242 H242       -3.0761  -21.2803  -58.2033 H         1 UNK         0.3800 
    243 H243       -2.6449  -20.2994  -59.5810 H         1 UNK         0.3800 
    244 H244       -1.1403  -18.1961  -55.8510 H         1 UNK         0.0800 
    245 H245       -2.7163  -18.8814  -55.5822 H         1 UNK         0.0800 
    246 H246        1.1007  -18.9522  -54.0803 H         1 UNK         0.0800 
    247 H247        0.1805  -17.4646  -54.0694 H         1 UNK         0.0800 
@<TRIPOS>BOND
     1    1    2 1    
     2    1  127 1    
     3    1  128 1    
     4    1  129 1    
     5    2    3 2    
     6    2    4 am   BACKBONE|DICT|INTERRES
     7    4    5 1    
     8    4  130 1    
     9    5    6 1    
    10    5   65 1    
    11    5  131 1    
    12    6    7 1    
    13    6  132 1    
    14    6  133 1    
    15    7    8 1    
    16    8    9 1    
    17    8  134 1    
    18    8  135 1    
    19    9   10 ar   
    20    9   14 ar   
    21   10   11 ar   
    22   10  136 1    
    23   11   12 ar   
    24   11  126 1    
    25   12   13 ar   
    26   12  137 1    
    27   13   14 ar   
    28   13   15 1    
    29   14  138 1    
    30   15   16 1    
    31   15  139 1    
    32   15  140 1    
    33   16   17 1    
    34   17   18 1    
    35   17  141 1    
    36   17  142 1    
    37   18   19 1    
    38   18   67 1    
    39   18  143 1    
    40   19   20 am   BACKBONE|DICT|INTERRES
    41   19  144 1    
    42   20   21 2    
    43   20   22 1    
    44   22   23 1    
    45   22   24 1    
    46   22  145 1    
    47   23  146 1    
    48   23  147 1    
    49   23  148 1    
    50   24   25 am   BACKBONE|DICT|INTERRES
    51   24  149 1    
    52   25   26 2    
    53   25   27 1    
    54   27   28 1    
    55   27   29 1    
    56   27  150 1    
    57   28  151 1    
    58   28  152 1    
    59   28  153 1    
    60   29   30 am   BACKBONE|DICT|INTERRES
    61   29  154 1    
    62   30   31 2    
    63   30   32 1    
    64   32   33 1    
    65   32   34 1    
    66   32  155 1    
    67   33  156 1    
    68   33  157 1    
    69   33  158 1    
    70   34   35 am   BACKBONE|DICT|INTERRES
    71   34  159 1    
    72   35   36 2    
    73   35   37 1    
    74   37   38 1    
    75   37   39 1    
    76   37  160 1    
    77   38  161 1    
    78   38  162 1    
    79   38  163 1    
    80   39   40 am   BACKBONE|DICT|INTERRES
    81   39  164 1    
    82   40   41 2    
    83   40   42 1    
    84   42   43 1    
    85   42   44 1    
    86   42  165 1    
    87   43  166 1    
    88   43  167 1    
    89   43  168 1    
    90   44   45 am   BACKBONE|DICT|INTERRES
    91   44  169 1    
    92   45   46 2    
    93   45   47 1    
    94   47   48 1    
    95   47   49 1    
    96   47  170 1    
    97   48  171 1    
    98   48  172 1    
    99   48  173 1    
   100   49   50 am   BACKBONE|DICT|INTERRES
   101   49  174 1    
   102   50   51 2    
   103   50   52 1    
   104   52   53 1    
   105   52   54 1    
   106   52  175 1    
   107   53  176 1    
   108   53  177 1    
   109   53  178 1    
   110   54   55 am   BACKBONE|DICT|INTERRES
   111   54  179 1    
   112   55   56 2    
   113   55   57 1    
   114   57   58 1    
   115   57   59 1    
   116   57  180 1    
   117   58  181 1    
   118   58  182 1    
   119   58  183 1    
   120   59   60 am   BACKBONE|DICT|INTERRES
   121   59  184 1    
   122   60   61 2    
   123   60   62 1    
   124   62   63 1    
   125   62   64 1    
   126   62  185 1    
   127   63  186 1    
   128   63  187 1    
   129   63  188 1    
   130   64   65 am   BACKBONE|DICT|INTERRES
   131   64  189 1    
   132   65   66 2    
   133   67   68 2    
   134   67   69 am   BACKBONE|DICT|INTERRES
   135   69   70 1    
   136   69  190 1    
   137   70   71 1    
   138   70   72 1    
   139   70  191 1    
   140   71  192 1    
   141   71  193 1    
   142   71  194 1    
   143   72   73 2    
   144   72   74 am   BACKBONE|DICT|INTERRES
   145   74   75 1    
   146   74  195 1    
   147   75   76 1    
   148   75   77 1    
   149   75  196 1    
   150   76  197 1    
   151   76  198 1    
   152   76  199 1    
   153   77   78 2    
   154   77   79 am   BACKBONE|DICT|INTERRES
   155   79   80 1    
   156   79  200 1    
   157   80   81 1    
   158   80   82 1    
   159   80  201 1    
   160   81  202 1    
   161   81  203 1    
   162   81  204 1    
   163   82   83 2    
   164   82   84 am   BACKBONE|DICT|INTERRES
   165   84   85 1    
   166   84  205 1    
   167   85   86 1    
   168   85   87 1    
   169   85  206 1    
   170   86  207 1    
   171   86  208 1    
   172   86  209 1    
   173   87   88 2    
   174   87   89 am   BACKBONE|DICT|INTERRES
   175   89   90 1    
   176   89  210 1    
   177   90   91 1    
   178   90   92 1    
   179   90  211 1    
   180   91  212 1    
   181   91  213 1    
   182   91  214 1    
   183   92   93 2    
   184   92   94 am   BACKBONE|DICT|INTERRES
   185   94   95 1    
   186   94  215 1    
   187   95   96 1    
   188   95   97 1    
   189   95  216 1    
   190   96  217 1    
   191   96  218 1    
   192   96  219 1    
   193   97   98 2    
   194   97   99 am   BACKBONE|DICT|INTERRES
   195   99  100 1    
   196   99  220 1    
   197  100  101 1    
   198  100  102 1    
   199  100  221 1    
   200  101  222 1    
   201  101  223 1    
   202  101  224 1    
   203  102  103 2    
   204  102  104 am   BACKBONE|DICT|INTERRES
   205  104  105 1    
   206  104  225 1    
   207  105  106 1    
   208  105  107 1    
   209  105  226 1    
   210  106  227 1    
   211  106  228 1    
   212  106  229 1    
   213  107  108 2    
   214  107  109 am   BACKBONE|DICT|INTERRES
   215  109  110 1    
   216  109  230 1    
   217  110  111 1    
   218  110  112 1    
   219  110  231 1    
   220  111  232 1    
   221  111  233 1    
   222  111  234 1    
   223  112  113 2    
   224  112  114 am   BACKBONE|DICT|INTERRES
   225  114  115 1    
   226  114  235 1    
   227  115  116 1    
   228  115  117 1    
   229  115  236 1    
   230  116  237 1    
   231  116  238 1    
   232  116  239 1    
   233  117  118 2    
   234  117  119 am   BACKBONE|DICT|INTERRES
   235  119  120 1    
   236  119  240 1    
   237  120  121 1    
   238  120  124 1    
   239  120  241 1    
   240  121  122 am   BACKBONE|DICT|INTERRES
   241  121  123 2    
   242  122  242 1    
   243  122  243 1    
   244  124  125 1    
   245  124  244 1    
   246  124  245 1    
   247  125  126 1    
   248  126  246 1    
   249  126  247 1    
@<TRIPOS>SUBSTRUCTURE
     1 UNK         1 GROUP             0       ****    0 ROOT    
