@<TRIPOS>MOLECULE
3R540
247   249    1
SMALL
USER_CHARGES


@<TRIPOS>ATOM
      1 CA         -0.9539  -10.3730  -45.1924 C.3       0 UNK        -0.1800 
      2 C           0.2925  -10.3582  -46.0649 C.2       0 UNK         0.5000 
      3 O           1.3759  -10.0298  -45.5808 O.2       0 UNK        -0.5000 
      4 N           0.1517  -10.7371  -47.3428 N.am      1 UNK        -0.5000 
      5 CA          1.2239  -10.7831  -48.3505 C.3       1 UNK         0.1400 
      6 C6          0.6613  -11.0233  -49.7746 C.3       23 UNK        -0.0398 
      7 S7         -0.2333  -12.6080  -49.9604 S.3       23 UNK        -0.2404 
      8 C8          0.9361  -13.5394  -50.9981 C.3       23 UNK        -0.0205 
      9 C9          0.5775  -15.0155  -51.0435 C.ar      23 UNK        -0.0193 
     10 C10        -0.4768  -15.4611  -51.8455 C.ar      23 UNK        -0.1150 
     11 C11        -0.8286  -16.8142  -51.8871 C.ar      23 UNK        -0.0193 
     12 C12        -0.1023  -17.7242  -51.1058 C.ar      23 UNK        -0.1150 
     13 C13         0.9689  -17.2947  -50.3166 C.ar      23 UNK        -0.0193 
     14 C14         1.3021  -15.9387  -50.2864 C.ar      23 UNK        -0.1150 
     15 C15         1.7762  -18.2991  -49.5070 C.3       23 UNK        -0.0205 
     16 S16         1.5215  -18.1160  -47.7149 S.3       23 UNK        -0.2404 
     17 C17        -0.2332  -18.5754  -47.5357 C.3       23 UNK        -0.0398 
     18 CA         -0.4328  -20.0835  -47.2621 C.3       11 UNK         0.1400 
     19 N           0.1638  -20.5228  -45.9932 N.am      11 UNK        -0.5000 
     20 C           0.2194  -21.7945  -45.5691 C.2       10 UNK         0.5000 
     21 O          -0.2003  -22.7474  -46.2246 O.2       10 UNK        -0.5000 
     22 CA          0.7844  -22.0421  -44.1589 C.3       10 UNK         0.1400 
     23 CB          2.3209  -22.0494  -44.1610 C.3       10 UNK        -0.1800 
     24 N           0.2850  -21.0551  -43.2016 N.am      10 UNK        -0.5000 
     25 C          -0.9576  -21.0650  -42.6978 C.2       9 UNK         0.5000 
     26 O          -1.7715  -21.9627  -42.9158 O.2       9 UNK        -0.5000 
     27 CA         -1.3791  -19.8647  -41.8264 C.3       9 UNK         0.1400 
     28 CB         -1.0620  -20.1317  -40.3477 C.3       9 UNK        -0.1800 
     29 N          -0.7606  -18.6027  -42.2354 N.am      9 UNK        -0.5000 
     30 C          -0.9662  -17.9991  -43.4143 C.2       8 UNK         0.5000 
     31 O          -1.7479  -18.4172  -44.2676 O.2       8 UNK        -0.5000 
     32 CA         -0.1072  -16.7578  -43.7197 C.3       8 UNK         0.1400 
     33 CB         -0.7354  -15.4944  -43.1142 C.3       8 UNK        -0.1800 
     34 N           1.2773  -16.8928  -43.2606 N.am      8 UNK        -0.5000 
     35 C           2.1262  -17.8458  -43.6729 C.2       7 UNK         0.5000 
     36 O           1.8279  -18.7108  -44.4924 O.2       7 UNK        -0.5000 
     37 CA          3.5120  -17.8872  -43.0099 C.3       7 UNK         0.1400 
     38 CB          4.4496  -16.8166  -43.5859 C.3       7 UNK        -0.1800 
     39 N           3.4075  -17.7315  -41.5617 N.am      7 UNK        -0.5000 
     40 C           2.9247  -18.6731  -40.7388 C.2       6 UNK         0.5000 
     41 O           2.5860  -19.7978  -41.1077 O.2       6 UNK        -0.5000 
     42 CA          2.7610  -18.2742  -39.2609 C.3       6 UNK         0.1400 
     43 CB          4.0626  -18.5252  -38.4851 C.3       6 UNK        -0.1800 
     44 N           2.3631  -16.8741  -39.0990 N.am      6 UNK        -0.5000 
     45 C           1.1751  -16.3779  -39.4726 C.2       5 UNK         0.5000 
     46 O           0.2757  -17.0565  -39.9672 O.2       5 UNK        -0.5000 
     47 CA          0.9826  -14.8594  -39.3099 C.3       5 UNK         0.1400 
     48 CB          0.5405  -14.5194  -37.8789 C.3       5 UNK        -0.1800 
     49 N           2.1865  -14.0930  -39.6456 N.am      5 UNK        -0.5000 
     50 C           2.7163  -14.0218  -40.8730 C.2       4 UNK         0.5000 
     51 O           2.2591  -14.6138  -41.8535 O.2       4 UNK        -0.5000 
     52 CA          3.9884  -13.1836  -41.0283 C.3       4 UNK         0.1400 
     53 CB          5.2413  -14.0442  -40.7832 C.3       4 UNK        -0.1800 
     54 N           4.0068  -12.6244  -42.3756 N.am      4 UNK        -0.5000 
     55 C           4.7243  -11.5677  -42.7704 C.2       3 UNK         0.5000 
     56 O           5.5049  -10.9712  -42.0261 O.2       3 UNK        -0.5000 
     57 CA          4.5142  -11.0487  -44.2096 C.3       3 UNK         0.1400 
     58 CB          5.8442  -10.6737  -44.8965 C.3       3 UNK        -0.1800 
     59 N           3.6969  -11.9052  -45.0790 N.am      3 UNK        -0.5000 
     60 C           4.0067  -13.1090  -45.5890 C.2       2 UNK         0.5000 
     61 O           5.0289  -13.7316  -45.3036 O.2       2 UNK        -0.5000 
     62 CA          3.0097  -13.7262  -46.5957 C.3       2 UNK         0.1400 
     63 CB          2.2052  -14.8561  -45.9406 C.3       2 UNK        -0.1800 
     64 N           2.0638  -12.7568  -47.1459 N.am      2 UNK        -0.5000 
     65 C           2.3605  -11.7766  -48.0104 C.2       1 UNK         0.5000 
     66 O           3.4732  -11.6252  -48.5158 O.2       1 UNK        -0.5000 
     67 C          -1.9290  -20.4414  -47.3597 C.2       11 UNK         0.5000 
     68 O          -2.3801  -20.8651  -48.4235 O.2       11 UNK        -0.5000 
     69 N          -2.6595  -20.3238  -46.2419 N.am      12 UNK        -0.5000 
     70 CA         -4.0774  -20.6690  -46.1053 C.3       12 UNK         0.1400 
     71 CB         -4.5526  -20.2871  -44.6952 C.3       12 UNK        -0.1800 
     72 C          -4.4182  -22.1436  -46.4099 C.2       12 UNK         0.5000 
     73 O          -5.5766  -22.4394  -46.7018 O.2       12 UNK        -0.5000 
     74 N          -3.4200  -23.0376  -46.3591 N.am      13 UNK        -0.5000 
     75 CA         -3.5538  -24.4427  -46.7444 C.3       13 UNK         0.1400 
     76 CB         -2.4619  -25.2644  -46.0416 C.3       13 UNK        -0.1800 
     77 C          -3.5013  -24.6606  -48.2714 C.2       13 UNK         0.5000 
     78 O          -3.8472  -25.7537  -48.7202 O.2       13 UNK        -0.5000 
     79 N          -3.0717  -23.6470  -49.0381 N.am      14 UNK        -0.5000 
     80 CA         -2.9916  -23.6794  -50.4993 C.3       14 UNK         0.1400 
     81 CB         -1.5494  -23.3814  -50.9358 C.3       14 UNK        -0.1800 
     82 C          -3.9694  -22.6902  -51.1528 C.2       14 UNK         0.5000 
     83 O          -4.5688  -23.0246  -52.1780 O.2       14 UNK        -0.5000 
     84 N          -4.1205  -21.5055  -50.5437 N.am      15 UNK        -0.5000 
     85 CA         -5.0156  -20.4273  -50.9635 C.3       15 UNK         0.1400 
     86 CB         -4.7595  -19.1984  -50.0770 C.3       15 UNK        -0.1800 
     87 C          -6.5037  -20.8214  -50.9359 C.2       15 UNK         0.5000 
     88 O          -6.8797  -21.7969  -50.2844 O.2       15 UNK        -0.5000 
     89 N          -7.3211  -20.0604  -51.6793 N.am      16 UNK        -0.5000 
     90 CA         -8.7477  -20.3094  -51.9424 C.3       16 UNK         0.1400 
     91 CB         -9.5848  -20.1678  -50.6535 C.3       16 UNK        -0.1800 
     92 C          -8.9889  -21.6487  -52.6767 C.2       16 UNK         0.5000 
     93 O         -10.0288  -22.2830  -52.4930 O.2       16 UNK        -0.5000 
     94 N          -7.9966  -22.0481  -53.4872 N.am      17 UNK        -0.5000 
     95 CA         -7.8974  -23.2918  -54.2530 C.3       17 UNK         0.1400 
     96 CB         -8.9915  -23.3654  -55.3378 C.3       17 UNK        -0.1800 
     97 C          -7.8275  -24.5677  -53.3861 C.2       17 UNK         0.5000 
     98 O          -8.1191  -25.6541  -53.8892 O.2       17 UNK        -0.5000 
     99 N          -7.3966  -24.4426  -52.1212 N.am      18 UNK        -0.5000 
    100 CA        -7.2468  -25.5546  -51.1761 C.3       18 UNK         0.1400 
    101 CB        -6.9565  -24.9993  -49.7757 C.3       18 UNK        -0.1800 
    102 C         -6.1869  -26.5956  -51.5947 C.2       18 UNK         0.5000 
    103 O         -6.3305  -27.7690  -51.2489 O.2       18 UNK        -0.5000 
    104 N         -5.1851  -26.1659  -52.3733 N.am      19 UNK        -0.5000 
    105 CA        -4.2266  -27.0320  -53.0651 C.3       19 UNK         0.1400 
    106 CB        -2.8281  -26.8706  -52.4428 C.3       19 UNK        -0.1800 
    107 C         -4.2413  -26.7212  -54.5733 C.2       19 UNK         0.5000 
    108 O         -3.1889  -26.7123  -55.2118 O.2       19 UNK        -0.5000 
    109 N         -5.4355  -26.4236  -55.1084 N.am      20 UNK        -0.5000 
    110 CA        -5.7581  -25.9830  -56.4733 C.3       20 UNK         0.1400 
    111 CB        -5.2725  -26.9847  -57.5384 C.3       20 UNK        -0.1800 
    112 C         -5.3004  -24.5465  -56.7975 C.2       20 UNK         0.5000 
    113 O         -6.0482  -23.8160  -57.4476 O.2       20 UNK        -0.5000 
    114 N         -4.1212  -24.1457  -56.3142 N.am      21 UNK        -0.5000 
    115 CA        -3.5473  -22.8104  -56.4346 C.3       21 UNK         0.1400 
    116 CB        -2.9969  -22.5993  -57.8587 C.3       21 UNK        -0.1800 
    117 C         -2.4362  -22.6402  -55.3873 C.2       21 UNK         0.5000 
    118 O         -1.9538  -23.6306  -54.8320 O.2       21 UNK        -0.5000 
    119 N         -2.0366  -21.3855  -55.1560 N.am      22 UNK        -0.5000 
    120 CA        -0.8777  -21.0147  -54.3299 C.3       22 UNK         0.1400 
    121 C          0.4676  -21.4400  -54.9819 C.2       22 UNK         0.5000 
    122 N          1.4289  -21.9022  -54.1941 N.am      22 UNK        -0.7600 
    123 O          0.6620  -21.3130  -56.1890 O.2       22 UNK        -0.5000 
    124 C124       -0.8681  -19.4979  -54.0193 C.3       23 UNK        -0.0398 
    125 S125       -2.2896  -19.0148  -52.9858 S.3       23 UNK        -0.2404 
    126 C126       -2.0062  -17.2228  -52.7771 C.3       23 UNK        -0.0205 
    127 H127       -1.1449   -9.3760  -44.7956 H         1 UNK         0.0600 
    128 H128       -0.8157  -11.0546  -44.3531 H         1 UNK         0.0600 
    129 H129       -1.8350  -10.6925  -45.7493 H         1 UNK         0.0600 
    130 H130       -0.7604  -11.0170  -47.6764 H         1 UNK         0.3000 
    131 H131        1.6854   -9.7933  -48.3525 H         1 UNK         0.0600 
    132 H132       -0.0324  -10.2205  -50.0279 H         1 UNK         0.0800 
    133 H133        1.4591  -10.9556  -50.5164 H         1 UNK         0.0800 
    134 H134        1.9495  -13.4127  -50.6136 H         1 UNK         0.0800 
    135 H135        0.9342  -13.1267  -52.0081 H         1 UNK         0.0800 
    136 H136       -1.0345  -14.7444  -52.4324 H         1 UNK         0.1150 
    137 H137       -0.3590  -18.7729  -51.1040 H         1 UNK         0.1150 
    138 H138        2.1224  -15.6043  -49.6664 H         1 UNK         0.1150 
    139 H139        1.5366  -19.3219  -49.8015 H         1 UNK         0.0800 
    140 H140        2.8359  -18.1605  -49.7255 H         1 UNK         0.0800 
    141 H141       -0.7748  -18.2677  -48.4309 H         1 UNK         0.0800 
    142 H142       -0.6540  -17.9841  -46.7224 H         1 UNK         0.0800 
    143 H143        0.0705  -20.6372  -48.0574 H         1 UNK         0.0600 
    144 H144        0.5966  -19.8009  -45.4217 H         1 UNK         0.3000 
    145 H145        0.4523  -23.0314  -43.8365 H         1 UNK         0.0600 
    146 H146        2.7153  -22.2207  -43.1592 H         1 UNK         0.0600 
    147 H147        2.7017  -22.8452  -44.8021 H         1 UNK         0.0600 
    148 H148        2.7374  -21.1120  -44.5274 H         1 UNK         0.0600 
    149 H149        0.8950  -20.2765  -42.9892 H         1 UNK         0.3000 
    150 H150       -2.4604  -19.7510  -41.9268 H         1 UNK         0.0600 
    151 H151       -1.5302  -21.0563  -40.0077 H         1 UNK         0.0600 
    152 H152       -1.4336  -19.3268  -39.7133 H         1 UNK         0.0600 
    153 H153        0.0109  -20.2239  -40.1769 H         1 UNK         0.0600 
    154 H154       -0.1500  -18.1539  -41.5594 H         1 UNK         0.3000 
    155 H155       -0.0790  -16.6339  -44.8036 H         1 UNK         0.0600 
    156 H156       -0.7870  -15.5527  -42.0273 H         1 UNK         0.0600 
    157 H157       -1.7512  -15.3493  -43.4837 H         1 UNK         0.0600 
    158 H158       -0.1644  -14.6032  -43.3743 H         1 UNK         0.0600 
    159 H159        1.6094  -16.1856  -42.6098 H         1 UNK         0.3000 
    160 H160        3.9536  -18.8643  -43.2188 H         1 UNK         0.0600 
    161 H161        4.0556  -15.8097  -43.4487 H         1 UNK         0.0600 
    162 H162        4.5985  -16.9676  -44.6555 H         1 UNK         0.0600 
    163 H163        5.4324  -16.8588  -43.1165 H         1 UNK         0.0600 
    164 H164        3.6239  -16.8225  -41.1831 H         1 UNK         0.3000 
    165 H165        1.9785  -18.9034  -38.8312 H         1 UNK         0.0600 
    166 H166        3.9355  -18.3140  -37.4232 H         1 UNK         0.0600 
    167 H167        4.3740  -19.5669  -38.5731 H         1 UNK         0.0600 
    168 H168        4.8801  -17.9056  -38.8560 H         1 UNK         0.0600 
    169 H169        3.0445  -16.2471  -38.6977 H         1 UNK         0.3000 
    170 H170        0.1873  -14.5519  -39.9919 H         1 UNK         0.0600 
    171 H171       -0.3652  -15.0651  -37.6106 H         1 UNK         0.0600 
    172 H172        1.3072  -14.7755  -37.1467 H         1 UNK         0.0600 
    173 H173        0.3197  -13.4567  -37.7766 H         1 UNK         0.0600 
    174 H174        2.6220  -13.5835  -38.8900 H         1 UNK         0.3000 
    175 H175        3.9568  -12.3675  -40.3034 H         1 UNK         0.0600 
    176 H176        5.3305  -14.8436  -41.5186 H         1 UNK         0.0600 
    177 H177        6.1501  -13.4448  -40.8342 H         1 UNK         0.0600 
    178 H178        5.2155  -14.5054  -39.7952 H         1 UNK         0.0600 
    179 H179        3.3655  -13.0637  -43.0232 H         1 UNK         0.3000 
    180 H180        3.9411  -10.1269  -44.1008 H         1 UNK         0.0600 
    181 H181        6.5160  -11.5287  -44.9747 H         1 UNK         0.0600 
    182 H182        6.3697   -9.8985  -44.3376 H         1 UNK         0.0600 
    183 H183        5.6736  -10.2868  -45.9012 H         1 UNK         0.0600 
    184 H184        2.8220  -11.4814  -45.3705 H         1 UNK         0.3000 
    185 H185        3.5852  -14.1465  -47.4230 H         1 UNK         0.0600 
    186 H186        2.8552  -15.6893  -45.6799 H         1 UNK         0.0600 
    187 H187        1.7088  -14.5225  -45.0289 H         1 UNK         0.0600 
    188 H188        1.4436  -15.2468  -46.6157 H         1 UNK         0.0600 
    189 H189        1.1164  -12.8053  -46.8013 H         1 UNK         0.3000 
    190 H190       -2.2223  -19.9016  -45.4272 H         1 UNK         0.3000 
    191 H191       -4.6299  -20.0595  -46.8214 H         1 UNK         0.0600 
    192 H192       -4.0175  -20.8450  -43.9270 H         1 UNK         0.0600 
    193 H193       -5.6161  -20.4942  -44.5701 H         1 UNK         0.0600 
    194 H194       -4.4056  -19.2243  -44.5025 H         1 UNK         0.0600 
    195 H195       -2.4880  -22.7221  -46.1204 H         1 UNK         0.3000 
    196 H196       -4.5217  -24.8095  -46.3961 H         1 UNK         0.0600 
    197 H197       -2.6165  -26.3320  -46.2025 H         1 UNK         0.0600 
    198 H198       -2.4664  -25.0938  -44.9648 H         1 UNK         0.0600 
    199 H199       -1.4684  -25.0215  -46.4180 H         1 UNK         0.0600 
    200 H200       -2.8144  -22.7723  -48.5940 H         1 UNK         0.3000 
    201 H201       -3.2579  -24.6698  -50.8628 H         1 UNK         0.0600 
    202 H202       -0.8515  -24.0956  -50.4988 H         1 UNK         0.0600 
    203 H203       -1.2348  -22.3797  -50.6397 H         1 UNK         0.0600 
    204 H204       -1.4513  -23.4552  -52.0192 H         1 UNK         0.0600 
    205 H205       -3.5547  -21.3077  -49.7230 H         1 UNK         0.3000 
    206 H206       -4.7616  -20.1776  -51.9944 H         1 UNK         0.0600 
    207 H207       -5.3498  -18.3426  -50.4060 H         1 UNK         0.0600 
    208 H208       -5.0191  -19.3961  -49.0374 H         1 UNK         0.0600 
    209 H209       -3.7115  -18.8985  -50.1098 H         1 UNK         0.0600 
    210 H210       -6.9261  -19.2680  -52.1672 H         1 UNK         0.3000 
    211 H211       -9.0725  -19.5276  -52.6303 H         1 UNK         0.0600 
    212 H212       -9.3799  -20.9699  -49.9441 H         1 UNK         0.0600 
    213 H213      -10.6519  -20.1962  -50.8764 H         1 UNK         0.0600 
    214 H214       -9.3838  -19.2195  -50.1551 H         1 UNK         0.0600 
    215 H215       -7.1874  -21.4467  -53.5453 H         1 UNK         0.3000 
    216 H216       -6.9363  -23.2356  -54.7635 H         1 UNK         0.0600 
    217 H217       -8.8168  -24.2024  -56.0148 H         1 UNK         0.0600 
    218 H218       -9.0053  -22.4605  -55.9453 H         1 UNK         0.0600 
    219 H219       -9.9837  -23.4968  -54.9057 H         1 UNK         0.0600 
    220 H220       -7.1513  -23.5232  -51.7736 H         1 UNK         0.3000 
    221 H221       -8.2046  -26.0772  -51.1335 H         1 UNK         0.0600 
    222 H222       -6.0571  -24.3850  -49.7693 H         1 UNK         0.0600 
    223 H223       -7.7809  -24.3826  -49.4176 H         1 UNK         0.0600 
    224 H224       -6.8120  -25.8032  -49.0529 H         1 UNK         0.0600 
    225 H225       -5.1370  -25.1770  -52.5911 H         1 UNK         0.3000 
    226 H226       -4.5196  -28.0791  -52.9671 H         1 UNK         0.0600 
    227 H227       -2.8536  -27.0231  -51.3635 H         1 UNK         0.0600 
    228 H228       -2.1328  -27.6020  -52.8560 H         1 UNK         0.0600 
    229 H229       -2.4124  -25.8820  -52.6405 H         1 UNK         0.0600 
    230 H230       -6.2364  -26.4447  -54.4865 H         1 UNK         0.3000 
    231 H231       -6.8484  -25.9740  -56.5174 H         1 UNK         0.0600 
    232 H232       -5.6243  -27.9933  -57.3218 H         1 UNK         0.0600 
    233 H233       -4.1851  -27.0146  -57.6097 H         1 UNK         0.0600 
    234 H234       -5.6516  -26.7126  -58.5241 H         1 UNK         0.0600 
    235 H235       -3.5529  -24.8045  -55.7871 H         1 UNK         0.3000 
    236 H236       -4.3250  -22.0723  -56.2274 H         1 UNK         0.0600 
    237 H237       -2.5451  -21.6126  -57.9661 H         1 UNK         0.0600 
    238 H238       -2.2326  -23.3380  -58.1034 H         1 UNK         0.0600 
    239 H239       -3.7852  -22.6733  -58.6077 H         1 UNK         0.0600 
    240 H240       -2.4744  -20.6294  -55.6605 H         1 UNK         0.3000 
    241 H241       -0.9692  -21.5486  -53.3825 H         1 UNK         0.0600 
    242 H242        2.3107  -22.1671  -54.6052 H         1 UNK         0.3800 
    243 H243        1.2965  -22.0117  -53.2010 H         1 UNK         0.3800 
    244 H244       -0.8797  -18.9135  -54.9409 H         1 UNK         0.0800 
    245 H245        0.0470  -19.2216  -53.4933 H         1 UNK         0.0800 
    246 H246       -2.9137  -16.7902  -52.3540 H         1 UNK         0.0800 
    247 H247       -1.8846  -16.7750  -53.7645 H         1 UNK         0.0800 
@<TRIPOS>BOND
     1    1    2 1    
     2    1  127 1    
     3    1  128 1    
     4    1  129 1    
     5    2    3 2    
     6    2    4 am   BACKBONE|DICT|INTERRES
     7    4    5 1    
     8    4  130 1    
     9    5    6 1    
    10    5   65 1    
    11    5  131 1    
    12    6    7 1    
    13    6  132 1    
    14    6  133 1    
    15    7    8 1    
    16    8    9 1    
    17    8  134 1    
    18    8  135 1    
    19    9   10 ar   
    20    9   14 ar   
    21   10   11 ar   
    22   10  136 1    
    23   11   12 ar   
    24   11  126 1    
    25   12   13 ar   
    26   12  137 1    
    27   13   14 ar   
    28   13   15 1    
    29   14  138 1    
    30   15   16 1    
    31   15  139 1    
    32   15  140 1    
    33   16   17 1    
    34   17   18 1    
    35   17  141 1    
    36   17  142 1    
    37   18   19 1    
    38   18   67 1    
    39   18  143 1    
    40   19   20 am   BACKBONE|DICT|INTERRES
    41   19  144 1    
    42   20   21 2    
    43   20   22 1    
    44   22   23 1    
    45   22   24 1    
    46   22  145 1    
    47   23  146 1    
    48   23  147 1    
    49   23  148 1    
    50   24   25 am   BACKBONE|DICT|INTERRES
    51   24  149 1    
    52   25   26 2    
    53   25   27 1    
    54   27   28 1    
    55   27   29 1    
    56   27  150 1    
    57   28  151 1    
    58   28  152 1    
    59   28  153 1    
    60   29   30 am   BACKBONE|DICT|INTERRES
    61   29  154 1    
    62   30   31 2    
    63   30   32 1    
    64   32   33 1    
    65   32   34 1    
    66   32  155 1    
    67   33  156 1    
    68   33  157 1    
    69   33  158 1    
    70   34   35 am   BACKBONE|DICT|INTERRES
    71   34  159 1    
    72   35   36 2    
    73   35   37 1    
    74   37   38 1    
    75   37   39 1    
    76   37  160 1    
    77   38  161 1    
    78   38  162 1    
    79   38  163 1    
    80   39   40 am   BACKBONE|DICT|INTERRES
    81   39  164 1    
    82   40   41 2    
    83   40   42 1    
    84   42   43 1    
    85   42   44 1    
    86   42  165 1    
    87   43  166 1    
    88   43  167 1    
    89   43  168 1    
    90   44   45 am   BACKBONE|DICT|INTERRES
    91   44  169 1    
    92   45   46 2    
    93   45   47 1    
    94   47   48 1    
    95   47   49 1    
    96   47  170 1    
    97   48  171 1    
    98   48  172 1    
    99   48  173 1    
   100   49   50 am   BACKBONE|DICT|INTERRES
   101   49  174 1    
   102   50   51 2    
   103   50   52 1    
   104   52   53 1    
   105   52   54 1    
   106   52  175 1    
   107   53  176 1    
   108   53  177 1    
   109   53  178 1    
   110   54   55 am   BACKBONE|DICT|INTERRES
   111   54  179 1    
   112   55   56 2    
   113   55   57 1    
   114   57   58 1    
   115   57   59 1    
   116   57  180 1    
   117   58  181 1    
   118   58  182 1    
   119   58  183 1    
   120   59   60 am   BACKBONE|DICT|INTERRES
   121   59  184 1    
   122   60   61 2    
   123   60   62 1    
   124   62   63 1    
   125   62   64 1    
   126   62  185 1    
   127   63  186 1    
   128   63  187 1    
   129   63  188 1    
   130   64   65 am   BACKBONE|DICT|INTERRES
   131   64  189 1    
   132   65   66 2    
   133   67   68 2    
   134   67   69 am   BACKBONE|DICT|INTERRES
   135   69   70 1    
   136   69  190 1    
   137   70   71 1    
   138   70   72 1    
   139   70  191 1    
   140   71  192 1    
   141   71  193 1    
   142   71  194 1    
   143   72   73 2    
   144   72   74 am   BACKBONE|DICT|INTERRES
   145   74   75 1    
   146   74  195 1    
   147   75   76 1    
   148   75   77 1    
   149   75  196 1    
   150   76  197 1    
   151   76  198 1    
   152   76  199 1    
   153   77   78 2    
   154   77   79 am   BACKBONE|DICT|INTERRES
   155   79   80 1    
   156   79  200 1    
   157   80   81 1    
   158   80   82 1    
   159   80  201 1    
   160   81  202 1    
   161   81  203 1    
   162   81  204 1    
   163   82   83 2    
   164   82   84 am   BACKBONE|DICT|INTERRES
   165   84   85 1    
   166   84  205 1    
   167   85   86 1    
   168   85   87 1    
   169   85  206 1    
   170   86  207 1    
   171   86  208 1    
   172   86  209 1    
   173   87   88 2    
   174   87   89 am   BACKBONE|DICT|INTERRES
   175   89   90 1    
   176   89  210 1    
   177   90   91 1    
   178   90   92 1    
   179   90  211 1    
   180   91  212 1    
   181   91  213 1    
   182   91  214 1    
   183   92   93 2    
   184   92   94 am   BACKBONE|DICT|INTERRES
   185   94   95 1    
   186   94  215 1    
   187   95   96 1    
   188   95   97 1    
   189   95  216 1    
   190   96  217 1    
   191   96  218 1    
   192   96  219 1    
   193   97   98 2    
   194   97   99 am   BACKBONE|DICT|INTERRES
   195   99  100 1    
   196   99  220 1    
   197  100  101 1    
   198  100  102 1    
   199  100  221 1    
   200  101  222 1    
   201  101  223 1    
   202  101  224 1    
   203  102  103 2    
   204  102  104 am   BACKBONE|DICT|INTERRES
   205  104  105 1    
   206  104  225 1    
   207  105  106 1    
   208  105  107 1    
   209  105  226 1    
   210  106  227 1    
   211  106  228 1    
   212  106  229 1    
   213  107  108 2    
   214  107  109 am   BACKBONE|DICT|INTERRES
   215  109  110 1    
   216  109  230 1    
   217  110  111 1    
   218  110  112 1    
   219  110  231 1    
   220  111  232 1    
   221  111  233 1    
   222  111  234 1    
   223  112  113 2    
   224  112  114 am   BACKBONE|DICT|INTERRES
   225  114  115 1    
   226  114  235 1    
   227  115  116 1    
   228  115  117 1    
   229  115  236 1    
   230  116  237 1    
   231  116  238 1    
   232  116  239 1    
   233  117  118 2    
   234  117  119 am   BACKBONE|DICT|INTERRES
   235  119  120 1    
   236  119  240 1    
   237  120  121 1    
   238  120  124 1    
   239  120  241 1    
   240  121  122 am   BACKBONE|DICT|INTERRES
   241  121  123 2    
   242  122  242 1    
   243  122  243 1    
   244  124  125 1    
   245  124  244 1    
   246  124  245 1    
   247  125  126 1    
   248  126  246 1    
   249  126  247 1    
@<TRIPOS>SUBSTRUCTURE
     1 UNK         1 GROUP             0       ****    0 ROOT    
