@<TRIPOS>MOLECULE
3R540
247   249    1
SMALL
USER_CHARGES


@<TRIPOS>ATOM
      1 CA         -0.9956  -11.0619  -50.7632 C.3       0 UNK        -0.1800 
      2 C           0.0991  -11.0155  -49.7066 C.2       0 UNK         0.5000 
      3 O           0.4429   -9.9353  -49.2269 O.2       0 UNK        -0.5000 
      4 N           0.6465  -12.1833  -49.3467 N.am      1 UNK        -0.5000 
      5 CA          1.6963  -12.3482  -48.3342 C.3       1 UNK         0.1400 
      6 C6          2.3297  -13.7568  -48.3969 C.3       23 UNK        -0.0398 
      7 S7          3.2471  -14.0853  -49.9464 S.3       23 UNK        -0.2404 
      8 C8          1.9912  -14.7227  -51.1167 C.3       23 UNK        -0.0205 
      9 C9          1.0177  -15.7131  -50.4922 C.ar      23 UNK        -0.0193 
     10 C10        -0.3532  -15.4406  -50.4838 C.ar      23 UNK        -0.1150 
     11 C11        -1.2458  -16.3087  -49.8504 C.ar      23 UNK        -0.0193 
     12 C12        -0.7595  -17.4612  -49.2245 C.ar      23 UNK        -0.1150 
     13 C13         0.6073  -17.7588  -49.2518 C.ar      23 UNK        -0.0193 
     14 C14         1.4876  -16.8859  -49.8958 C.ar      23 UNK        -0.1150 
     15 C15         1.1535  -18.9940  -48.5537 C.3       23 UNK        -0.0205 
     16 S16         1.1133  -20.4613  -49.6215 S.3       23 UNK        -0.2404 
     17 C17        -0.4873  -21.1838  -49.1386 C.3       23 UNK        -0.0398 
     18 CA         -0.3043  -22.3043  -48.0914 C.3       11 UNK         0.1400 
     19 N           0.1676  -21.8003  -46.8010 N.am      11 UNK        -0.5000 
     20 C           1.1396  -22.3696  -46.0758 C.2       10 UNK         0.5000 
     21 O           1.7655  -23.3693  -46.4292 O.2       10 UNK        -0.5000 
     22 CA          1.4656  -21.7233  -44.7141 C.3       10 UNK         0.1400 
     23 CB          2.6122  -20.7120  -44.8674 C.3       10 UNK        -0.1800 
     24 N           0.3249  -21.0561  -44.0841 N.am      10 UNK        -0.5000 
     25 C          -0.8207  -21.6576  -43.7306 C.2       9 UNK         0.5000 
     26 O          -1.0520  -22.8555  -43.8957 O.2       9 UNK        -0.5000 
     27 CA         -1.9239  -20.7559  -43.1549 C.3       9 UNK         0.1400 
     28 CB         -1.7848  -20.6504  -41.6310 C.3       9 UNK        -0.1800 
     29 N          -1.9643  -19.4157  -43.7434 N.am      9 UNK        -0.5000 
     30 C          -2.1030  -19.1321  -45.0473 C.2       8 UNK         0.5000 
     31 O          -2.1307  -19.9951  -45.9300 O.2       8 UNK        -0.5000 
     32 CA         -2.1927  -17.6485  -45.4593 C.3       8 UNK         0.1400 
     33 CB         -3.4692  -17.3814  -46.2781 C.3       8 UNK        -0.1800 
     34 N          -2.0520  -16.6832  -44.3593 N.am      8 UNK        -0.5000 
     35 C          -2.9116  -16.4136  -43.3644 C.2       7 UNK         0.5000 
     36 O          -4.0041  -16.9629  -43.2209 O.2       7 UNK        -0.5000 
     37 CA         -2.4213  -15.3654  -42.3461 C.3       7 UNK         0.1400 
     38 CB         -3.3463  -15.2054  -41.1211 C.3       7 UNK        -0.1800 
     39 N          -1.0309  -15.6185  -41.9494 N.am      7 UNK        -0.5000 
     40 C          -0.5641  -16.6724  -41.2623 C.2       6 UNK         0.5000 
     41 O          -1.2805  -17.5554  -40.7920 O.2       6 UNK        -0.5000 
     42 CA          0.9693  -16.7528  -41.1115 C.3       6 UNK         0.1400 
     43 CB          1.4578  -18.0893  -40.5136 C.3       6 UNK        -0.1800 
     44 N           1.6691  -16.4572  -42.3658 N.am      6 UNK        -0.5000 
     45 C           1.5824  -17.1345  -43.5226 C.2       5 UNK         0.5000 
     46 O           0.8966  -18.1479  -43.6696 O.2       5 UNK        -0.5000 
     47 CA          2.3687  -16.5774  -44.7274 C.3       5 UNK         0.1400 
     48 CB          1.5190  -16.5909  -46.0062 C.3       5 UNK        -0.1800 
     49 N           2.8204  -15.2072  -44.4956 N.am      5 UNK        -0.5000 
     50 C           4.0728  -14.8326  -44.2049 C.2       4 UNK         0.5000 
     51 O           5.0311  -15.6048  -44.1816 O.2       4 UNK        -0.5000 
     52 CA          4.2885  -13.3468  -43.8483 C.3       4 UNK         0.1400 
     53 CB          4.9292  -12.5925  -45.0233 C.3       4 UNK        -0.1800 
     54 N           3.0540  -12.6649  -43.4413 N.am      4 UNK        -0.5000 
     55 C           2.4051  -12.9099  -42.2921 C.2       3 UNK         0.5000 
     56 O           2.7960  -13.7229  -41.4544 O.2       3 UNK        -0.5000 
     57 CA          1.0652  -12.1859  -42.0589 C.3       3 UNK         0.1400 
     58 CB          1.2877  -10.8867  -41.2715 C.3       3 UNK        -0.1800 
     59 N           0.3264  -11.8816  -43.2857 N.am      3 UNK        -0.5000 
     60 C          -0.1077  -12.7748  -44.1847 C.2       2 UNK         0.5000 
     61 O           0.0808  -13.9894  -44.0825 O.2       2 UNK        -0.5000 
     62 CA         -0.8548  -12.2296  -45.4195 C.3       2 UNK         0.1400 
     63 CB         -1.2712  -10.7469  -45.2996 C.3       2 UNK        -0.1800 
     64 N          -0.0996  -12.4345  -46.6584 N.am      2 UNK        -0.5000 
     65 C           1.1685  -12.0687  -46.9103 C.2       1 UNK         0.5000 
     66 O           1.9080  -11.5285  -46.0860 O.2       1 UNK        -0.5000 
     67 C          -1.6121  -23.0869  -47.9133 C.2       11 UNK         0.5000 
     68 O          -1.7992  -24.0878  -48.6044 O.2       11 UNK        -0.5000 
     69 N          -2.4961  -22.6407  -47.0064 N.am      12 UNK        -0.5000 
     70 CA         -3.7836  -23.2827  -46.7201 C.3       12 UNK         0.1400 
     71 CB         -4.5912  -22.4233  -45.7386 C.3       12 UNK        -0.1800 
     72 C          -3.6327  -24.7195  -46.1883 C.2       12 UNK         0.5000 
     73 O          -4.3595  -25.6078  -46.6343 O.2       12 UNK        -0.5000 
     74 N          -2.6446  -24.9375  -45.3069 N.am      13 UNK        -0.5000 
     75 CA         -2.2779  -26.2538  -44.7724 C.3       13 UNK         0.1400 
     76 CB         -1.2880  -26.0670  -43.6129 C.3       13 UNK        -0.1800 
     77 C          -1.6882  -27.2100  -45.8304 C.2       13 UNK         0.5000 
     78 O          -1.6963  -28.4232  -45.6216 O.2       13 UNK        -0.5000 
     79 N          -1.2116  -26.6517  -46.9499 N.am      14 UNK        -0.5000 
     80 CA         -0.6837  -27.3637  -48.1116 C.3       14 UNK         0.1400 
     81 CB          0.6149  -26.6678  -48.5542 C.3       14 UNK        -0.1800 
     82 C          -1.7274  -27.4563  -49.2477 C.2       14 UNK         0.5000 
     83 O          -1.3488  -27.6248  -50.4071 O.2       14 UNK        -0.5000 
     84 N          -3.0194  -27.3580  -48.8947 N.am      15 UNK        -0.5000 
     85 CA         -4.1966  -27.4453  -49.7661 C.3       15 UNK         0.1400 
     86 CB         -4.2907  -28.8273  -50.4479 C.3       15 UNK        -0.1800 
     87 C          -4.3034  -26.2637  -50.7516 C.2       15 UNK         0.5000 
     88 O          -4.5959  -26.4607  -51.9322 O.2       15 UNK        -0.5000 
     89 N          -4.0796  -25.0535  -50.2216 N.am      16 UNK        -0.5000 
     90 CA         -4.1260  -23.7543  -50.8993 C.3       16 UNK         0.1400 
     91 CB         -5.5463  -23.4338  -51.4030 C.3       16 UNK        -0.1800 
     92 C          -3.0359  -23.6230  -51.9808 C.2       16 UNK         0.5000 
     93 O          -3.3151  -23.2931  -53.1350 O.2       16 UNK        -0.5000 
     94 N          -1.7938  -23.8984  -51.5687 N.am      17 UNK        -0.5000 
     95 CA         -0.6069  -23.9853  -52.4211 C.3       17 UNK         0.1400 
     96 CB          0.5417  -24.5799  -51.5926 C.3       17 UNK        -0.1800 
     97 C          -0.1550  -22.6766  -53.1049 C.2       17 UNK         0.5000 
     98 O           0.7564  -22.7388  -53.9317 O.2       17 UNK        -0.5000 
     99 N          -0.7557  -21.5258  -52.7627 N.am      18 UNK        -0.5000 
    100 CA        -0.4048  -20.2230  -53.3323 C.3       18 UNK         0.1400 
    101 CB        -1.0807  -19.0987  -52.5327 C.3       18 UNK        -0.1800 
    102 C         -0.7762  -20.1346  -54.8222 C.2       18 UNK         0.5000 
    103 O          0.0916  -19.8594  -55.6516 O.2       18 UNK        -0.5000 
    104 N         -2.0547  -20.4001  -55.1205 N.am      19 UNK        -0.5000 
    105 CA        -2.6568  -20.3893  -56.4559 C.3       19 UNK         0.1400 
    106 CB        -2.5587  -18.9852  -57.1014 C.3       19 UNK        -0.1800 
    107 C         -4.1185  -20.8740  -56.3806 C.2       19 UNK         0.5000 
    108 O         -4.9717  -20.3372  -57.0877 O.2       19 UNK        -0.5000 
    109 N         -4.4149  -21.8217  -55.4747 N.am      20 UNK        -0.5000 
    110 CA        -5.7403  -22.3713  -55.1329 C.3       20 UNK         0.1400 
    111 CB        -6.4267  -23.0052  -56.3591 C.3       20 UNK        -0.1800 
    112 C         -6.6870  -21.3899  -54.4047 C.2       20 UNK         0.5000 
    113 O         -7.6195  -21.8387  -53.7377 O.2       20 UNK        -0.5000 
    114 N         -6.4376  -20.0810  -54.5261 N.am      21 UNK        -0.5000 
    115 CA        -7.2226  -19.0039  -53.9284 C.3       21 UNK         0.1400 
    116 CB        -6.8980  -17.6958  -54.6666 C.3       21 UNK        -0.1800 
    117 C         -6.9919  -18.8302  -52.4159 C.2       21 UNK         0.5000 
    118 O         -7.8876  -18.3313  -51.7327 O.2       21 UNK        -0.5000 
    119 N         -5.8116  -19.2168  -51.9160 N.am      22 UNK        -0.5000 
    120 CA        -5.4078  -19.0381  -50.5162 C.3       22 UNK         0.1400 
    121 C         -4.2852  -20.0205  -50.0926 C.2       22 UNK         0.5000 
    122 N         -4.1422  -20.2671  -48.7970 N.am      22 UNK        -0.7600 
    123 O         -3.5436  -20.5554  -50.9144 O.2       22 UNK        -0.5000 
    124 C124       -5.0700  -17.5589  -50.1771 C.3       23 UNK        -0.0398 
    125 S125       -3.6500  -16.8736  -51.1100 S.3       23 UNK        -0.2404 
    126 C126       -2.7299  -15.9815  -49.8156 C.3       23 UNK        -0.0205 
    127 H127       -1.1940  -12.0793  -51.1003 H         1 UNK         0.0600 
    128 H128       -0.7055  -10.4679  -51.6299 H         1 UNK         0.0600 
    129 H129       -1.9217  -10.6508  -50.3615 H         1 UNK         0.0600 
    130 H130        0.3335  -13.0340  -49.7883 H         1 UNK         0.3000 
    131 H131        2.4787  -11.6135  -48.5368 H         1 UNK         0.0600 
    132 H132        1.5742  -14.5233  -48.2288 H         1 UNK         0.0800 
    133 H133        3.0499  -13.8803  -47.5862 H         1 UNK         0.0800 
    134 H134        2.5042  -15.2112  -51.9460 H         1 UNK         0.0800 
    135 H135        1.4581  -13.8765  -51.5522 H         1 UNK         0.0800 
    136 H136       -0.7305  -14.5485  -50.9626 H         1 UNK         0.1150 
    137 H137       -1.4486  -18.1258  -48.7244 H         1 UNK         0.1150 
    138 H138        2.5470  -17.1008  -49.9049 H         1 UNK         0.1150 
    139 H139        0.5925  -19.1871  -47.6401 H         1 UNK         0.0800 
    140 H140        2.1847  -18.8204  -48.2426 H         1 UNK         0.0800 
    141 H141       -0.9495  -21.5763  -50.0436 H         1 UNK         0.0800 
    142 H142       -1.1593  -20.4071  -48.7736 H         1 UNK         0.0800 
    143 H143        0.4215  -23.0120  -48.4975 H         1 UNK         0.0600 
    144 H144       -0.3298  -21.0103  -46.4094 H         1 UNK         0.3000 
    145 H145        1.7943  -22.5190  -44.0428 H         1 UNK         0.0600 
    146 H146        2.3302  -19.8818  -45.5162 H         1 UNK         0.0600 
    147 H147        3.4951  -21.1830  -45.3012 H         1 UNK         0.0600 
    148 H148        2.9052  -20.2982  -43.9023 H         1 UNK         0.0600 
    149 H149        0.4181  -20.0573  -43.9176 H         1 UNK         0.3000 
    150 H150       -2.8828  -21.2269  -43.3662 H         1 UNK         0.0600 
    151 H151       -0.8399  -20.1875  -41.3465 H         1 UNK         0.0600 
    152 H152       -1.8196  -21.6365  -41.1661 H         1 UNK         0.0600 
    153 H153       -2.5924  -20.0587  -41.1996 H         1 UNK         0.0600 
    154 H154       -1.9058  -18.6428  -43.0955 H         1 UNK         0.3000 
    155 H155       -1.3431  -17.4701  -46.1181 H         1 UNK         0.0600 
    156 H156       -4.3699  -17.6687  -45.7352 H         1 UNK         0.0600 
    157 H157       -3.4567  -17.9544  -47.2047 H         1 UNK         0.0600 
    158 H158       -3.5585  -16.3275  -46.5394 H         1 UNK         0.0600 
    159 H159       -1.1735  -16.1828  -44.3441 H         1 UNK         0.3000 
    160 H160       -2.4215  -14.4103  -42.8726 H         1 UNK         0.0600 
    161 H161       -3.4717  -16.1405  -40.5749 H         1 UNK         0.0600 
    162 H162       -4.3395  -14.8749  -41.4270 H         1 UNK         0.0600 
    163 H163       -2.9560  -14.4608  -40.4275 H         1 UNK         0.0600 
    164 H164       -0.3535  -14.9948  -42.3729 H         1 UNK         0.3000 
    165 H165        1.2449  -15.9622  -40.4121 H         1 UNK         0.0600 
    166 H166        1.0075  -18.2691  -39.5368 H         1 UNK         0.0600 
    167 H167        1.2074  -18.9380  -41.1498 H         1 UNK         0.0600 
    168 H168        2.5388  -18.0847  -40.3754 H         1 UNK         0.0600 
    169 H169        2.2580  -15.6339  -42.3411 H         1 UNK         0.3000 
    170 H170        3.2192  -17.2448  -44.8787 H         1 UNK         0.0600 
    171 H171        2.1343  -16.3797  -46.8797 H         1 UNK         0.0600 
    172 H172        1.0664  -17.5669  -46.1621 H         1 UNK         0.0600 
    173 H173        0.7135  -15.8570  -45.9726 H         1 UNK         0.0600 
    174 H174        2.0850  -14.5109  -44.4554 H         1 UNK         0.3000 
    175 H175        4.9848  -13.3120  -43.0078 H         1 UNK         0.0600 
    176 H176        5.8956  -13.0265  -45.2830 H         1 UNK         0.0600 
    177 H177        4.3069  -12.6290  -45.9165 H         1 UNK         0.0600 
    178 H178        5.1000  -11.5449  -44.7753 H         1 UNK         0.0600 
    179 H179        2.6460  -12.0242  -44.1137 H         1 UNK         0.3000 
    180 H180        0.4396  -12.8463  -41.4549 H         1 UNK         0.0600 
    181 H181        1.8809  -10.1689  -41.8396 H         1 UNK         0.0600 
    182 H182        1.8146  -11.0812  -40.3362 H         1 UNK         0.0600 
    183 H183        0.3400  -10.4126  -41.0156 H         1 UNK         0.0600 
    184 H184        0.1539  -10.9041  -43.4708 H         1 UNK         0.3000 
    185 H185       -1.7656  -12.8238  -45.5062 H         1 UNK         0.0600 
    186 H186       -1.8757  -10.5749  -44.4080 H         1 UNK         0.0600 
    187 H187       -0.4108  -10.0779  -45.2586 H         1 UNK         0.0600 
    188 H188       -1.8752  -10.4458  -46.1558 H         1 UNK         0.0600 
    189 H189       -0.6097  -12.8838  -47.4046 H         1 UNK         0.3000 
    190 H190       -2.2862  -21.7986  -46.4770 H         1 UNK         0.3000 
    191 H191       -4.3418  -23.3309  -47.6571 H         1 UNK         0.0600 
    192 H192       -4.6664  -21.3896  -46.0754 H         1 UNK         0.0600 
    193 H193       -5.6068  -22.8070  -45.6353 H         1 UNK         0.0600 
    194 H194       -4.1441  -22.4239  -44.7463 H         1 UNK         0.0600 
    195 H195       -2.0908  -24.1511  -44.9778 H         1 UNK         0.3000 
    196 H196       -3.1825  -26.7211  -44.3780 H         1 UNK         0.0600 
    197 H197       -0.3647  -25.5919  -43.9474 H         1 UNK         0.0600 
    198 H198       -1.0219  -27.0252  -43.1649 H         1 UNK         0.0600 
    199 H199       -1.7164  -25.4479  -42.8244 H         1 UNK         0.0600 
    200 H200       -1.2945  -25.6497  -47.0573 H         1 UNK         0.3000 
    201 H201       -0.4316  -28.3899  -47.8379 H         1 UNK         0.0600 
    202 H202        0.4388  -25.6288  -48.8304 H         1 UNK         0.0600 
    203 H203        1.3538  -26.6738  -47.7528 H         1 UNK         0.0600 
    204 H204        1.0657  -27.1705  -49.4105 H         1 UNK         0.0600 
    205 H205       -3.2224  -27.1744  -47.9206 H         1 UNK         0.3000 
    206 H206       -5.0601  -27.3564  -49.1051 H         1 UNK         0.0600 
    207 H207       -4.2283  -29.6330  -49.7165 H         1 UNK         0.0600 
    208 H208       -5.2411  -28.9383  -50.9711 H         1 UNK         0.0600 
    209 H209       -3.4979  -28.9764  -51.1812 H         1 UNK         0.0600 
    210 H210       -3.7519  -25.0261  -49.2652 H         1 UNK         0.3000 
    211 H211       -3.8850  -23.0182  -50.1338 H         1 UNK         0.0600 
    212 H212       -6.2748  -23.4995  -50.5951 H         1 UNK         0.0600 
    213 H213       -5.5930  -22.4183  -51.7960 H         1 UNK         0.0600 
    214 H214       -5.8632  -24.1097  -52.1970 H         1 UNK         0.0600 
    215 H215       -1.6726  -24.1635  -50.5970 H         1 UNK         0.3000 
    216 H216       -0.8383  -24.6879  -53.2241 H         1 UNK         0.0600 
    217 H217        0.7810  -23.9561  -50.7312 H         1 UNK         0.0600 
    218 H218        1.4509  -24.6817  -52.1865 H         1 UNK         0.0600 
    219 H219        0.2850  -25.5757  -51.2349 H         1 UNK         0.0600 
    220 H220       -1.5257  -21.5467  -52.1087 H         1 UNK         0.3000 
    221 H221        0.6760  -20.0958  -53.2394 H         1 UNK         0.0600 
    222 H222       -2.1643  -19.1081  -52.6471 H         1 UNK         0.0600 
    223 H223       -0.8630  -19.1817  -51.4697 H         1 UNK         0.0600 
    224 H224       -0.7277  -18.1198  -52.8590 H         1 UNK         0.0600 
    225 H225       -2.6788  -20.6271  -54.3594 H         1 UNK         0.3000 
    226 H226       -2.1163  -21.1022  -57.0810 H         1 UNK         0.0600 
    227 H227       -1.5269  -18.6683  -57.2458 H         1 UNK         0.0600 
    228 H228       -3.0225  -18.9697  -58.0884 H         1 UNK         0.0600 
    229 H229       -3.0572  -18.2312  -56.4912 H         1 UNK         0.0600 
    230 H230       -3.6652  -22.2239  -54.9219 H         1 UNK         0.3000 
    231 H231       -5.5508  -23.1814  -54.4295 H         1 UNK         0.0600 
    232 H232       -6.7289  -22.2589  -57.0938 H         1 UNK         0.0600 
    233 H233       -7.3264  -23.5452  -56.0615 H         1 UNK         0.0600 
    234 H234       -5.7691  -23.7196  -56.8541 H         1 UNK         0.0600 
    235 H235       -5.7053  -19.8079  -55.1677 H         1 UNK         0.3000 
    236 H236       -8.2812  -19.2267  -54.0780 H         1 UNK         0.0600 
    237 H237       -5.8461  -17.4259  -54.5623 H         1 UNK         0.0600 
    238 H238       -7.1199  -17.7773  -55.7310 H         1 UNK         0.0600 
    239 H239       -7.4898  -16.8677  -54.2744 H         1 UNK         0.0600 
    240 H240       -5.1204  -19.6490  -52.5120 H         1 UNK         0.3000 
    241 H241       -6.2716  -19.3217  -49.9113 H         1 UNK         0.0600 
    242 H242       -3.4228  -20.8962  -48.4913 H         1 UNK         0.3800 
    243 H243       -4.7526  -19.8493  -48.1138 H         1 UNK         0.3800 
    244 H244       -4.9020  -17.4640  -49.1050 H         1 UNK         0.0800 
    245 H245       -5.9340  -16.9262  -50.3820 H         1 UNK         0.0800 
    246 H246       -3.1178  -16.2089  -48.8263 H         1 UNK         0.0800 
    247 H247       -2.8868  -14.9108  -49.9536 H         1 UNK         0.0800 
@<TRIPOS>BOND
     1    1    2 1    
     2    1  127 1    
     3    1  128 1    
     4    1  129 1    
     5    2    3 2    
     6    2    4 am   BACKBONE|DICT|INTERRES
     7    4    5 1    
     8    4  130 1    
     9    5    6 1    
    10    5   65 1    
    11    5  131 1    
    12    6    7 1    
    13    6  132 1    
    14    6  133 1    
    15    7    8 1    
    16    8    9 1    
    17    8  134 1    
    18    8  135 1    
    19    9   10 ar   
    20    9   14 ar   
    21   10   11 ar   
    22   10  136 1    
    23   11   12 ar   
    24   11  126 1    
    25   12   13 ar   
    26   12  137 1    
    27   13   14 ar   
    28   13   15 1    
    29   14  138 1    
    30   15   16 1    
    31   15  139 1    
    32   15  140 1    
    33   16   17 1    
    34   17   18 1    
    35   17  141 1    
    36   17  142 1    
    37   18   19 1    
    38   18   67 1    
    39   18  143 1    
    40   19   20 am   BACKBONE|DICT|INTERRES
    41   19  144 1    
    42   20   21 2    
    43   20   22 1    
    44   22   23 1    
    45   22   24 1    
    46   22  145 1    
    47   23  146 1    
    48   23  147 1    
    49   23  148 1    
    50   24   25 am   BACKBONE|DICT|INTERRES
    51   24  149 1    
    52   25   26 2    
    53   25   27 1    
    54   27   28 1    
    55   27   29 1    
    56   27  150 1    
    57   28  151 1    
    58   28  152 1    
    59   28  153 1    
    60   29   30 am   BACKBONE|DICT|INTERRES
    61   29  154 1    
    62   30   31 2    
    63   30   32 1    
    64   32   33 1    
    65   32   34 1    
    66   32  155 1    
    67   33  156 1    
    68   33  157 1    
    69   33  158 1    
    70   34   35 am   BACKBONE|DICT|INTERRES
    71   34  159 1    
    72   35   36 2    
    73   35   37 1    
    74   37   38 1    
    75   37   39 1    
    76   37  160 1    
    77   38  161 1    
    78   38  162 1    
    79   38  163 1    
    80   39   40 am   BACKBONE|DICT|INTERRES
    81   39  164 1    
    82   40   41 2    
    83   40   42 1    
    84   42   43 1    
    85   42   44 1    
    86   42  165 1    
    87   43  166 1    
    88   43  167 1    
    89   43  168 1    
    90   44   45 am   BACKBONE|DICT|INTERRES
    91   44  169 1    
    92   45   46 2    
    93   45   47 1    
    94   47   48 1    
    95   47   49 1    
    96   47  170 1    
    97   48  171 1    
    98   48  172 1    
    99   48  173 1    
   100   49   50 am   BACKBONE|DICT|INTERRES
   101   49  174 1    
   102   50   51 2    
   103   50   52 1    
   104   52   53 1    
   105   52   54 1    
   106   52  175 1    
   107   53  176 1    
   108   53  177 1    
   109   53  178 1    
   110   54   55 am   BACKBONE|DICT|INTERRES
   111   54  179 1    
   112   55   56 2    
   113   55   57 1    
   114   57   58 1    
   115   57   59 1    
   116   57  180 1    
   117   58  181 1    
   118   58  182 1    
   119   58  183 1    
   120   59   60 am   BACKBONE|DICT|INTERRES
   121   59  184 1    
   122   60   61 2    
   123   60   62 1    
   124   62   63 1    
   125   62   64 1    
   126   62  185 1    
   127   63  186 1    
   128   63  187 1    
   129   63  188 1    
   130   64   65 am   BACKBONE|DICT|INTERRES
   131   64  189 1    
   132   65   66 2    
   133   67   68 2    
   134   67   69 am   BACKBONE|DICT|INTERRES
   135   69   70 1    
   136   69  190 1    
   137   70   71 1    
   138   70   72 1    
   139   70  191 1    
   140   71  192 1    
   141   71  193 1    
   142   71  194 1    
   143   72   73 2    
   144   72   74 am   BACKBONE|DICT|INTERRES
   145   74   75 1    
   146   74  195 1    
   147   75   76 1    
   148   75   77 1    
   149   75  196 1    
   150   76  197 1    
   151   76  198 1    
   152   76  199 1    
   153   77   78 2    
   154   77   79 am   BACKBONE|DICT|INTERRES
   155   79   80 1    
   156   79  200 1    
   157   80   81 1    
   158   80   82 1    
   159   80  201 1    
   160   81  202 1    
   161   81  203 1    
   162   81  204 1    
   163   82   83 2    
   164   82   84 am   BACKBONE|DICT|INTERRES
   165   84   85 1    
   166   84  205 1    
   167   85   86 1    
   168   85   87 1    
   169   85  206 1    
   170   86  207 1    
   171   86  208 1    
   172   86  209 1    
   173   87   88 2    
   174   87   89 am   BACKBONE|DICT|INTERRES
   175   89   90 1    
   176   89  210 1    
   177   90   91 1    
   178   90   92 1    
   179   90  211 1    
   180   91  212 1    
   181   91  213 1    
   182   91  214 1    
   183   92   93 2    
   184   92   94 am   BACKBONE|DICT|INTERRES
   185   94   95 1    
   186   94  215 1    
   187   95   96 1    
   188   95   97 1    
   189   95  216 1    
   190   96  217 1    
   191   96  218 1    
   192   96  219 1    
   193   97   98 2    
   194   97   99 am   BACKBONE|DICT|INTERRES
   195   99  100 1    
   196   99  220 1    
   197  100  101 1    
   198  100  102 1    
   199  100  221 1    
   200  101  222 1    
   201  101  223 1    
   202  101  224 1    
   203  102  103 2    
   204  102  104 am   BACKBONE|DICT|INTERRES
   205  104  105 1    
   206  104  225 1    
   207  105  106 1    
   208  105  107 1    
   209  105  226 1    
   210  106  227 1    
   211  106  228 1    
   212  106  229 1    
   213  107  108 2    
   214  107  109 am   BACKBONE|DICT|INTERRES
   215  109  110 1    
   216  109  230 1    
   217  110  111 1    
   218  110  112 1    
   219  110  231 1    
   220  111  232 1    
   221  111  233 1    
   222  111  234 1    
   223  112  113 2    
   224  112  114 am   BACKBONE|DICT|INTERRES
   225  114  115 1    
   226  114  235 1    
   227  115  116 1    
   228  115  117 1    
   229  115  236 1    
   230  116  237 1    
   231  116  238 1    
   232  116  239 1    
   233  117  118 2    
   234  117  119 am   BACKBONE|DICT|INTERRES
   235  119  120 1    
   236  119  240 1    
   237  120  121 1    
   238  120  124 1    
   239  120  241 1    
   240  121  122 am   BACKBONE|DICT|INTERRES
   241  121  123 2    
   242  122  242 1    
   243  122  243 1    
   244  124  125 1    
   245  124  244 1    
   246  124  245 1    
   247  125  126 1    
   248  126  246 1    
   249  126  247 1    
@<TRIPOS>SUBSTRUCTURE
     1 UNK         1 GROUP             0       ****    0 ROOT    
