@<TRIPOS>MOLECULE
3R540
247   249    1
SMALL
USER_CHARGES


@<TRIPOS>ATOM
      1 CA         -1.9137  -14.3029  -45.2730 C.3       0 UNK        -0.1800 
      2 C          -1.6792  -13.0349  -46.0820 C.2       0 UNK         0.5000 
      3 O          -1.2334  -12.0291  -45.5327 O.2       0 UNK        -0.5000 
      4 N          -1.9888  -13.0733  -47.3829 N.am      1 UNK        -0.5000 
      5 CA         -1.8765  -11.9331  -48.2995 C.3       1 UNK         0.1400 
      6 C6         -2.7527  -12.1042  -49.5662 C.3       23 UNK        -0.0398 
      7 S7         -2.5364  -13.7084  -50.4189 S.3       23 UNK        -0.2404 
      8 C8         -4.1656  -14.4636  -50.1246 C.3       23 UNK        -0.0205 
      9 C9         -4.2398  -15.8463  -50.7457 C.ar      23 UNK        -0.0193 
     10 C10        -4.3486  -15.9776  -52.1309 C.ar      23 UNK        -0.1150 
     11 C11        -4.3680  -17.2401  -52.7264 C.ar      23 UNK        -0.0193 
     12 C12        -4.3101  -18.3801  -51.9168 C.ar      23 UNK        -0.1150 
     13 C13        -4.2449  -18.2639  -50.5249 C.ar      23 UNK        -0.0193 
     14 C14        -4.2022  -16.9913  -49.9460 C.ar      23 UNK        -0.1150 
     15 C15        -4.2677  -19.5039  -49.6414 C.3       23 UNK        -0.0205 
     16 S16        -2.7723  -19.6489  -48.6160 S.3       23 UNK        -0.2404 
     17 C17        -3.3227  -20.8190  -47.3259 C.3       23 UNK        -0.0398 
     18 CA         -2.4359  -22.0828  -47.2481 C.3       11 UNK         0.1400 
     19 N          -1.0545  -21.7794  -46.8537 N.am      11 UNK        -0.5000 
     20 C          -0.0505  -22.6681  -46.8509 C.2       10 UNK         0.5000 
     21 O          -0.1716  -23.8375  -47.2150 O.2       10 UNK        -0.5000 
     22 CA          1.3034  -22.1934  -46.2944 C.3       10 UNK         0.1400 
     23 CB          2.0487  -21.3268  -47.3202 C.3       10 UNK        -0.1800 
     24 N           1.1703  -21.4768  -45.0242 N.am      10 UNK        -0.5000 
     25 C           0.7000  -22.0260  -43.8943 C.2       9 UNK         0.5000 
     26 O           0.3679  -23.2056  -43.7985 O.2       9 UNK        -0.5000 
     27 CA          0.5254  -21.1046  -42.6744 C.3       9 UNK         0.1400 
     28 CB          1.8562  -20.9235  -41.9300 C.3       9 UNK        -0.1800 
     29 N          -0.0287  -19.7988  -43.0251 N.am      9 UNK        -0.5000 
     30 C          -1.2364  -19.6024  -43.5741 C.2       8 UNK         0.5000 
     31 O          -2.0457  -20.5027  -43.7988 O.2       8 UNK        -0.5000 
     32 CA         -1.5643  -18.1620  -44.0057 C.3       8 UNK         0.1400 
     33 CB         -1.9890  -17.3044  -42.8038 C.3       8 UNK        -0.1800 
     34 N          -0.4378  -17.5296  -44.6932 N.am      8 UNK        -0.5000 
     35 C           0.0691  -17.9598  -45.8579 C.2       7 UNK         0.5000 
     36 O          -0.3878  -18.9067  -46.4940 O.2       7 UNK        -0.5000 
     37 CA          1.3397  -17.2560  -46.3578 C.3       7 UNK         0.1400 
     38 CB          0.9969  -15.9752  -47.1277 C.3       7 UNK        -0.1800 
     39 N           2.2560  -16.9510  -45.2569 N.am      7 UNK        -0.5000 
     40 C           2.9745  -17.8926  -44.6271 C.2       6 UNK         0.5000 
     41 O           2.9371  -19.0860  -44.9257 O.2       6 UNK        -0.5000 
     42 CA          3.8573  -17.4476  -43.4487 C.3       6 UNK         0.1400 
     43 CB          5.2331  -16.9760  -43.9413 C.3       6 UNK        -0.1800 
     44 N           3.2530  -16.4105  -42.6119 N.am      6 UNK        -0.5000 
     45 C           2.1623  -16.5907  -41.8535 C.2       5 UNK         0.5000 
     46 O           1.4759  -17.6113  -41.8689 O.2       5 UNK        -0.5000 
     47 CA          1.7585  -15.4140  -40.9605 C.3       5 UNK         0.1400 
     48 CB          2.8274  -15.1284  -39.8867 C.3       5 UNK        -0.1800 
     49 N           1.5314  -14.2581  -41.8160 N.am      5 UNK        -0.5000 
     50 C           0.9493  -13.1059  -41.4831 C.2       4 UNK         0.5000 
     51 O           0.5931  -12.8337  -40.3352 O.2       4 UNK        -0.5000 
     52 CA          0.7018  -12.1009  -42.6342 C.3       4 UNK         0.1400 
     53 CB          0.4245  -10.6763  -42.1206 C.3       4 UNK        -0.1800 
     54 N           1.7568  -12.0278  -43.6567 N.am      4 UNK        -0.5000 
     55 C           2.0588  -12.9603  -44.5683 C.2       3 UNK         0.5000 
     56 O           1.5893  -14.1013  -44.5724 O.2       3 UNK        -0.5000 
     57 CA          3.0466  -12.5671  -45.6689 C.3       3 UNK         0.1400 
     58 CB          4.2875  -13.4784  -45.6437 C.3       3 UNK        -0.1800 
     59 N           2.3365  -12.6945  -46.9351 N.am      3 UNK        -0.5000 
     60 C           2.7445  -12.2396  -48.1247 C.2       2 UNK         0.5000 
     61 O           3.8071  -11.6430  -48.3025 O.2       2 UNK        -0.5000 
     62 CA          1.8024  -12.4784  -49.3207 C.3       2 UNK         0.1400 
     63 CB          2.2330  -13.7117  -50.1308 C.3       2 UNK        -0.1800 
     64 N           0.3992  -12.6276  -48.9245 N.am      2 UNK        -0.5000 
     65 C          -0.4136  -11.5962  -48.6553 C.2       1 UNK         0.5000 
     66 O          -0.0524  -10.4185  -48.6789 O.2       1 UNK        -0.5000 
     67 C          -3.0774  -23.1491  -46.3363 C.2       11 UNK         0.5000 
     68 O          -3.7427  -24.0538  -46.8426 O.2       11 UNK        -0.5000 
     69 N          -2.8382  -23.0529  -45.0200 N.am      12 UNK        -0.5000 
     70 CA         -3.2952  -24.0221  -44.0236 C.3       12 UNK         0.1400 
     71 CB         -3.0723  -23.4585  -42.6123 C.3       12 UNK        -0.1800 
     72 C          -2.6262  -25.4011  -44.1758 C.2       12 UNK         0.5000 
     73 O          -3.3176  -26.4160  -44.0926 O.2       12 UNK        -0.5000 
     74 N          -1.3073  -25.4160  -44.4167 N.am      13 UNK        -0.5000 
     75 CA         -0.5101  -26.6246  -44.6378 C.3       13 UNK         0.1400 
     76 CB          0.9850  -26.2726  -44.6101 C.3       13 UNK        -0.1800 
     77 C          -0.8727  -27.3454  -45.9475 C.2       13 UNK         0.5000 
     78 O          -0.9644  -28.5737  -45.9587 O.2       13 UNK        -0.5000 
     79 N          -1.0978  -26.5708  -47.0179 N.am      14 UNK        -0.5000 
     80 CA         -1.5861  -27.0630  -48.3071 C.3       14 UNK         0.1400 
     81 CB         -1.4282  -25.9544  -49.3588 C.3       14 UNK        -0.1800 
     82 C          -3.0540  -27.5265  -48.2519 C.2       14 UNK         0.5000 
     83 O          -3.4427  -28.3908  -49.0383 O.2       14 UNK        -0.5000 
     84 N          -3.8309  -26.9266  -47.3369 N.am      15 UNK        -0.5000 
     85 CA         -5.2782  -27.0567  -47.1573 C.3       15 UNK         0.1400 
     86 CB         -5.6511  -28.4755  -46.6801 C.3       15 UNK        -0.1800 
     87 C          -6.0375  -26.6089  -48.4220 C.2       15 UNK         0.5000 
     88 O          -6.9343  -27.3116  -48.8934 O.2       15 UNK        -0.5000 
     89 N          -5.6268  -25.4586  -48.9694 N.am      16 UNK        -0.5000 
     90 CA         -6.0970  -24.9255  -50.2420 C.3       16 UNK         0.1400 
     91 CB         -5.1037  -25.3225  -51.3478 C.3       16 UNK        -0.1800 
     92 C          -6.2299  -23.4010  -50.1602 C.2       16 UNK         0.5000 
     93 O          -5.4832  -22.7535  -49.4242 O.2       16 UNK        -0.5000 
     94 N          -7.1569  -22.8625  -50.9593 N.am      17 UNK        -0.5000 
     95 CA         -7.4168  -21.4303  -51.1246 C.3       17 UNK         0.1400 
     96 CB         -8.9292  -21.1863  -50.9778 C.3       17 UNK        -0.1800 
     97 C          -6.8859  -20.9111  -52.4780 C.2       17 UNK         0.5000 
     98 O          -7.2993  -19.8417  -52.9270 O.2       17 UNK        -0.5000 
     99 N          -5.9883  -21.6740  -53.1122 N.am      18 UNK        -0.5000 
    100 CA        -5.3436  -21.3666  -54.3823 C.3       18 UNK         0.1400 
    101 CB        -6.2103  -21.8823  -55.5430 C.3       18 UNK        -0.1800 
    102 C         -3.9551  -22.0172  -54.3970 C.2       18 UNK         0.5000 
    103 O         -3.7296  -22.9855  -53.6669 O.2       18 UNK        -0.5000 
    104 N         -3.0547  -21.4662  -55.2215 N.am      19 UNK        -0.5000 
    105 CA        -1.6779  -21.8904  -55.5252 C.3       19 UNK         0.1400 
    106 CB        -1.6703  -23.2922  -56.1642 C.3       19 UNK        -0.1800 
    107 C         -0.6659  -21.8185  -54.3607 C.2       19 UNK         0.5000 
    108 O          0.5247  -21.6343  -54.6146 O.2       19 UNK        -0.5000 
    109 N         -1.1359  -21.9714  -53.1185 N.am      20 UNK        -0.5000 
    110 CA        -0.3305  -22.0329  -51.8986 C.3       20 UNK         0.1400 
    111 CB        -1.2193  -22.5563  -50.7647 C.3       20 UNK        -0.1800 
    112 C          0.3335  -20.6998  -51.4991 C.2       20 UNK         0.5000 
    113 O          1.3369  -20.7218  -50.7856 O.2       20 UNK        -0.5000 
    114 N         -0.2192  -19.5763  -51.9681 N.am      21 UNK        -0.5000 
    115 CA         0.3111  -18.2336  -51.7649 C.3       21 UNK         0.1400 
    116 CB        -0.2960  -17.6090  -50.4919 C.3       21 UNK        -0.1800 
    117 C          0.0544  -17.4333  -53.0484 C.2       21 UNK         0.5000 
    118 O          0.7802  -17.6189  -54.0257 O.2       21 UNK        -0.5000 
    119 N         -0.9812  -16.5860  -53.0335 N.am      22 UNK        -0.5000 
    120 CA        -1.4724  -15.7878  -54.1716 C.3       22 UNK         0.1400 
    121 C         -0.5412  -14.6172  -54.6121 C.2       22 UNK         0.5000 
    122 N          0.4550  -14.2314  -53.8249 N.am      22 UNK        -0.7600 
    123 O         -0.7407  -14.0255  -55.6698 O.2       22 UNK        -0.5000 
    124 C124       -1.9538  -16.6457  -55.3797 C.3       23 UNK        -0.0398 
    125 S125       -2.9799  -18.1050  -54.9704 S.3       23 UNK        -0.2404 
    126 C126       -4.4772  -17.3702  -54.2392 C.3       23 UNK        -0.0205 
    127 H127       -2.0938  -15.1663  -45.9140 H         1 UNK         0.0600 
    128 H128       -2.7782  -14.1743  -44.6221 H         1 UNK         0.0600 
    129 H129       -1.0490  -14.5190  -44.6468 H         1 UNK         0.0600 
    130 H130       -2.3474  -13.9244  -47.7910 H         1 UNK         0.3000 
    131 H131       -2.2657  -11.0589  -47.7721 H         1 UNK         0.0600 
    132 H132       -3.8008  -11.9885  -49.2872 H         1 UNK         0.0800 
    133 H133       -2.5610  -11.3027  -50.2821 H         1 UNK         0.0800 
    134 H134       -4.3595  -14.5131  -49.0520 H         1 UNK         0.0800 
    135 H135       -4.9445  -13.8315  -50.5540 H         1 UNK         0.0800 
    136 H136       -4.4028  -15.0890  -52.7440 H         1 UNK         0.1150 
    137 H137       -4.3336  -19.3579  -52.3734 H         1 UNK         0.1150 
    138 H138       -4.1388  -16.8970  -48.8710 H         1 UNK         0.1150 
    139 H139       -5.1492  -19.4506  -49.0013 H         1 UNK         0.0800 
    140 H140       -4.3685  -20.4094  -50.2412 H         1 UNK         0.0800 
    141 H141       -4.3597  -21.0986  -47.5200 H         1 UNK         0.0800 
    142 H142       -3.3238  -20.2945  -46.3689 H         1 UNK         0.0800 
    143 H143       -2.4027  -22.5232  -48.2445 H         1 UNK         0.0600 
    144 H144       -0.8620  -20.8178  -46.5853 H         1 UNK         0.3000 
    145 H145        1.9106  -23.0812  -46.1061 H         1 UNK         0.0600 
    146 H146        3.0328  -21.0366  -46.9525 H         1 UNK         0.0600 
    147 H147        2.1975  -21.8722  -48.2530 H         1 UNK         0.0600 
    148 H148        1.4993  -20.4175  -47.5623 H         1 UNK         0.0600 
    149 H149        1.4728  -20.5088  -45.0127 H         1 UNK         0.3000 
    150 H150       -0.1782  -21.5873  -41.9933 H         1 UNK         0.0600 
    151 H151        2.2719  -21.8874  -41.6339 H         1 UNK         0.0600 
    152 H152        1.7233  -20.3338  -41.0228 H         1 UNK         0.0600 
    153 H153        2.5996  -20.4216  -42.5491 H         1 UNK         0.0600 
    154 H154        0.5557  -18.9915  -42.8260 H         1 UNK         0.3000 
    155 H155       -2.4016  -18.2068  -44.7055 H         1 UNK         0.0600 
    156 H156       -1.1828  -17.1912  -42.0788 H         1 UNK         0.0600 
    157 H157       -2.2983  -16.3082  -43.1182 H         1 UNK         0.0600 
    158 H158       -2.8347  -17.7565  -42.2843 H         1 UNK         0.0600 
    159 H159        0.0293  -16.7754  -44.2133 H         1 UNK         0.3000 
    160 H160        1.8464  -17.9319  -47.0504 H         1 UNK         0.0600 
    161 H161        1.9050  -15.4718  -47.4543 H         1 UNK         0.0600 
    162 H162        0.4232  -15.2779  -46.5220 H         1 UNK         0.0600 
    163 H163        0.4020  -16.1994  -48.0121 H         1 UNK         0.0600 
    164 H164        2.2904  -15.9884  -44.9413 H         1 UNK         0.3000 
    165 H165        4.0159  -18.3245  -42.8175 H         1 UNK         0.0600 
    166 H166        5.8987  -16.7612  -43.1052 H         1 UNK         0.0600 
    167 H167        5.7141  -17.7442  -44.5483 H         1 UNK         0.0600 
    168 H168        5.1597  -16.0766  -44.5509 H         1 UNK         0.0600 
    169 H169        3.7548  -15.5378  -42.5408 H         1 UNK         0.3000 
    170 H170        0.8195  -15.6732  -40.4671 H         1 UNK         0.0600 
    171 H171        2.4826  -14.3832  -39.1703 H         1 UNK         0.0600 
    172 H172        3.7566  -14.7623  -40.3244 H         1 UNK         0.0600 
    173 H173        3.0620  -16.0309  -39.3209 H         1 UNK         0.0600 
    174 H174        1.7109  -14.3983  -42.8082 H         1 UNK         0.3000 
    175 H175       -0.2065  -12.4470  -43.1294 H         1 UNK         0.0600 
    176 H176        0.1744  -10.0039  -42.9416 H         1 UNK         0.0600 
    177 H177        1.2880  -10.2639  -41.5974 H         1 UNK         0.0600 
    178 H178       -0.4193  -10.6607  -41.4296 H         1 UNK         0.0600 
    179 H179        2.2286  -11.1374  -43.7179 H         1 UNK         0.3000 
    180 H180        3.3540  -11.5287  -45.5306 H         1 UNK         0.0600 
    181 H181        4.0312  -14.5058  -45.9036 H         1 UNK         0.0600 
    182 H182        4.7485  -13.4882  -44.6553 H         1 UNK         0.0600 
    183 H183        5.0454  -13.1383  -46.3490 H         1 UNK         0.0600 
    184 H184        1.4330  -13.1417  -46.8688 H         1 UNK         0.3000 
    185 H185        1.8899  -11.6098  -49.9772 H         1 UNK         0.0600 
    186 H186        2.1454  -14.6329  -49.5573 H         1 UNK         0.0600 
    187 H187        1.6253  -13.8197  -51.0287 H         1 UNK         0.0600 
    188 H188        3.2716  -13.6239  -50.4522 H         1 UNK         0.0600 
    189 H189        0.0188  -13.5620  -48.9067 H         1 UNK         0.3000 
    190 H190       -2.3183  -22.2529  -44.6708 H         1 UNK         0.3000 
    191 H191       -4.3694  -24.1597  -44.1636 H         1 UNK         0.0600 
    192 H192       -3.6087  -22.5196  -42.4739 H         1 UNK         0.0600 
    193 H193       -3.4316  -24.1538  -41.8527 H         1 UNK         0.0600 
    194 H194       -2.0169  -23.2723  -42.4141 H         1 UNK         0.0600 
    195 H195       -0.7964  -24.5361  -44.4082 H         1 UNK         0.3000 
    196 H196       -0.7106  -27.3129  -43.8141 H         1 UNK         0.0600 
    197 H197        1.5996  -27.1587  -44.7728 H         1 UNK         0.0600 
    198 H198        1.2719  -25.8509  -43.6467 H         1 UNK         0.0600 
    199 H199        1.2416  -25.5467  -45.3825 H         1 UNK         0.0600 
    200 H200       -0.9297  -25.5699  -46.9471 H         1 UNK         0.3000 
    201 H201       -0.9735  -27.9155  -48.6075 H         1 UNK         0.0600 
    202 H202       -0.3872  -25.6458  -49.4564 H         1 UNK         0.0600 
    203 H203       -2.0155  -25.0730  -49.0976 H         1 UNK         0.0600 
    204 H204       -1.7621  -26.2927  -50.3405 H         1 UNK         0.0600 
    205 H205       -3.4069  -26.1869  -46.7908 H         1 UNK         0.3000 
    206 H206       -5.5536  -26.3579  -46.3661 H         1 UNK         0.0600 
    207 H207       -5.0942  -28.7452  -45.7826 H         1 UNK         0.0600 
    208 H208       -6.7119  -28.5372  -46.4352 H         1 UNK         0.0600 
    209 H209       -5.4471  -29.2292  -47.4411 H         1 UNK         0.0600 
    210 H210       -4.9407  -24.8905  -48.4814 H         1 UNK         0.3000 
    211 H211       -7.0798  -25.3386  -50.4793 H         1 UNK         0.0600 
    212 H212       -4.1123  -24.9041  -51.1663 H         1 UNK         0.0600 
    213 H213       -5.4359  -24.9671  -52.3239 H         1 UNK         0.0600 
    214 H214       -5.0003  -26.4058  -51.4150 H         1 UNK         0.0600 
    215 H215       -7.7088  -23.4748  -51.5441 H         1 UNK         0.3000 
    216 H216       -6.9090  -20.8604  -50.3445 H         1 UNK         0.0600 
    217 H217       -9.1636  -20.1221  -51.0253 H         1 UNK         0.0600 
    218 H218       -9.2952  -21.5530  -50.0186 H         1 UNK         0.0600 
    219 H219       -9.4955  -21.6842  -51.7659 H         1 UNK         0.0600 
    220 H220       -5.6441  -22.5141  -52.6660 H         1 UNK         0.3000 
    221 H221       -5.2170  -20.2885  -54.4772 H         1 UNK         0.0600 
    222 H222       -6.3613  -22.9608  -55.4817 H         1 UNK         0.0600 
    223 H223       -7.1911  -21.4065  -55.5446 H         1 UNK         0.0600 
    224 H224       -5.7449  -21.6687  -56.5060 H         1 UNK         0.0600 
    225 H225       -3.3412  -20.6356  -55.7220 H         1 UNK         0.3000 
    226 H226       -1.3190  -21.1868  -56.2781 H         1 UNK         0.0600 
    227 H227       -2.3183  -23.3302  -57.0398 H         1 UNK         0.0600 
    228 H228       -0.6665  -23.5663  -56.4914 H         1 UNK         0.0600 
    229 H229       -2.0046  -24.0594  -55.4652 H         1 UNK         0.0600 
    230 H230       -2.1200  -22.2042  -53.0292 H         1 UNK         0.3000 
    231 H231        0.4698  -22.7572  -52.0635 H         1 UNK         0.0600 
    232 H232       -2.0440  -21.8741  -50.5572 H         1 UNK         0.0600 
    233 H233       -0.6434  -22.6769  -49.8470 H         1 UNK         0.0600 
    234 H234       -1.6454  -23.5276  -51.0143 H         1 UNK         0.0600 
    235 H235       -1.0161  -19.6512  -52.5842 H         1 UNK         0.3000 
    236 H236        1.3951  -18.2774  -51.6400 H         1 UNK         0.0600 
    237 H237        0.0075  -18.1646  -49.6039 H         1 UNK         0.0600 
    238 H238        0.0380  -16.5792  -50.3618 H         1 UNK         0.0600 
    239 H239       -1.3853  -17.6074  -50.5163 H         1 UNK         0.0600 
    240 H240       -1.5265  -16.5085  -52.1868 H         1 UNK         0.3000 
    241 H241       -2.3481  -15.2684  -53.7907 H         1 UNK         0.0600 
    242 H242        0.6259  -14.7042  -52.9535 H         1 UNK         0.3800 
    243 H243        1.0468  -13.4679  -54.1115 H         1 UNK         0.3800 
    244 H244       -2.5186  -16.0262  -56.0782 H         1 UNK         0.0800 
    245 H245       -1.0910  -17.0094  -55.9398 H         1 UNK         0.0800 
    246 H246       -5.3383  -17.9960  -54.4737 H         1 UNK         0.0800 
    247 H247       -4.6765  -16.4041  -54.7054 H         1 UNK         0.0800 
@<TRIPOS>BOND
     1    1    2 1    
     2    1  127 1    
     3    1  128 1    
     4    1  129 1    
     5    2    3 2    
     6    2    4 am   BACKBONE|DICT|INTERRES
     7    4    5 1    
     8    4  130 1    
     9    5    6 1    
    10    5   65 1    
    11    5  131 1    
    12    6    7 1    
    13    6  132 1    
    14    6  133 1    
    15    7    8 1    
    16    8    9 1    
    17    8  134 1    
    18    8  135 1    
    19    9   10 ar   
    20    9   14 ar   
    21   10   11 ar   
    22   10  136 1    
    23   11   12 ar   
    24   11  126 1    
    25   12   13 ar   
    26   12  137 1    
    27   13   14 ar   
    28   13   15 1    
    29   14  138 1    
    30   15   16 1    
    31   15  139 1    
    32   15  140 1    
    33   16   17 1    
    34   17   18 1    
    35   17  141 1    
    36   17  142 1    
    37   18   19 1    
    38   18   67 1    
    39   18  143 1    
    40   19   20 am   BACKBONE|DICT|INTERRES
    41   19  144 1    
    42   20   21 2    
    43   20   22 1    
    44   22   23 1    
    45   22   24 1    
    46   22  145 1    
    47   23  146 1    
    48   23  147 1    
    49   23  148 1    
    50   24   25 am   BACKBONE|DICT|INTERRES
    51   24  149 1    
    52   25   26 2    
    53   25   27 1    
    54   27   28 1    
    55   27   29 1    
    56   27  150 1    
    57   28  151 1    
    58   28  152 1    
    59   28  153 1    
    60   29   30 am   BACKBONE|DICT|INTERRES
    61   29  154 1    
    62   30   31 2    
    63   30   32 1    
    64   32   33 1    
    65   32   34 1    
    66   32  155 1    
    67   33  156 1    
    68   33  157 1    
    69   33  158 1    
    70   34   35 am   BACKBONE|DICT|INTERRES
    71   34  159 1    
    72   35   36 2    
    73   35   37 1    
    74   37   38 1    
    75   37   39 1    
    76   37  160 1    
    77   38  161 1    
    78   38  162 1    
    79   38  163 1    
    80   39   40 am   BACKBONE|DICT|INTERRES
    81   39  164 1    
    82   40   41 2    
    83   40   42 1    
    84   42   43 1    
    85   42   44 1    
    86   42  165 1    
    87   43  166 1    
    88   43  167 1    
    89   43  168 1    
    90   44   45 am   BACKBONE|DICT|INTERRES
    91   44  169 1    
    92   45   46 2    
    93   45   47 1    
    94   47   48 1    
    95   47   49 1    
    96   47  170 1    
    97   48  171 1    
    98   48  172 1    
    99   48  173 1    
   100   49   50 am   BACKBONE|DICT|INTERRES
   101   49  174 1    
   102   50   51 2    
   103   50   52 1    
   104   52   53 1    
   105   52   54 1    
   106   52  175 1    
   107   53  176 1    
   108   53  177 1    
   109   53  178 1    
   110   54   55 am   BACKBONE|DICT|INTERRES
   111   54  179 1    
   112   55   56 2    
   113   55   57 1    
   114   57   58 1    
   115   57   59 1    
   116   57  180 1    
   117   58  181 1    
   118   58  182 1    
   119   58  183 1    
   120   59   60 am   BACKBONE|DICT|INTERRES
   121   59  184 1    
   122   60   61 2    
   123   60   62 1    
   124   62   63 1    
   125   62   64 1    
   126   62  185 1    
   127   63  186 1    
   128   63  187 1    
   129   63  188 1    
   130   64   65 am   BACKBONE|DICT|INTERRES
   131   64  189 1    
   132   65   66 2    
   133   67   68 2    
   134   67   69 am   BACKBONE|DICT|INTERRES
   135   69   70 1    
   136   69  190 1    
   137   70   71 1    
   138   70   72 1    
   139   70  191 1    
   140   71  192 1    
   141   71  193 1    
   142   71  194 1    
   143   72   73 2    
   144   72   74 am   BACKBONE|DICT|INTERRES
   145   74   75 1    
   146   74  195 1    
   147   75   76 1    
   148   75   77 1    
   149   75  196 1    
   150   76  197 1    
   151   76  198 1    
   152   76  199 1    
   153   77   78 2    
   154   77   79 am   BACKBONE|DICT|INTERRES
   155   79   80 1    
   156   79  200 1    
   157   80   81 1    
   158   80   82 1    
   159   80  201 1    
   160   81  202 1    
   161   81  203 1    
   162   81  204 1    
   163   82   83 2    
   164   82   84 am   BACKBONE|DICT|INTERRES
   165   84   85 1    
   166   84  205 1    
   167   85   86 1    
   168   85   87 1    
   169   85  206 1    
   170   86  207 1    
   171   86  208 1    
   172   86  209 1    
   173   87   88 2    
   174   87   89 am   BACKBONE|DICT|INTERRES
   175   89   90 1    
   176   89  210 1    
   177   90   91 1    
   178   90   92 1    
   179   90  211 1    
   180   91  212 1    
   181   91  213 1    
   182   91  214 1    
   183   92   93 2    
   184   92   94 am   BACKBONE|DICT|INTERRES
   185   94   95 1    
   186   94  215 1    
   187   95   96 1    
   188   95   97 1    
   189   95  216 1    
   190   96  217 1    
   191   96  218 1    
   192   96  219 1    
   193   97   98 2    
   194   97   99 am   BACKBONE|DICT|INTERRES
   195   99  100 1    
   196   99  220 1    
   197  100  101 1    
   198  100  102 1    
   199  100  221 1    
   200  101  222 1    
   201  101  223 1    
   202  101  224 1    
   203  102  103 2    
   204  102  104 am   BACKBONE|DICT|INTERRES
   205  104  105 1    
   206  104  225 1    
   207  105  106 1    
   208  105  107 1    
   209  105  226 1    
   210  106  227 1    
   211  106  228 1    
   212  106  229 1    
   213  107  108 2    
   214  107  109 am   BACKBONE|DICT|INTERRES
   215  109  110 1    
   216  109  230 1    
   217  110  111 1    
   218  110  112 1    
   219  110  231 1    
   220  111  232 1    
   221  111  233 1    
   222  111  234 1    
   223  112  113 2    
   224  112  114 am   BACKBONE|DICT|INTERRES
   225  114  115 1    
   226  114  235 1    
   227  115  116 1    
   228  115  117 1    
   229  115  236 1    
   230  116  237 1    
   231  116  238 1    
   232  116  239 1    
   233  117  118 2    
   234  117  119 am   BACKBONE|DICT|INTERRES
   235  119  120 1    
   236  119  240 1    
   237  120  121 1    
   238  120  124 1    
   239  120  241 1    
   240  121  122 am   BACKBONE|DICT|INTERRES
   241  121  123 2    
   242  122  242 1    
   243  122  243 1    
   244  124  125 1    
   245  124  244 1    
   246  124  245 1    
   247  125  126 1    
   248  126  246 1    
   249  126  247 1    
@<TRIPOS>SUBSTRUCTURE
     1 UNK         1 GROUP             0       ****    0 ROOT    
