@<TRIPOS>MOLECULE
3R540
247   249    1
SMALL
USER_CHARGES


@<TRIPOS>ATOM
      1 CA          5.1886  -16.8071  -48.5580 C.3       0 UNK        -0.1800 
      2 C           3.6782  -16.8636  -48.7329 C.2       0 UNK         0.5000 
      3 O           3.1855  -16.7298  -49.8517 O.2       0 UNK        -0.5000 
      4 N           2.9429  -17.0506  -47.6274 N.am      1 UNK        -0.5000 
      5 CA          1.4777  -17.1811  -47.5589 C.3       1 UNK         0.1400 
      6 C6          0.9388  -18.3825  -48.3947 C.3       23 UNK        -0.0398 
      7 S7         -0.1401  -19.5152  -47.4598 S.3       23 UNK        -0.2404 
      8 C8         -1.7876  -18.7879  -47.7134 C.3       23 UNK        -0.0205 
      9 C9         -2.8742  -19.7702  -47.3164 C.ar      23 UNK        -0.0193 
     10 C10        -3.6389  -20.4101  -48.2948 C.ar      23 UNK        -0.1150 
     11 C11        -4.5936  -21.3659  -47.9346 C.ar      23 UNK        -0.0193 
     12 C12        -4.7753  -21.6785  -46.5838 C.ar      23 UNK        -0.1150 
     13 C13        -4.0198  -21.0399  -45.5954 C.ar      23 UNK        -0.0193 
     14 C14        -3.0872  -20.0697  -45.9688 C.ar      23 UNK        -0.1150 
     15 C15        -4.1976  -21.4236  -44.1337 C.3       23 UNK        -0.0205 
     16 S16        -3.5240  -23.0834  -43.7937 S.3       23 UNK        -0.2404 
     17 C17        -1.8109  -22.7401  -43.2446 C.3       23 UNK        -0.0398 
     18 CA         -0.7597  -22.4054  -44.3390 C.3       11 UNK         0.1400 
     19 N           0.5912  -22.3849  -43.7704 N.am      11 UNK        -0.5000 
     20 C           1.7021  -22.0225  -44.4262 C.2       10 UNK         0.5000 
     21 O           1.7016  -21.5834  -45.5755 O.2       10 UNK        -0.5000 
     22 CA          3.0189  -22.1676  -43.6484 C.3       10 UNK         0.1400 
     23 CB          4.2488  -21.6820  -44.4383 C.3       10 UNK        -0.1800 
     24 N           2.9173  -21.4053  -42.4102 N.am      10 UNK        -0.5000 
     25 C           3.1702  -21.8693  -41.1826 C.2       9 UNK         0.5000 
     26 O           3.5233  -23.0247  -40.9434 O.2       9 UNK        -0.5000 
     27 CA          2.9915  -20.8761  -40.0206 C.3       9 UNK         0.1400 
     28 CB          4.2652  -20.0379  -39.8302 C.3       9 UNK        -0.1800 
     29 N           1.8534  -19.9736  -40.1933 N.am      9 UNK        -0.5000 
     30 C           0.5639  -20.3384  -40.1734 C.2       8 UNK         0.5000 
     31 O           0.1793  -21.5020  -40.0537 O.2       8 UNK        -0.5000 
     32 CA         -0.4659  -19.2074  -40.3258 C.3       8 UNK         0.1400 
     33 CB         -0.5697  -18.3696  -39.0405 C.3       8 UNK        -0.1800 
     34 N          -0.1116  -18.3436  -41.4509 N.am      8 UNK        -0.5000 
     35 C          -0.5506  -18.5380  -42.7009 C.2       7 UNK         0.5000 
     36 O          -1.3798  -19.3953  -42.9949 O.2       7 UNK        -0.5000 
     37 CA          0.0110  -17.6375  -43.8190 C.3       7 UNK         0.1400 
     38 CB         -1.0356  -16.5987  -44.2493 C.3       7 UNK        -0.1800 
     39 N           1.2562  -16.9480  -43.4717 N.am      7 UNK        -0.5000 
     40 C           2.4358  -17.5541  -43.2900 C.2       6 UNK         0.5000 
     41 O           2.6051  -18.7646  -43.4126 O.2       6 UNK        -0.5000 
     42 CA          3.6062  -16.6690  -42.8239 C.3       6 UNK         0.1400 
     43 CB          4.2344  -15.9231  -44.0115 C.3       6 UNK        -0.1800 
     44 N           3.2395  -15.7143  -41.7705 N.am      6 UNK        -0.5000 
     45 C           2.7147  -16.0503  -40.5824 C.2       5 UNK         0.5000 
     46 O           2.4209  -17.2052  -40.2784 O.2       5 UNK        -0.5000 
     47 CA          2.4490  -14.9324  -39.5566 C.3       5 UNK         0.1400 
     48 CB          3.4089  -15.0765  -38.3657 C.3       5 UNK        -0.1800 
     49 N           2.5860  -13.5795  -40.1026 N.am      5 UNK        -0.5000 
     50 C           1.6857  -12.8775  -40.8048 C.2       4 UNK         0.5000 
     51 O           1.9333  -11.7295  -41.1764 O.2       4 UNK        -0.5000 
     52 CA          0.3013  -13.4891  -41.1368 C.3       4 UNK         0.1400 
     53 CB         -0.7185  -13.1567  -40.0364 C.3       4 UNK        -0.1800 
     54 N          -0.2023  -12.9787  -42.4121 N.am      4 UNK        -0.5000 
     55 C           0.3456  -13.2644  -43.5981 C.2       3 UNK         0.5000 
     56 O           1.2262  -14.1166  -43.7510 O.2       3 UNK        -0.5000 
     57 CA         -0.1618  -12.4592  -44.8026 C.3       3 UNK         0.1400 
     58 CB          0.2143  -10.9694  -44.6640 C.3       3 UNK        -0.1800 
     59 N           0.4327  -13.0177  -46.0117 N.am      3 UNK        -0.5000 
     60 C           0.0636  -12.7610  -47.2705 C.2       2 UNK         0.5000 
     61 O          -0.8703  -12.0176  -47.5740 O.2       2 UNK        -0.5000 
     62 CA          0.8816  -13.4423  -48.3832 C.3       2 UNK         0.1400 
     63 CB          2.0303  -12.5298  -48.8397 C.3       2 UNK        -0.1800 
     64 N           1.4362  -14.7402  -47.9922 N.am      2 UNK        -0.5000 
     65 C           0.7170  -15.8639  -47.8643 C.2       1 UNK         0.5000 
     66 O          -0.5073  -15.8822  -47.9811 O.2       1 UNK        -0.5000 
     67 C          -0.8240  -23.3379  -45.5713 C.2       11 UNK         0.5000 
     68 O          -0.3445  -24.4727  -45.5094 O.2       11 UNK        -0.5000 
     69 N          -1.4074  -22.8170  -46.6578 N.am      12 UNK        -0.5000 
     70 CA         -1.6128  -23.4470  -47.9620 C.3       12 UNK         0.1400 
     71 CB         -2.5253  -24.6853  -47.8485 C.3       12 UNK        -0.1800 
     72 C          -0.3181  -23.7120  -48.7553 C.2       12 UNK         0.5000 
     73 O          -0.3195  -24.5575  -49.6514 O.2       12 UNK        -0.5000 
     74 N           0.7586  -22.9765  -48.4442 N.am      13 UNK        -0.5000 
     75 CA          2.0365  -23.0740  -49.1500 C.3       13 UNK         0.1400 
     76 CB          3.1501  -22.4756  -48.2790 C.3       13 UNK        -0.1800 
     77 C           2.0227  -22.3961  -50.5320 C.2       13 UNK         0.5000 
     78 O           2.7294  -22.8575  -51.4294 O.2       13 UNK        -0.5000 
     79 N           1.2460  -21.3148  -50.6801 N.am      14 UNK        -0.5000 
     80 CA          1.1914  -20.4736  -51.8744 C.3       14 UNK         0.1400 
     81 CB          2.5180  -19.6947  -52.0449 C.3       14 UNK        -0.1800 
     82 C          -0.0344  -19.5448  -51.7973 C.2       14 UNK         0.5000 
     83 O          -0.9919  -19.8508  -51.0806 O.2       14 UNK        -0.5000 
     84 N           0.0210  -18.4275  -52.5380 N.am      15 UNK        -0.5000 
     85 CA         -0.9902  -17.3731  -52.6519 C.3       15 UNK         0.1400 
     86 CB         -1.0593  -16.5393  -51.3545 C.3       15 UNK        -0.1800 
     87 C          -2.3405  -17.9520  -53.1095 C.2       15 UNK         0.5000 
     88 O          -2.4131  -18.4718  -54.2239 O.2       15 UNK        -0.5000 
     89 N          -3.3635  -17.9074  -52.2448 N.am      16 UNK        -0.5000 
     90 CA         -4.7058  -18.4412  -52.4881 C.3       16 UNK         0.1400 
     91 CB         -5.5852  -18.1879  -51.2549 C.3       16 UNK        -0.1800 
     92 C          -4.7326  -19.9351  -52.8581 C.2       16 UNK         0.5000 
     93 O          -5.5973  -20.3408  -53.6353 O.2       16 UNK        -0.5000 
     94 N          -3.7755  -20.7188  -52.3382 N.am      17 UNK        -0.5000 
     95 CA         -3.6220  -22.1427  -52.6471 C.3       17 UNK         0.1400 
     96 CB         -2.6251  -22.7746  -51.6666 C.3       17 UNK        -0.1800 
     97 C          -3.1763  -22.4052  -54.0969 C.2       17 UNK         0.5000 
     98 O          -3.5019  -23.4583  -54.6435 O.2       17 UNK        -0.5000 
     99 N          -2.4538  -21.4486  -54.6920 N.am      18 UNK        -0.5000 
    100 CA        -2.0029  -21.5013  -56.0794 C.3       18 UNK         0.1400 
    101 CB        -0.6070  -20.8643  -56.1772 C.3       18 UNK        -0.1800 
    102 C         -2.9956  -20.7842  -57.0083 C.2       18 UNK         0.5000 
    103 O         -3.3055  -21.2991  -58.0829 O.2       18 UNK        -0.5000 
    104 N         -3.4650  -19.6042  -56.5826 N.am      19 UNK        -0.5000 
    105 CA        -4.2899  -18.7025  -57.3828 C.3       19 UNK         0.1400 
    106 CB        -4.2313  -17.2964  -56.7655 C.3       19 UNK        -0.1800 
    107 C         -5.7521  -19.1543  -57.5333 C.2       19 UNK         0.5000 
    108 O         -6.3378  -18.9260  -58.5929 O.2       19 UNK        -0.5000 
    109 N         -6.3258  -19.7469  -56.4776 N.am      20 UNK        -0.5000 
    110 CA        -7.7612  -20.0303  -56.3851 C.3       20 UNK         0.1400 
    111 CB        -8.4209  -18.9164  -55.5501 C.3       20 UNK        -0.1800 
    112 C         -8.0706  -21.4170  -55.7962 C.2       20 UNK         0.5000 
    113 O         -9.2386  -21.6977  -55.5219 O.2       20 UNK        -0.5000 
    114 N         -7.0396  -22.2439  -55.5589 N.am      21 UNK        -0.5000 
    115 CA        -7.1028  -23.5449  -54.8728 C.3       21 UNK         0.1400 
    116 CB        -7.8137  -24.5899  -55.7574 C.3       21 UNK        -0.1800 
    117 C         -7.7079  -23.4500  -53.4512 C.2       21 UNK         0.5000 
    118 O         -8.3708  -24.3810  -52.9912 O.2       21 UNK        -0.5000 
    119 N         -7.4830  -22.3029  -52.7973 N.am      22 UNK        -0.5000 
    120 CA        -8.0816  -21.8739  -51.5251 C.3       22 UNK         0.1400 
    121 C         -9.6025  -21.5269  -51.5933 C.2       22 UNK         0.5000 
    122 N        -10.2192  -21.4276  -52.7656 N.am      22 UNK        -0.7600 
    123 O        -10.2379  -21.3116  -50.5650 O.2       22 UNK        -0.5000 
    124 C124       -7.7167  -22.8117  -50.3366 C.3       23 UNK        -0.0398 
    125 S125       -7.1673  -21.8784  -48.8675 S.3       23 UNK        -0.2404 
    126 C126       -5.3704  -22.1124  -49.0081 C.3       23 UNK        -0.0205 
    127 H127        5.6618  -17.6001  -49.1371 H         1 UNK         0.0600 
    128 H128        5.4821  -16.9263  -47.5147 H         1 UNK         0.0600 
    129 H129        5.5717  -15.8500  -48.9120 H         1 UNK         0.0600 
    130 H130        3.4198  -17.1550  -46.7436 H         1 UNK         0.3000 
    131 H131        1.2812  -17.3787  -46.5061 H         1 UNK         0.0600 
    132 H132        1.7664  -19.0019  -48.7419 H         1 UNK         0.0800 
    133 H133        0.4385  -18.0578  -49.3064 H         1 UNK         0.0800 
    134 H134       -1.8859  -17.8813  -47.1163 H         1 UNK         0.0800 
    135 H135       -1.9046  -18.4972  -48.7567 H         1 UNK         0.0800 
    136 H136       -3.4646  -20.1872  -49.3379 H         1 UNK         0.1150 
    137 H137       -5.4922  -22.4372  -46.3023 H         1 UNK         0.1150 
    138 H138       -2.4961  -19.5702  -45.2166 H         1 UNK         0.1150 
    139 H139       -3.7384  -20.6873  -43.4725 H         1 UNK         0.0800 
    140 H140       -5.2624  -21.4230  -43.8969 H         1 UNK         0.0800 
    141 H141       -1.4868  -23.6290  -42.7011 H         1 UNK         0.0800 
    142 H142       -1.8376  -21.9435  -42.5004 H         1 UNK         0.0800 
    143 H143       -0.9565  -21.3900  -44.6846 H         1 UNK         0.0600 
    144 H144        0.6852  -22.7234  -42.8241 H         1 UNK         0.3000 
    145 H145        3.1462  -23.2316  -43.4398 H         1 UNK         0.0600 
    146 H146        5.1608  -21.7897  -43.8513 H         1 UNK         0.0600 
    147 H147        4.1564  -20.6332  -44.7232 H         1 UNK         0.0600 
    148 H148        4.3811  -22.2613  -45.3519 H         1 UNK         0.0600 
    149 H149        2.6438  -20.4325  -42.5318 H         1 UNK         0.3000 
    150 H150        2.8247  -21.4559  -39.1106 H         1 UNK         0.0600 
    151 H151        5.1355  -20.6765  -39.6740 H         1 UNK         0.0600 
    152 H152        4.1805  -19.3838  -38.9621 H         1 UNK         0.0600 
    153 H153        4.4668  -19.4119  -40.7006 H         1 UNK         0.0600 
    154 H154        2.0769  -18.9844  -40.2779 H         1 UNK         0.3000 
    155 H155       -1.4434  -19.6637  -40.4971 H         1 UNK         0.0600 
    156 H156       -0.8707  -18.9917  -38.1968 H         1 UNK         0.0600 
    157 H157       -1.3158  -17.5818  -39.1452 H         1 UNK         0.0600 
    158 H158        0.3770  -17.8992  -38.7757 H         1 UNK         0.0600 
    159 H159        0.6162  -17.6610  -41.2869 H         1 UNK         0.3000 
    160 H160        0.2124  -18.2922  -44.6684 H         1 UNK         0.0600 
    161 H161       -1.2872  -15.9222  -43.4318 H         1 UNK         0.0600 
    162 H162       -1.9587  -17.0827  -44.5709 H         1 UNK         0.0600 
    163 H163       -0.6787  -15.9982  -45.0855 H         1 UNK         0.0600 
    164 H164        1.2192  -15.9338  -43.3984 H         1 UNK         0.3000 
    165 H165        4.3659  -17.3325  -42.4056 H         1 UNK         0.0600 
    166 H166        5.1087  -15.3518  -43.6993 H         1 UNK         0.0600 
    167 H167        4.5651  -16.6232  -44.7794 H         1 UNK         0.0600 
    168 H168        3.5319  -15.2315  -44.4767 H         1 UNK         0.0600 
    169 H169        3.4242  -14.7397  -41.9591 H         1 UNK         0.3000 
    170 H170        1.4363  -15.0724  -39.1763 H         1 UNK         0.0600 
    171 H171        4.4495  -14.9548  -38.6691 H         1 UNK         0.0600 
    172 H172        3.1949  -14.3360  -37.5947 H         1 UNK         0.0600 
    173 H173        3.3156  -16.0598  -37.9021 H         1 UNK         0.0600 
    174 H174        3.4705  -13.1336  -39.9080 H         1 UNK         0.3000 
    175 H175        0.3748  -14.5728  -41.2282 H         1 UNK         0.0600 
    176 H176       -0.8612  -12.0802  -39.9331 H         1 UNK         0.0600 
    177 H177       -1.6892  -13.6044  -40.2506 H         1 UNK         0.0600 
    178 H178       -0.3946  -13.5362  -39.0670 H         1 UNK         0.0600 
    179 H179       -0.8988  -12.2501  -42.3577 H         1 UNK         0.3000 
    180 H180       -1.2467  -12.5679  -44.8555 H         1 UNK         0.0600 
    181 H181       -0.1545  -10.3811  -45.5040 H         1 UNK         0.0600 
    182 H182        1.2955  -10.8349  -44.6120 H         1 UNK         0.0600 
    183 H183       -0.2131  -10.5328  -43.7609 H         1 UNK         0.0600 
    184 H184        1.1824  -13.6738  -45.8325 H         1 UNK         0.3000 
    185 H185        0.2145  -13.5980  -49.2340 H         1 UNK         0.0600 
    186 H186        1.6523  -11.5604  -49.1673 H         1 UNK         0.0600 
    187 H187        2.7451  -12.3488  -48.0360 H         1 UNK         0.0600 
    188 H188        2.5712  -12.9670  -49.6793 H         1 UNK         0.0600 
    189 H189        2.4388  -14.7995  -47.8949 H         1 UNK         0.3000 
    190 H190       -1.7634  -21.8717  -46.5923 H         1 UNK         0.3000 
    191 H191       -2.1495  -22.7055  -48.5476 H         1 UNK         0.0600 
    192 H192       -2.0243  -25.5127  -47.3458 H         1 UNK         0.0600 
    193 H193       -2.8309  -25.0380  -48.8341 H         1 UNK         0.0600 
    194 H194       -3.4339  -24.4548  -47.2919 H         1 UNK         0.0600 
    195 H195        0.7067  -22.3184  -47.6761 H         1 UNK         0.3000 
    196 H196        2.2674  -24.1303  -49.3041 H         1 UNK         0.0600 
    197 H197        3.2464  -23.0240  -47.3425 H         1 UNK         0.0600 
    198 H198        2.9573  -21.4287  -48.0401 H         1 UNK         0.0600 
    199 H199        4.1155  -22.5260  -48.7841 H         1 UNK         0.0600 
    200 H200        0.6261  -21.0339  -49.9311 H         1 UNK         0.3000 
    201 H201        1.0436  -21.1194  -52.7421 H         1 UNK         0.0600 
    202 H202        3.3807  -20.3596  -52.0683 H         1 UNK         0.0600 
    203 H203        2.6712  -18.9887  -51.2287 H         1 UNK         0.0600 
    204 H204        2.5419  -19.1345  -52.9797 H         1 UNK         0.0600 
    205 H205        0.8440  -18.2863  -53.1059 H         1 UNK         0.3000 
    206 H206       -0.6585  -16.7095  -53.4516 H         1 UNK         0.0600 
    207 H207       -0.0812  -16.1283  -51.1031 H         1 UNK         0.0600 
    208 H208       -1.7414  -15.6954  -51.4648 H         1 UNK         0.0600 
    209 H209       -1.3951  -17.1264  -50.5020 H         1 UNK         0.0600 
    210 H210       -3.2037  -17.4862  -51.3418 H         1 UNK         0.3000 
    211 H211       -5.1299  -17.8909  -53.3301 H         1 UNK         0.0600 
    212 H212       -5.6453  -17.1242  -51.0243 H         1 UNK         0.0600 
    213 H213       -5.2029  -18.7020  -50.3723 H         1 UNK         0.0600 
    214 H214       -6.6042  -18.5392  -51.4227 H         1 UNK         0.0600 
    215 H215       -3.0597  -20.2999  -51.7554 H         1 UNK         0.3000 
    216 H216       -4.5900  -22.6269  -52.5047 H         1 UNK         0.0600 
    217 H217       -2.5535  -23.8521  -51.8201 H         1 UNK         0.0600 
    218 H218       -2.9363  -22.6158  -50.6377 H         1 UNK         0.0600 
    219 H219       -1.6223  -22.3627  -51.7822 H         1 UNK         0.0600 
    220 H220       -2.2846  -20.5831  -54.1949 H         1 UNK         0.3000 
    221 H221       -1.9200  -22.5392  -56.4095 H         1 UNK         0.0600 
    222 H222       -0.6115  -19.8214  -55.8579 H         1 UNK         0.0600 
    223 H223        0.1126  -21.3994  -55.5573 H         1 UNK         0.0600 
    224 H224       -0.2369  -20.8922  -57.2028 H         1 UNK         0.0600 
    225 H225       -3.1272  -19.2346  -55.6964 H         1 UNK         0.3000 
    226 H226       -3.8578  -18.6465  -58.3843 H         1 UNK         0.0600 
    227 H227       -3.2063  -16.9277  -56.7214 H         1 UNK         0.0600 
    228 H228       -4.8081  -16.5841  -57.3568 H         1 UNK         0.0600 
    229 H229       -4.6339  -17.2849  -55.7520 H         1 UNK         0.0600 
    230 H230       -5.7892  -19.8866  -55.6282 H         1 UNK         0.3000 
    231 H231       -8.2153  -20.0279  -57.3778 H         1 UNK         0.0600 
    232 H232       -9.5015  -19.0511  -55.4890 H         1 UNK         0.0600 
    233 H233       -8.2445  -17.9355  -55.9916 H         1 UNK         0.0600 
    234 H234       -8.0328  -18.8995  -54.5306 H         1 UNK         0.0600 
    235 H235       -6.1154  -21.9256  -55.8112 H         1 UNK         0.3000 
    236 H236       -6.0741  -23.8772  -54.7394 H         1 UNK         0.0600 
    237 H237       -8.8723  -24.3616  -55.8842 H         1 UNK         0.0600 
    238 H238       -7.3604  -24.6410  -56.7474 H         1 UNK         0.0600 
    239 H239       -7.7444  -25.5860  -55.3190 H         1 UNK         0.0600 
    240 H240       -6.9107  -21.5998  -53.2584 H         1 UNK         0.3000 
    241 H241       -7.6061  -20.9086  -51.3499 H         1 UNK         0.0600 
    242 H242      -11.1988  -21.1928  -52.7824 H         1 UNK         0.3800 
    243 H243       -9.7373  -21.6004  -53.6421 H         1 UNK         0.3800 
    244 H244       -6.9223  -23.5039  -50.6186 H         1 UNK         0.0800 
    245 H245       -8.5569  -23.4501  -50.0582 H         1 UNK         0.0800 
    246 H246       -5.0630  -21.7820  -50.0001 H         1 UNK         0.0800 
    247 H247       -5.1341  -23.1754  -48.9420 H         1 UNK         0.0800 
@<TRIPOS>BOND
     1    1    2 1    
     2    1  127 1    
     3    1  128 1    
     4    1  129 1    
     5    2    3 2    
     6    2    4 am   BACKBONE|DICT|INTERRES
     7    4    5 1    
     8    4  130 1    
     9    5    6 1    
    10    5   65 1    
    11    5  131 1    
    12    6    7 1    
    13    6  132 1    
    14    6  133 1    
    15    7    8 1    
    16    8    9 1    
    17    8  134 1    
    18    8  135 1    
    19    9   10 ar   
    20    9   14 ar   
    21   10   11 ar   
    22   10  136 1    
    23   11   12 ar   
    24   11  126 1    
    25   12   13 ar   
    26   12  137 1    
    27   13   14 ar   
    28   13   15 1    
    29   14  138 1    
    30   15   16 1    
    31   15  139 1    
    32   15  140 1    
    33   16   17 1    
    34   17   18 1    
    35   17  141 1    
    36   17  142 1    
    37   18   19 1    
    38   18   67 1    
    39   18  143 1    
    40   19   20 am   BACKBONE|DICT|INTERRES
    41   19  144 1    
    42   20   21 2    
    43   20   22 1    
    44   22   23 1    
    45   22   24 1    
    46   22  145 1    
    47   23  146 1    
    48   23  147 1    
    49   23  148 1    
    50   24   25 am   BACKBONE|DICT|INTERRES
    51   24  149 1    
    52   25   26 2    
    53   25   27 1    
    54   27   28 1    
    55   27   29 1    
    56   27  150 1    
    57   28  151 1    
    58   28  152 1    
    59   28  153 1    
    60   29   30 am   BACKBONE|DICT|INTERRES
    61   29  154 1    
    62   30   31 2    
    63   30   32 1    
    64   32   33 1    
    65   32   34 1    
    66   32  155 1    
    67   33  156 1    
    68   33  157 1    
    69   33  158 1    
    70   34   35 am   BACKBONE|DICT|INTERRES
    71   34  159 1    
    72   35   36 2    
    73   35   37 1    
    74   37   38 1    
    75   37   39 1    
    76   37  160 1    
    77   38  161 1    
    78   38  162 1    
    79   38  163 1    
    80   39   40 am   BACKBONE|DICT|INTERRES
    81   39  164 1    
    82   40   41 2    
    83   40   42 1    
    84   42   43 1    
    85   42   44 1    
    86   42  165 1    
    87   43  166 1    
    88   43  167 1    
    89   43  168 1    
    90   44   45 am   BACKBONE|DICT|INTERRES
    91   44  169 1    
    92   45   46 2    
    93   45   47 1    
    94   47   48 1    
    95   47   49 1    
    96   47  170 1    
    97   48  171 1    
    98   48  172 1    
    99   48  173 1    
   100   49   50 am   BACKBONE|DICT|INTERRES
   101   49  174 1    
   102   50   51 2    
   103   50   52 1    
   104   52   53 1    
   105   52   54 1    
   106   52  175 1    
   107   53  176 1    
   108   53  177 1    
   109   53  178 1    
   110   54   55 am   BACKBONE|DICT|INTERRES
   111   54  179 1    
   112   55   56 2    
   113   55   57 1    
   114   57   58 1    
   115   57   59 1    
   116   57  180 1    
   117   58  181 1    
   118   58  182 1    
   119   58  183 1    
   120   59   60 am   BACKBONE|DICT|INTERRES
   121   59  184 1    
   122   60   61 2    
   123   60   62 1    
   124   62   63 1    
   125   62   64 1    
   126   62  185 1    
   127   63  186 1    
   128   63  187 1    
   129   63  188 1    
   130   64   65 am   BACKBONE|DICT|INTERRES
   131   64  189 1    
   132   65   66 2    
   133   67   68 2    
   134   67   69 am   BACKBONE|DICT|INTERRES
   135   69   70 1    
   136   69  190 1    
   137   70   71 1    
   138   70   72 1    
   139   70  191 1    
   140   71  192 1    
   141   71  193 1    
   142   71  194 1    
   143   72   73 2    
   144   72   74 am   BACKBONE|DICT|INTERRES
   145   74   75 1    
   146   74  195 1    
   147   75   76 1    
   148   75   77 1    
   149   75  196 1    
   150   76  197 1    
   151   76  198 1    
   152   76  199 1    
   153   77   78 2    
   154   77   79 am   BACKBONE|DICT|INTERRES
   155   79   80 1    
   156   79  200 1    
   157   80   81 1    
   158   80   82 1    
   159   80  201 1    
   160   81  202 1    
   161   81  203 1    
   162   81  204 1    
   163   82   83 2    
   164   82   84 am   BACKBONE|DICT|INTERRES
   165   84   85 1    
   166   84  205 1    
   167   85   86 1    
   168   85   87 1    
   169   85  206 1    
   170   86  207 1    
   171   86  208 1    
   172   86  209 1    
   173   87   88 2    
   174   87   89 am   BACKBONE|DICT|INTERRES
   175   89   90 1    
   176   89  210 1    
   177   90   91 1    
   178   90   92 1    
   179   90  211 1    
   180   91  212 1    
   181   91  213 1    
   182   91  214 1    
   183   92   93 2    
   184   92   94 am   BACKBONE|DICT|INTERRES
   185   94   95 1    
   186   94  215 1    
   187   95   96 1    
   188   95   97 1    
   189   95  216 1    
   190   96  217 1    
   191   96  218 1    
   192   96  219 1    
   193   97   98 2    
   194   97   99 am   BACKBONE|DICT|INTERRES
   195   99  100 1    
   196   99  220 1    
   197  100  101 1    
   198  100  102 1    
   199  100  221 1    
   200  101  222 1    
   201  101  223 1    
   202  101  224 1    
   203  102  103 2    
   204  102  104 am   BACKBONE|DICT|INTERRES
   205  104  105 1    
   206  104  225 1    
   207  105  106 1    
   208  105  107 1    
   209  105  226 1    
   210  106  227 1    
   211  106  228 1    
   212  106  229 1    
   213  107  108 2    
   214  107  109 am   BACKBONE|DICT|INTERRES
   215  109  110 1    
   216  109  230 1    
   217  110  111 1    
   218  110  112 1    
   219  110  231 1    
   220  111  232 1    
   221  111  233 1    
   222  111  234 1    
   223  112  113 2    
   224  112  114 am   BACKBONE|DICT|INTERRES
   225  114  115 1    
   226  114  235 1    
   227  115  116 1    
   228  115  117 1    
   229  115  236 1    
   230  116  237 1    
   231  116  238 1    
   232  116  239 1    
   233  117  118 2    
   234  117  119 am   BACKBONE|DICT|INTERRES
   235  119  120 1    
   236  119  240 1    
   237  120  121 1    
   238  120  124 1    
   239  120  241 1    
   240  121  122 am   BACKBONE|DICT|INTERRES
   241  121  123 2    
   242  122  242 1    
   243  122  243 1    
   244  124  125 1    
   245  124  244 1    
   246  124  245 1    
   247  125  126 1    
   248  126  246 1    
   249  126  247 1    
@<TRIPOS>SUBSTRUCTURE
     1 UNK         1 GROUP             0       ****    0 ROOT    
