@<TRIPOS>MOLECULE
3R540
247   249    1
SMALL
USER_CHARGES


@<TRIPOS>ATOM
      1 CA          5.6130  -12.2375  -47.8571 C.3       0 UNK        -0.1800 
      2 C           4.6825  -13.2354  -48.5312 C.2       0 UNK         0.5000 
      3 O           3.9521  -12.8604  -49.4466 O.2       0 UNK        -0.5000 
      4 N           4.6966  -14.4882  -48.0557 N.am      1 UNK        -0.5000 
      5 CA          3.9326  -15.6711  -48.4890 C.3       1 UNK         0.1400 
      6 C6          4.3407  -16.2127  -49.8926 C.3       23 UNK        -0.0398 
      7 S7          3.4634  -15.5237  -51.3463 S.3       23 UNK        -0.2404 
      8 C8          2.8004  -17.0136  -52.1594 C.3       23 UNK        -0.0205 
      9 C9          1.8554  -17.8154  -51.2733 C.ar      23 UNK        -0.0193 
     10 C10         0.5891  -17.3179  -50.9503 C.ar      23 UNK        -0.1150 
     11 C11        -0.2920  -18.0738  -50.1703 C.ar      23 UNK        -0.0193 
     12 C12         0.0994  -19.3368  -49.7195 C.ar      23 UNK        -0.1150 
     13 C13         1.3634  -19.8439  -50.0317 C.ar      23 UNK        -0.0193 
     14 C14         2.2370  -19.0770  -50.8064 C.ar      23 UNK        -0.1150 
     15 C15         1.7659  -21.2416  -49.5874 C.3       23 UNK        -0.0205 
     16 S16         2.6353  -21.2706  -47.9830 S.3       23 UNK        -0.2404 
     17 C17         1.3257  -20.8896  -46.7670 C.3       23 UNK        -0.0398 
     18 CA          0.5363  -22.1405  -46.2969 C.3       11 UNK         0.1400 
     19 N           0.0161  -21.9893  -44.9349 N.am      11 UNK        -0.5000 
     20 C          -0.6429  -22.9355  -44.2483 C.2       10 UNK         0.5000 
     21 O          -0.8464  -24.0751  -44.6656 O.2       10 UNK        -0.5000 
     22 CA         -1.2285  -22.5161  -42.8911 C.3       10 UNK         0.1400 
     23 CB         -0.1576  -22.5525  -41.7905 C.3       10 UNK        -0.1800 
     24 N          -1.8273  -21.1841  -42.9618 N.am      10 UNK        -0.5000 
     25 C          -2.9731  -20.9092  -43.6014 C.2       9 UNK         0.5000 
     26 O          -3.6741  -21.7616  -44.1478 O.2       9 UNK        -0.5000 
     27 CA         -3.3808  -19.4258  -43.6756 C.3       9 UNK         0.1400 
     28 CB         -4.1074  -18.9972  -42.3921 C.3       9 UNK        -0.1800 
     29 N          -2.2431  -18.5336  -43.9110 N.am      9 UNK        -0.5000 
     30 C          -1.5138  -18.5273  -45.0354 C.2       8 UNK         0.5000 
     31 O          -1.7281  -19.2659  -45.9921 O.2       8 UNK        -0.5000 
     32 CA         -0.3216  -17.5617  -45.0986 C.3       8 UNK         0.1400 
     33 CB         -0.8024  -16.1846  -45.5611 C.3       8 UNK        -0.1800 
     34 N           0.4263  -17.4165  -43.8478 N.am      8 UNK        -0.5000 
     35 C           0.9478  -18.4186  -43.1255 C.2       7 UNK         0.5000 
     36 O           0.7980  -19.6109  -43.4012 O.2       7 UNK        -0.5000 
     37 CA          1.7689  -17.9972  -41.8912 C.3       7 UNK         0.1400 
     38 CB          2.4781  -19.1791  -41.1977 C.3       7 UNK        -0.1800 
     39 N           2.7113  -16.9166  -42.1987 N.am      7 UNK        -0.5000 
     40 C           3.7458  -16.9546  -43.0562 C.2       6 UNK         0.5000 
     41 O           4.0749  -17.9599  -43.6865 O.2       6 UNK        -0.5000 
     42 CA          4.5541  -15.6548  -43.2558 C.3       6 UNK         0.1400 
     43 CB          4.6292  -15.2719  -44.7439 C.3       6 UNK        -0.1800 
     44 N           3.9938  -14.5284  -42.5078 N.am      6 UNK        -0.5000 
     45 C           4.3538  -14.1753  -41.2654 C.2       5 UNK         0.5000 
     46 O           5.2511  -14.7323  -40.6326 O.2       5 UNK        -0.5000 
     47 CA          3.5739  -13.0193  -40.6039 C.3       5 UNK         0.1400 
     48 CB          4.3837  -11.7159  -40.6815 C.3       5 UNK        -0.1800 
     49 N           2.2506  -12.7853  -41.1869 N.am      5 UNK        -0.5000 
     50 C           1.2160  -13.6365  -41.1362 C.2       4 UNK         0.5000 
     51 O           1.2514  -14.7246  -40.5612 O.2       4 UNK        -0.5000 
     52 CA         -0.0411  -13.2327  -41.9324 C.3       4 UNK         0.1400 
     53 CB         -0.9854  -12.3905  -41.0623 C.3       4 UNK        -0.1800 
     54 N           0.2665  -12.5013  -43.1681 N.am      4 UNK        -0.5000 
     55 C           0.9914  -12.9986  -44.1785 C.2       3 UNK         0.5000 
     56 O           1.4926  -14.1250  -44.1608 O.2       3 UNK        -0.5000 
     57 CA          1.2691  -12.0608  -45.3652 C.3       3 UNK         0.1400 
     58 CB          2.6395  -11.3873  -45.1915 C.3       3 UNK        -0.1800 
     59 N           1.2691  -12.7987  -46.6252 N.am      3 UNK        -0.5000 
     60 C           0.1748  -13.2311  -47.2657 C.2       2 UNK         0.5000 
     61 O          -0.9716  -12.9613  -46.9060 O.2       2 UNK        -0.5000 
     62 CA          0.3894  -14.1171  -48.5098 C.3       2 UNK         0.1400 
     63 CB         -0.1100  -13.4051  -49.7767 C.3       2 UNK        -0.1800 
     64 N           1.7959  -14.4675  -48.6989 N.am      2 UNK        -0.5000 
     65 C           2.4080  -15.5658  -48.2429 C.2       1 UNK         0.5000 
     66 O           1.8362  -16.4523  -47.6110 O.2       1 UNK        -0.5000 
     67 C          -0.5872  -22.5029  -47.2884 C.2       11 UNK         0.5000 
     68 O          -0.4643  -23.4875  -48.0154 O.2       11 UNK        -0.5000 
     69 N          -1.6765  -21.7231  -47.2708 N.am      12 UNK        -0.5000 
     70 CA         -2.8472  -21.8857  -48.1292 C.3       12 UNK         0.1400 
     71 CB         -3.8071  -20.7095  -47.9046 C.3       12 UNK        -0.1800 
     72 C          -3.5675  -23.2291  -47.9365 C.2       12 UNK         0.5000 
     73 O          -4.0617  -23.7883  -48.9157 O.2       12 UNK        -0.5000 
     74 N          -3.5885  -23.7341  -46.6969 N.am      13 UNK        -0.5000 
     75 CA         -4.1020  -25.0592  -46.3636 C.3       13 UNK         0.1400 
     76 CB         -4.3366  -25.1517  -44.8480 C.3       13 UNK        -0.1800 
     77 C          -3.1645  -26.1803  -46.8490 C.2       13 UNK         0.5000 
     78 O          -3.6340  -27.1334  -47.4708 O.2       13 UNK        -0.5000 
     79 N          -1.8612  -26.0454  -46.5641 N.am      14 UNK        -0.5000 
     80 CA         -0.8302  -27.0370  -46.8775 C.3       14 UNK         0.1400 
     81 CB          0.4693  -26.6717  -46.1433 C.3       14 UNK        -0.1800 
     82 C          -0.5693  -27.1992  -48.3852 C.2       14 UNK         0.5000 
     83 O          -0.4867  -28.3282  -48.8703 O.2       14 UNK        -0.5000 
     84 N          -0.4465  -26.0728  -49.0981 N.am      15 UNK        -0.5000 
     85 CA         -0.1788  -26.0266  -50.5375 C.3       15 UNK         0.1400 
     86 CB          0.5314  -24.7017  -50.8629 C.3       15 UNK        -0.1800 
     87 C          -1.4528  -26.1650  -51.3921 C.2       15 UNK         0.5000 
     88 O          -1.3425  -26.3026  -52.6104 O.2       15 UNK        -0.5000 
     89 N          -2.6285  -26.0754  -50.7510 N.am      16 UNK        -0.5000 
     90 CA         -3.9726  -26.0087  -51.3395 C.3       16 UNK         0.1400 
     91 CB         -4.3010  -27.2729  -52.1596 C.3       16 UNK        -0.1800 
     92 C          -4.2340  -24.7051  -52.1264 C.2       16 UNK         0.5000 
     93 O          -5.2177  -24.6182  -52.8629 O.2       16 UNK        -0.5000 
     94 N          -3.3877  -23.6851  -51.9161 N.am      17 UNK        -0.5000 
     95 CA         -3.4876  -22.3522  -52.5144 C.3       17 UNK         0.1400 
     96 CB         -2.1666  -21.5981  -52.3008 C.3       17 UNK        -0.1800 
     97 C          -4.7046  -21.5403  -52.0206 C.2       17 UNK         0.5000 
     98 O          -5.0434  -20.5280  -52.6342 O.2       17 UNK        -0.5000 
     99 N          -5.3908  -22.0279  -50.9756 N.am      18 UNK        -0.5000 
    100 CA        -6.7160  -21.5721  -50.5525 C.3       18 UNK         0.1400 
    101 CB        -7.1441  -22.3444  -49.2939 C.3       18 UNK        -0.1800 
    102 C         -7.7828  -21.7315  -51.6549 C.2       18 UNK         0.5000 
    103 O         -8.6506  -20.8680  -51.7811 O.2       18 UNK        -0.5000 
    104 N         -7.6774  -22.8014  -52.4597 N.am      19 UNK        -0.5000 
    105 CA        -8.5535  -23.0595  -53.6061 C.3       19 UNK         0.1400 
    106 CB        -8.4400  -24.5365  -54.0126 C.3       19 UNK        -0.1800 
    107 C         -8.2433  -22.1420  -54.8045 C.2       19 UNK         0.5000 
    108 O         -9.1442  -21.8398  -55.5874 O.2       19 UNK        -0.5000 
    109 N         -6.9835  -21.6966  -54.9113 N.am      20 UNK        -0.5000 
    110 CA        -6.5215  -20.7134  -55.8938 C.3       20 UNK         0.1400 
    111 CB        -5.0111  -20.9000  -56.1133 C.3       20 UNK        -0.1800 
    112 C         -6.8357  -19.2612  -55.4762 C.2       20 UNK         0.5000 
    113 O         -6.7167  -18.3621  -56.3091 O.2       20 UNK        -0.5000 
    114 N         -7.2259  -19.0652  -54.2068 N.am      21 UNK        -0.5000 
    115 CA        -7.5405  -17.7994  -53.5424 C.3       21 UNK         0.1400 
    116 CB        -8.8008  -17.1538  -54.1555 C.3       21 UNK        -0.1800 
    117 C         -6.3242  -16.8536  -53.4979 C.2       21 UNK         0.5000 
    118 O         -6.4005  -15.7170  -53.9689 O.2       21 UNK        -0.5000 
    119 N         -5.2137  -17.3563  -52.9415 N.am      22 UNK        -0.5000 
    120 CA        -3.9362  -16.6339  -52.8015 C.3       22 UNK         0.1400 
    121 C         -3.9492  -15.3643  -51.8946 C.2       22 UNK         0.5000 
    122 N         -4.9588  -15.1490  -51.0601 N.am      22 UNK        -0.7600 
    123 O         -3.0248  -14.5587  -51.9559 O.2       22 UNK        -0.5000 
    124 C124       -2.7836  -17.5945  -52.4154 C.3       23 UNK        -0.0398 
    125 S125       -2.9836  -18.3612  -50.7658 S.3       23 UNK        -0.2404 
    126 C126       -1.6692  -17.5384  -49.8104 C.3       23 UNK        -0.0205 
    127 H127        6.3358  -11.8543  -48.5773 H         1 UNK         0.0600 
    128 H128        6.1621  -12.6869  -47.0293 H         1 UNK         0.0600 
    129 H129        5.0407  -11.3960  -47.4667 H         1 UNK         0.0600 
    130 H130        5.3282  -14.6786  -47.2912 H         1 UNK         0.3000 
    131 H131        4.2653  -16.4353  -47.7841 H         1 UNK         0.0600 
    132 H132        4.2159  -17.2952  -49.8936 H         1 UNK         0.0800 
    133 H133        5.4094  -16.0601  -50.0478 H         1 UNK         0.0800 
    134 H134        2.2670  -16.7106  -53.0613 H         1 UNK         0.0800 
    135 H135        3.6340  -17.6323  -52.4953 H         1 UNK         0.0800 
    136 H136        0.2922  -16.3430  -51.3095 H         1 UNK         0.1150 
    137 H137       -0.5916  -19.9267  -49.1355 H         1 UNK         0.1150 
    138 H138        3.2102  -19.4731  -51.0606 H         1 UNK         0.1150 
    139 H139        0.8929  -21.8899  -49.5646 H         1 UNK         0.0800 
    140 H140        2.4267  -21.6797  -50.3369 H         1 UNK         0.0800 
    141 H141        1.8406  -20.4468  -45.9129 H         1 UNK         0.0800 
    142 H142        0.6724  -20.1005  -47.1381 H         1 UNK         0.0800 
    143 H143        1.2245  -22.9878  -46.2615 H         1 UNK         0.0600 
    144 H144        0.1631  -21.0894  -44.4864 H         1 UNK         0.3000 
    145 H145       -2.0100  -23.2317  -42.6260 H         1 UNK         0.0600 
    146 H146       -0.5753  -22.2719  -40.8236 H         1 UNK         0.0600 
    147 H147        0.2565  -23.5562  -41.6871 H         1 UNK         0.0600 
    148 H148        0.6720  -21.8793  -42.0063 H         1 UNK         0.0600 
    149 H149       -1.2720  -20.4186  -42.6069 H         1 UNK         0.3000 
    150 H150       -4.0736  -19.3155  -44.5127 H         1 UNK         0.0600 
    151 H151       -4.9710  -19.6358  -42.2014 H         1 UNK         0.0600 
    152 H152       -4.4730  -17.9731  -42.4694 H         1 UNK         0.0600 
    153 H153       -3.4558  -19.0568  -41.5195 H         1 UNK         0.0600 
    154 H154       -1.9962  -17.8955  -43.1693 H         1 UNK         0.3000 
    155 H155        0.3727  -17.9502  -45.8458 H         1 UNK         0.0600 
    156 H156        0.0518  -15.5432  -45.7570 H         1 UNK         0.0600 
    157 H157       -1.4296  -15.6954  -44.8150 H         1 UNK         0.0600 
    158 H158       -1.3748  -16.2537  -46.4871 H         1 UNK         0.0600 
    159 H159        0.6487  -16.4684  -43.5768 H         1 UNK         0.3000 
    160 H160        1.0547  -17.5832  -41.1781 H         1 UNK         0.0600 
    161 H161        3.1585  -19.7001  -41.8718 H         1 UNK         0.0600 
    162 H162        1.7530  -19.9103  -40.8391 H         1 UNK         0.0600 
    163 H163        3.0523  -18.8427  -40.3345 H         1 UNK         0.0600 
    164 H164        2.5194  -16.0390  -41.7309 H         1 UNK         0.3000 
    165 H165        5.5715  -15.8523  -42.9122 H         1 UNK         0.0600 
    166 H166        3.6387  -15.1648  -45.1861 H         1 UNK         0.0600 
    167 H167        5.1651  -14.3330  -44.8835 H         1 UNK         0.0600 
    168 H168        5.1581  -16.0368  -45.3134 H         1 UNK         0.0600 
    169 H169        3.2098  -14.0608  -42.9471 H         1 UNK         0.3000 
    170 H170        3.4371  -13.2775  -39.5518 H         1 UNK         0.0600 
    171 H171        5.3685  -11.8393  -40.2288 H         1 UNK         0.0600 
    172 H172        4.5345  -11.3971  -41.7137 H         1 UNK         0.0600 
    173 H173        3.8828  -10.9072  -40.1489 H         1 UNK         0.0600 
    174 H174        2.1285  -11.9199  -41.6916 H         1 UNK         0.3000 
    175 H175       -0.5616  -14.1514  -42.2112 H         1 UNK         0.0600 
    176 H176       -0.5312  -11.4411  -40.7759 H         1 UNK         0.0600 
    177 H177       -1.9162  -12.1733  -41.5866 H         1 UNK         0.0600 
    178 H178       -1.2470  -12.9196  -40.1449 H         1 UNK         0.0600 
    179 H179       -0.1042  -11.5646  -43.2413 H         1 UNK         0.3000 
    180 H180        0.4974  -11.2892  -45.4049 H         1 UNK         0.0600 
    181 H181        3.4474  -12.1194  -45.1489 H         1 UNK         0.0600 
    182 H182        2.6764  -10.8040  -44.2706 H         1 UNK         0.0600 
    183 H183        2.8499  -10.7047  -46.0151 H         1 UNK         0.0600 
    184 H184        2.1643  -13.1120  -46.9667 H         1 UNK         0.3000 
    185 H185       -0.1978  -15.0273  -48.3757 H         1 UNK         0.0600 
    186 H186        0.0166  -14.0328  -50.6587 H         1 UNK         0.0600 
    187 H187       -1.1720  -13.1678  -49.7010 H         1 UNK         0.0600 
    188 H188        0.4264  -12.4716  -49.9510 H         1 UNK         0.0600 
    189 H189        2.3761  -13.7922  -49.1930 H         1 UNK         0.3000 
    190 H190       -1.6898  -20.9083  -46.6582 H         1 UNK         0.3000 
    191 H191       -2.4989  -21.8492  -49.1600 H         1 UNK         0.0600 
    192 H192       -4.6451  -20.7438  -48.5976 H         1 UNK         0.0600 
    193 H193       -3.3059  -19.7563  -48.0683 H         1 UNK         0.0600 
    194 H194       -4.2100  -20.7056  -46.8911 H         1 UNK         0.0600 
    195 H195       -3.1864  -23.1932  -45.9421 H         1 UNK         0.3000 
    196 H196       -5.0658  -25.1892  -46.8609 H         1 UNK         0.0600 
    197 H197       -4.7361  -26.1287  -44.5735 H         1 UNK         0.0600 
    198 H198       -5.0538  -24.4009  -44.5155 H         1 UNK         0.0600 
    199 H199       -3.4152  -25.0026  -44.2845 H         1 UNK         0.0600 
    200 H200       -1.5551  -25.2347  -46.0325 H         1 UNK         0.3000 
    201 H201       -1.1706  -28.0021  -46.4966 H         1 UNK         0.0600 
    202 H202        0.3201  -26.6573  -45.0635 H         1 UNK         0.0600 
    203 H203        0.8372  -25.6891  -46.4420 H         1 UNK         0.0600 
    204 H204        1.2564  -27.3969  -46.3533 H         1 UNK         0.0600 
    205 H205       -0.5085  -25.1737  -48.6204 H         1 UNK         0.3000 
    206 H206        0.4913  -26.8464  -50.8044 H         1 UNK         0.0600 
    207 H207        1.4263  -24.5712  -50.2539 H         1 UNK         0.0600 
    208 H208        0.8418  -24.6698  -51.9079 H         1 UNK         0.0600 
    209 H209       -0.1198  -23.8443  -50.6901 H         1 UNK         0.0600 
    210 H210       -2.5970  -25.9643  -49.7465 H         1 UNK         0.3000 
    211 H211       -4.6612  -25.9859  -50.4938 H         1 UNK         0.0600 
    212 H212       -3.7233  -27.3229  -53.0826 H         1 UNK         0.0600 
    213 H213       -5.3554  -27.2930  -52.4376 H         1 UNK         0.0600 
    214 H214       -4.1004  -28.1780  -51.5862 H         1 UNK         0.0600 
    215 H215       -2.6397  -23.8323  -51.2560 H         1 UNK         0.3000 
    216 H216       -3.6186  -22.4898  -53.5894 H         1 UNK         0.0600 
    217 H217       -2.1651  -20.6596  -52.8542 H         1 UNK         0.0600 
    218 H218       -1.3160  -22.1795  -52.6569 H         1 UNK         0.0600 
    219 H219       -1.9919  -21.3560  -51.2545 H         1 UNK         0.0600 
    220 H220       -5.0164  -22.8370  -50.4924 H         1 UNK         0.3000 
    221 H221       -6.6445  -20.5110  -50.3051 H         1 UNK         0.0600 
    222 H222       -7.1740  -23.4199  -49.4737 H         1 UNK         0.0600 
    223 H223       -6.4657  -22.1674  -48.4608 H         1 UNK         0.0600 
    224 H224       -8.1386  -22.0382  -48.9669 H         1 UNK         0.0600 
    225 H225       -6.9114  -23.4519  -52.3244 H         1 UNK         0.3000 
    226 H226       -9.5852  -22.8711  -53.3013 H         1 UNK         0.0600 
    227 H227       -8.6720  -25.1961  -53.1763 H         1 UNK         0.0600 
    228 H228       -9.1377  -24.7730  -54.8169 H         1 UNK         0.0600 
    229 H229       -7.4385  -24.7824  -54.3668 H         1 UNK         0.0600 
    230 H230       -6.3128  -21.9859  -54.2150 H         1 UNK         0.3000 
    231 H231       -7.0267  -20.8994  -56.8438 H         1 UNK         0.0600 
    232 H232       -4.6511  -20.2461  -56.9085 H         1 UNK         0.0600 
    233 H233       -4.7764  -21.9238  -56.4049 H         1 UNK         0.0600 
    234 H234       -4.4379  -20.6645  -55.2168 H         1 UNK         0.0600 
    235 H235       -7.2462  -19.8782  -53.6074 H         1 UNK         0.3000 
    236 H236       -7.7742  -18.0490  -52.5063 H         1 UNK         0.0600 
    237 H237       -9.6436  -17.8448  -54.1380 H         1 UNK         0.0600 
    238 H238       -9.0959  -16.2674  -53.5929 H         1 UNK         0.0600 
    239 H239       -8.6415  -16.8455  -55.1890 H         1 UNK         0.0600 
    240 H240       -5.2158  -18.3166  -52.6165 H         1 UNK         0.3000 
    241 H241       -3.7017  -16.2597  -53.7998 H         1 UNK         0.0600 
    242 H242       -5.7175  -15.8073  -50.9950 H         1 UNK         0.3800 
    243 H243       -4.9588  -14.3224  -50.4842 H         1 UNK         0.3800 
    244 H244       -2.7225  -18.3956  -53.1520 H         1 UNK         0.0800 
    245 H245       -1.8256  -17.0772  -52.4741 H         1 UNK         0.0800 
    246 H246       -1.8488  -17.7060  -48.7473 H         1 UNK         0.0800 
    247 H247       -1.7219  -16.4592  -49.9626 H         1 UNK         0.0800 
@<TRIPOS>BOND
     1    1    2 1    
     2    1  127 1    
     3    1  128 1    
     4    1  129 1    
     5    2    3 2    
     6    2    4 am   BACKBONE|DICT|INTERRES
     7    4    5 1    
     8    4  130 1    
     9    5    6 1    
    10    5   65 1    
    11    5  131 1    
    12    6    7 1    
    13    6  132 1    
    14    6  133 1    
    15    7    8 1    
    16    8    9 1    
    17    8  134 1    
    18    8  135 1    
    19    9   10 ar   
    20    9   14 ar   
    21   10   11 ar   
    22   10  136 1    
    23   11   12 ar   
    24   11  126 1    
    25   12   13 ar   
    26   12  137 1    
    27   13   14 ar   
    28   13   15 1    
    29   14  138 1    
    30   15   16 1    
    31   15  139 1    
    32   15  140 1    
    33   16   17 1    
    34   17   18 1    
    35   17  141 1    
    36   17  142 1    
    37   18   19 1    
    38   18   67 1    
    39   18  143 1    
    40   19   20 am   BACKBONE|DICT|INTERRES
    41   19  144 1    
    42   20   21 2    
    43   20   22 1    
    44   22   23 1    
    45   22   24 1    
    46   22  145 1    
    47   23  146 1    
    48   23  147 1    
    49   23  148 1    
    50   24   25 am   BACKBONE|DICT|INTERRES
    51   24  149 1    
    52   25   26 2    
    53   25   27 1    
    54   27   28 1    
    55   27   29 1    
    56   27  150 1    
    57   28  151 1    
    58   28  152 1    
    59   28  153 1    
    60   29   30 am   BACKBONE|DICT|INTERRES
    61   29  154 1    
    62   30   31 2    
    63   30   32 1    
    64   32   33 1    
    65   32   34 1    
    66   32  155 1    
    67   33  156 1    
    68   33  157 1    
    69   33  158 1    
    70   34   35 am   BACKBONE|DICT|INTERRES
    71   34  159 1    
    72   35   36 2    
    73   35   37 1    
    74   37   38 1    
    75   37   39 1    
    76   37  160 1    
    77   38  161 1    
    78   38  162 1    
    79   38  163 1    
    80   39   40 am   BACKBONE|DICT|INTERRES
    81   39  164 1    
    82   40   41 2    
    83   40   42 1    
    84   42   43 1    
    85   42   44 1    
    86   42  165 1    
    87   43  166 1    
    88   43  167 1    
    89   43  168 1    
    90   44   45 am   BACKBONE|DICT|INTERRES
    91   44  169 1    
    92   45   46 2    
    93   45   47 1    
    94   47   48 1    
    95   47   49 1    
    96   47  170 1    
    97   48  171 1    
    98   48  172 1    
    99   48  173 1    
   100   49   50 am   BACKBONE|DICT|INTERRES
   101   49  174 1    
   102   50   51 2    
   103   50   52 1    
   104   52   53 1    
   105   52   54 1    
   106   52  175 1    
   107   53  176 1    
   108   53  177 1    
   109   53  178 1    
   110   54   55 am   BACKBONE|DICT|INTERRES
   111   54  179 1    
   112   55   56 2    
   113   55   57 1    
   114   57   58 1    
   115   57   59 1    
   116   57  180 1    
   117   58  181 1    
   118   58  182 1    
   119   58  183 1    
   120   59   60 am   BACKBONE|DICT|INTERRES
   121   59  184 1    
   122   60   61 2    
   123   60   62 1    
   124   62   63 1    
   125   62   64 1    
   126   62  185 1    
   127   63  186 1    
   128   63  187 1    
   129   63  188 1    
   130   64   65 am   BACKBONE|DICT|INTERRES
   131   64  189 1    
   132   65   66 2    
   133   67   68 2    
   134   67   69 am   BACKBONE|DICT|INTERRES
   135   69   70 1    
   136   69  190 1    
   137   70   71 1    
   138   70   72 1    
   139   70  191 1    
   140   71  192 1    
   141   71  193 1    
   142   71  194 1    
   143   72   73 2    
   144   72   74 am   BACKBONE|DICT|INTERRES
   145   74   75 1    
   146   74  195 1    
   147   75   76 1    
   148   75   77 1    
   149   75  196 1    
   150   76  197 1    
   151   76  198 1    
   152   76  199 1    
   153   77   78 2    
   154   77   79 am   BACKBONE|DICT|INTERRES
   155   79   80 1    
   156   79  200 1    
   157   80   81 1    
   158   80   82 1    
   159   80  201 1    
   160   81  202 1    
   161   81  203 1    
   162   81  204 1    
   163   82   83 2    
   164   82   84 am   BACKBONE|DICT|INTERRES
   165   84   85 1    
   166   84  205 1    
   167   85   86 1    
   168   85   87 1    
   169   85  206 1    
   170   86  207 1    
   171   86  208 1    
   172   86  209 1    
   173   87   88 2    
   174   87   89 am   BACKBONE|DICT|INTERRES
   175   89   90 1    
   176   89  210 1    
   177   90   91 1    
   178   90   92 1    
   179   90  211 1    
   180   91  212 1    
   181   91  213 1    
   182   91  214 1    
   183   92   93 2    
   184   92   94 am   BACKBONE|DICT|INTERRES
   185   94   95 1    
   186   94  215 1    
   187   95   96 1    
   188   95   97 1    
   189   95  216 1    
   190   96  217 1    
   191   96  218 1    
   192   96  219 1    
   193   97   98 2    
   194   97   99 am   BACKBONE|DICT|INTERRES
   195   99  100 1    
   196   99  220 1    
   197  100  101 1    
   198  100  102 1    
   199  100  221 1    
   200  101  222 1    
   201  101  223 1    
   202  101  224 1    
   203  102  103 2    
   204  102  104 am   BACKBONE|DICT|INTERRES
   205  104  105 1    
   206  104  225 1    
   207  105  106 1    
   208  105  107 1    
   209  105  226 1    
   210  106  227 1    
   211  106  228 1    
   212  106  229 1    
   213  107  108 2    
   214  107  109 am   BACKBONE|DICT|INTERRES
   215  109  110 1    
   216  109  230 1    
   217  110  111 1    
   218  110  112 1    
   219  110  231 1    
   220  111  232 1    
   221  111  233 1    
   222  111  234 1    
   223  112  113 2    
   224  112  114 am   BACKBONE|DICT|INTERRES
   225  114  115 1    
   226  114  235 1    
   227  115  116 1    
   228  115  117 1    
   229  115  236 1    
   230  116  237 1    
   231  116  238 1    
   232  116  239 1    
   233  117  118 2    
   234  117  119 am   BACKBONE|DICT|INTERRES
   235  119  120 1    
   236  119  240 1    
   237  120  121 1    
   238  120  124 1    
   239  120  241 1    
   240  121  122 am   BACKBONE|DICT|INTERRES
   241  121  123 2    
   242  122  242 1    
   243  122  243 1    
   244  124  125 1    
   245  124  244 1    
   246  124  245 1    
   247  125  126 1    
   248  126  246 1    
   249  126  247 1    
@<TRIPOS>SUBSTRUCTURE
     1 UNK         1 GROUP             0       ****    0 ROOT    
