@<TRIPOS>MOLECULE
3R540
247   249    1
SMALL
USER_CHARGES


@<TRIPOS>ATOM
      1 CA         -0.9221  -11.7254  -50.7760 C.3       0 UNK        -0.1800 
      2 C          -0.4272  -12.1599  -49.4045 C.2       0 UNK         0.5000 
      3 O           0.2297  -11.3812  -48.7135 O.2       0 UNK        -0.5000 
      4 N          -0.7546  -13.3942  -48.9968 N.am      1 UNK        -0.5000 
      5 CA         -0.3226  -14.0192  -47.7369 C.3       1 UNK         0.1400 
      6 C6         -0.6877  -15.5233  -47.6736 C.3       23 UNK        -0.0398 
      7 S7         -0.1206  -16.5396  -49.0831 S.3       23 UNK        -0.2404 
      8 C8          1.5781  -15.9512  -49.3646 C.3       23 UNK        -0.0205 
      9 C9          2.4139  -17.0096  -50.0620 C.ar      23 UNK        -0.0193 
     10 C10         2.6207  -16.9711  -51.4433 C.ar      23 UNK        -0.1150 
     11 C11         3.4073  -17.9436  -52.0713 C.ar      23 UNK        -0.0193 
     12 C12         3.9810  -18.9647  -51.3040 C.ar      23 UNK        -0.1150 
     13 C13         3.7759  -19.0121  -49.9207 C.ar      23 UNK        -0.0193 
     14 C14         2.9993  -18.0274  -49.3086 C.ar      23 UNK        -0.1150 
     15 C15         4.4053  -20.1065  -49.0711 C.3       23 UNK        -0.0205 
     16 S16         3.3803  -21.6089  -48.9988 S.3       23 UNK        -0.2404 
     17 C17         1.8492  -21.0083  -48.2002 C.3       23 UNK        -0.0398 
     18 CA          0.8535  -22.1648  -47.9554 C.3       11 UNK         0.1400 
     19 N           1.3677  -23.1559  -47.0085 N.am      11 UNK        -0.5000 
     20 C           0.8974  -24.4029  -46.8862 C.2       10 UNK         0.5000 
     21 O          -0.0195  -24.8588  -47.5683 O.2       10 UNK        -0.5000 
     22 CA          1.5341  -25.2693  -45.7847 C.3       10 UNK         0.1400 
     23 CB          2.8537  -25.8854  -46.2729 C.3       10 UNK        -0.1800 
     24 N           1.7752  -24.5135  -44.5543 N.am      10 UNK        -0.5000 
     25 C           0.8032  -24.0221  -43.7735 C.2       9 UNK         0.5000 
     26 O          -0.3967  -24.1979  -43.9859 O.2       9 UNK        -0.5000 
     27 CA          1.2449  -23.1511  -42.5817 C.3       9 UNK         0.1400 
     28 CB          1.5511  -24.0282  -41.3586 C.3       9 UNK        -0.1800 
     29 N           2.3980  -22.2862  -42.8608 N.am      9 UNK        -0.5000 
     30 C           2.4344  -21.3445  -43.8131 C.2       8 UNK         0.5000 
     31 O           1.5385  -21.1752  -44.6402 O.2       8 UNK        -0.5000 
     32 CA          3.7002  -20.4728  -43.8881 C.3       8 UNK         0.1400 
     33 CB          4.6842  -21.0572  -44.9135 C.3       8 UNK        -0.1800 
     34 N           3.3804  -19.0947  -44.2675 N.am      8 UNK        -0.5000 
     35 C           2.6853  -18.2355  -43.5090 C.2       7 UNK         0.5000 
     36 O           2.3228  -18.4912  -42.3576 O.2       7 UNK        -0.5000 
     37 CA          2.3817  -16.8415  -44.1053 C.3       7 UNK         0.1400 
     38 CB          2.5064  -16.7613  -45.6436 C.3       7 UNK        -0.1800 
     39 N           1.0866  -16.3231  -43.6538 N.am      7 UNK        -0.5000 
     40 C          -0.1244  -16.8483  -43.9102 C.2       6 UNK         0.5000 
     41 O          -0.3057  -17.7941  -44.6758 O.2       6 UNK        -0.5000 
     42 CA         -1.3515  -16.2278  -43.2138 C.3       6 UNK         0.1400 
     43 CB         -2.0409  -17.2446  -42.2864 C.3       6 UNK        -0.1800 
     44 N          -1.0137  -15.0274  -42.4542 N.am      6 UNK        -0.5000 
     45 C          -1.8016  -13.9675  -42.2660 C.2       5 UNK         0.5000 
     46 O          -2.9713  -13.9030  -42.6453 O.2       5 UNK        -0.5000 
     47 CA         -1.1631  -12.7619  -41.5496 C.3       5 UNK         0.1400 
     48 CB         -0.9020  -13.0548  -40.0594 C.3       5 UNK        -0.1800 
     49 N           0.0386  -12.2522  -42.2241 N.am      5 UNK        -0.5000 
     50 C           1.2321  -12.8422  -42.4037 C.2       4 UNK         0.5000 
     51 O           1.5197  -13.9530  -41.9505 O.2       4 UNK        -0.5000 
     52 CA          2.2519  -12.0852  -43.2786 C.3       4 UNK         0.1400 
     53 CB          3.2233  -13.0386  -43.9973 C.3       4 UNK        -0.1800 
     54 N           1.5528  -11.2902  -44.2856 N.am      4 UNK        -0.5000 
     55 C           1.5775   -9.9558  -44.3964 C.2       3 UNK         0.5000 
     56 O           2.2731   -9.2235  -43.6922 O.2       3 UNK        -0.5000 
     57 CA          0.6488   -9.3253  -45.4566 C.3       3 UNK         0.1400 
     58 CB          1.4510   -8.9342  -46.7065 C.3       3 UNK        -0.1800 
     59 N          -0.4612  -10.1977  -45.8536 N.am      3 UNK        -0.5000 
     60 C          -1.4692  -10.5670  -45.0470 C.2       2 UNK         0.5000 
     61 O          -1.6016  -10.1512  -43.8956 O.2       2 UNK        -0.5000 
     62 CA         -2.4627  -11.6171  -45.5857 C.3       2 UNK         0.1400 
     63 CB         -3.7181  -10.9306  -46.1430 C.3       2 UNK        -0.1800 
     64 N          -1.9016  -12.4925  -46.6172 N.am      2 UNK        -0.5000 
     65 C          -0.8350  -13.2936  -46.4741 C.2       1 UNK         0.5000 
     66 O          -0.2279  -13.4344  -45.4127 O.2       1 UNK        -0.5000 
     67 C          -0.5350  -21.6493  -47.5272 C.2       11 UNK         0.5000 
     68 O          -1.3925  -21.4524  -48.3847 O.2       11 UNK        -0.5000 
     69 N          -0.7645  -21.5030  -46.2143 N.am      12 UNK        -0.5000 
     70 CA         -2.0644  -21.1773  -45.6244 C.3       12 UNK         0.1400 
     71 CB         -1.9054  -20.9390  -44.1151 C.3       12 UNK        -0.1800 
     72 C          -3.1163  -22.2700  -45.8933 C.2       12 UNK         0.5000 
     73 O          -4.2450  -21.9508  -46.2680 O.2       12 UNK        -0.5000 
     74 N          -2.7171  -23.5417  -45.7456 N.am      13 UNK        -0.5000 
     75 CA         -3.5374  -24.7065  -46.0812 C.3       13 UNK         0.1400 
     76 CB         -2.8489  -25.9858  -45.5834 C.3       13 UNK        -0.1800 
     77 C          -3.8450  -24.7946  -47.5876 C.2       13 UNK         0.5000 
     78 O          -4.9804  -25.0881  -47.9601 O.2       13 UNK        -0.5000 
     79 N          -2.8462  -24.4959  -48.4287 N.am      14 UNK        -0.5000 
     80 CA         -2.9904  -24.4289  -49.8826 C.3       14 UNK         0.1400 
     81 CB         -1.6011  -24.3591  -50.5277 C.3       14 UNK        -0.1800 
     82 C          -3.8892  -23.2612  -50.3401 C.2       14 UNK         0.5000 
     83 O          -4.6427  -23.4174  -51.2989 O.2       14 UNK        -0.5000 
     84 N          -3.8337  -22.1261  -49.6289 N.am      15 UNK        -0.5000 
     85 CA         -4.7059  -20.9706  -49.8381 C.3       15 UNK         0.1400 
     86 CB         -4.1785  -19.7608  -49.0518 C.3       15 UNK        -0.1800 
     87 C          -6.1667  -21.2723  -49.4618 C.2       15 UNK         0.5000 
     88 O          -7.0747  -20.8632  -50.1854 O.2       15 UNK        -0.5000 
     89 N          -6.3726  -22.0183  -48.3668 N.am      16 UNK        -0.5000 
     90 CA         -7.6834  -22.5288  -47.9578 C.3       16 UNK         0.1400 
     91 CB         -7.5845  -23.1529  -46.5580 C.3       16 UNK        -0.1800 
     92 C          -8.2673  -23.5295  -48.9754 C.2       16 UNK         0.5000 
     93 O          -9.4754  -23.5193  -49.2170 O.2       16 UNK        -0.5000 
     94 N          -7.3961  -24.3323  -49.6009 N.am      17 UNK        -0.5000 
     95 CA         -7.7036  -25.2472  -50.7002 C.3       17 UNK         0.1400 
     96 CB         -6.6246  -26.3433  -50.7530 C.3       17 UNK        -0.1800 
     97 C          -7.8732  -24.5075  -52.0478 C.2       17 UNK         0.5000 
     98 O          -7.1466  -24.7789  -53.0051 O.2       17 UNK        -0.5000 
     99 N          -8.8563  -23.5985  -52.0958 N.am      18 UNK        -0.5000 
    100 CA        -9.3279  -22.8525  -53.2671 C.3       18 UNK         0.1400 
    101 CB        -9.9648  -23.8087  -54.2984 C.3       18 UNK        -0.1800 
    102 C         -8.2712  -21.9113  -53.8854 C.2       18 UNK         0.5000 
    103 O         -8.1257  -21.8645  -55.1084 O.2       18 UNK        -0.5000 
    104 N         -7.5820  -21.1476  -53.0251 N.am      19 UNK        -0.5000 
    105 CA        -6.6677  -20.0460  -53.3547 C.3       19 UNK         0.1400 
    106 CB        -7.4183  -18.9064  -54.0762 C.3       19 UNK        -0.1800 
    107 C         -5.3790  -20.4639  -54.0924 C.2       19 UNK         0.5000 
    108 O         -4.7239  -19.6148  -54.6985 O.2       19 UNK        -0.5000 
    109 N         -4.9852  -21.7388  -53.9889 N.am      20 UNK        -0.5000 
    110 CA        -3.7699  -22.3009  -54.5864 C.3       20 UNK         0.1400 
    111 CB        -4.0142  -23.7956  -54.8618 C.3       20 UNK        -0.1800 
    112 C         -2.5220  -22.0595  -53.7062 C.2       20 UNK         0.5000 
    113 O         -1.6921  -22.9573  -53.5644 O.2       20 UNK        -0.5000 
    114 N         -2.4256  -20.8584  -53.1169 N.am      21 UNK        -0.5000 
    115 CA        -1.5352  -20.4681  -52.0180 C.3       21 UNK         0.1400 
    116 CB        -1.6785  -18.9587  -51.7759 C.3       21 UNK        -0.1800 
    117 C         -0.0531  -20.8414  -52.1807 C.2       21 UNK         0.5000 
    118 O          0.5626  -21.2929  -51.2180 O.2       21 UNK        -0.5000 
    119 N          0.4845  -20.6653  -53.3912 N.am      22 UNK        -0.5000 
    120 CA         1.8831  -20.9862  -53.7147 C.3       22 UNK         0.1400 
    121 C          2.1467  -22.4938  -54.0083 C.2       22 UNK         0.5000 
    122 N          1.1472  -23.3686  -54.0114 N.am      22 UNK        -0.7600 
    123 O          3.2895  -22.8825  -54.2347 O.2       22 UNK        -0.5000 
    124 C124        2.4433  -20.0850  -54.8441 C.3       23 UNK        -0.0398 
    125 S125        2.1991  -18.2970  -54.5542 S.3       23 UNK        -0.2404 
    126 C126        3.6669  -17.8538  -53.5695 C.3       23 UNK        -0.0205 
    127 H127       -0.0769  -11.4680  -51.4141 H         1 UNK         0.0600 
    128 H128       -1.5608  -10.8472  -50.6830 H         1 UNK         0.0600 
    129 H129       -1.4935  -12.5124  -51.2689 H         1 UNK         0.0600 
    130 H130       -1.2944  -13.9890  -49.6100 H         1 UNK         0.3000 
    131 H131        0.7635  -13.9267  -47.6958 H         1 UNK         0.0600 
    132 H132       -1.7693  -15.6479  -47.5963 H         1 UNK         0.0800 
    133 H133       -0.2704  -15.9703  -46.7707 H         1 UNK         0.0800 
    134 H134        1.5548  -15.0313  -49.9509 H         1 UNK         0.0800 
    135 H135        2.0505  -15.7044  -48.4140 H         1 UNK         0.0800 
    136 H136        2.1757  -16.1808  -52.0316 H         1 UNK         0.1150 
    137 H137        4.5918  -19.7191  -51.7796 H         1 UNK         0.1150 
    138 H138        2.8410  -18.0588  -48.2411 H         1 UNK         0.1150 
    139 H139        5.3827  -20.3685  -49.4787 H         1 UNK         0.0800 
    140 H140        4.5880  -19.7446  -48.0583 H         1 UNK         0.0800 
    141 H141        1.3962  -20.2625  -48.8556 H         1 UNK         0.0800 
    142 H142        2.0960  -20.4983  -47.2678 H         1 UNK         0.0800 
    143 H143        0.7093  -22.6747  -48.9102 H         1 UNK         0.0600 
    144 H144        2.0837  -22.8385  -46.3729 H         1 UNK         0.3000 
    145 H145        0.8408  -26.0818  -45.5565 H         1 UNK         0.0600 
    146 H146        3.2753  -26.5576  -45.5254 H         1 UNK         0.0600 
    147 H147        2.6984  -26.4679  -47.1820 H         1 UNK         0.0600 
    148 H148        3.5990  -25.1209  -46.4965 H         1 UNK         0.0600 
    149 H149        2.7355  -24.3238  -44.3091 H         1 UNK         0.3000 
    150 H150        0.4060  -22.5001  -42.3281 H         1 UNK         0.0600 
    151 H151        2.4117  -24.6755  -41.5318 H         1 UNK         0.0600 
    152 H152        0.7022  -24.6686  -41.1149 H         1 UNK         0.0600 
    153 H153        1.7593  -23.4196  -40.4784 H         1 UNK         0.0600 
    154 H154        3.1844  -22.3761  -42.2336 H         1 UNK         0.3000 
    155 H155        4.1804  -20.4562  -42.9076 H         1 UNK         0.0600 
    156 H156        4.2484  -21.1009  -45.9121 H         1 UNK         0.0600 
    157 H157        4.9775  -22.0716  -44.6404 H         1 UNK         0.0600 
    158 H158        5.5956  -20.4618  -44.9710 H         1 UNK         0.0600 
    159 H159        3.6254  -18.8187  -45.2056 H         1 UNK         0.3000 
    160 H160        3.1305  -16.1705  -43.6829 H         1 UNK         0.0600 
    161 H161        1.8614  -17.4846  -46.1434 H         1 UNK         0.0600 
    162 H162        3.5306  -16.9428  -45.9706 H         1 UNK         0.0600 
    163 H163        2.2307  -15.7698  -46.0015 H         1 UNK         0.0600 
    164 H164        1.1598  -15.5359  -43.0210 H         1 UNK         0.3000 
    165 H165       -2.0461  -15.9552  -44.0112 H         1 UNK         0.0600 
    166 H166       -2.9446  -16.8271  -41.8425 H         1 UNK         0.0600 
    167 H167       -2.3351  -18.1397  -42.8352 H         1 UNK         0.0600 
    168 H168       -1.3807  -17.5564  -41.4763 H         1 UNK         0.0600 
    169 H169       -0.0628  -14.9473  -42.1105 H         1 UNK         0.3000 
    170 H170       -1.8909  -11.9501  -41.5966 H         1 UNK         0.0600 
    171 H171       -1.8243  -13.3462  -39.5555 H         1 UNK         0.0600 
    172 H172       -0.1853  -13.8633  -39.9151 H         1 UNK         0.0600 
    173 H173       -0.5175  -12.1725  -39.5478 H         1 UNK         0.0600 
    174 H174       -0.1009  -11.3629  -42.6873 H         1 UNK         0.3000 
    175 H175        2.8289  -11.4448  -42.6090 H         1 UNK         0.0600 
    176 H176        2.6909  -13.7305  -44.6505 H         1 UNK         0.0600 
    177 H177        3.9363  -12.4850  -44.6082 H         1 UNK         0.0600 
    178 H178        3.7995  -13.6293  -43.2842 H         1 UNK         0.0600 
    179 H179        0.9225  -11.8177  -44.8810 H         1 UNK         0.3000 
    180 H180        0.2251   -8.4168  -45.0237 H         1 UNK         0.0600 
    181 H181        1.9138   -9.8040  -47.1743 H         1 UNK         0.0600 
    182 H182        2.2484   -8.2333  -46.4561 H         1 UNK         0.0600 
    183 H183        0.8158   -8.4520  -47.4498 H         1 UNK         0.0600 
    184 H184       -0.4057  -10.5969  -46.7841 H         1 UNK         0.3000 
    185 H185       -2.7604  -12.2459  -44.7458 H         1 UNK         0.0600 
    186 H186       -4.1792  -10.2890  -45.3908 H         1 UNK         0.0600 
    187 H187       -3.4856  -10.3081  -47.0081 H         1 UNK         0.0600 
    188 H188       -4.4671  -11.6625  -46.4459 H         1 UNK         0.0600 
    189 H189       -2.3227  -12.4327  -47.5328 H         1 UNK         0.3000 
    190 H190        0.0192  -21.5959  -45.5718 H         1 UNK         0.3000 
    191 H191       -2.4119  -20.2491  -46.0826 H         1 UNK         0.0600 
    192 H192       -1.1371  -20.1945  -43.9089 H         1 UNK         0.0600 
    193 H193       -2.8376  -20.5776  -43.6799 H         1 UNK         0.0600 
    194 H194       -1.6311  -21.8514  -43.5869 H         1 UNK         0.0600 
    195 H195       -1.7885  -23.7255  -45.3793 H         1 UNK         0.3000 
    196 H196       -4.4890  -24.6078  -45.5547 H         1 UNK         0.0600 
    197 H197       -3.4553  -26.8656  -45.8021 H         1 UNK         0.0600 
    198 H198       -2.6956  -25.9554  -44.5045 H         1 UNK         0.0600 
    199 H199       -1.8764  -26.1314  -46.0539 H         1 UNK         0.0600 
    200 H200       -1.9204  -24.3223  -48.0515 H         1 UNK         0.3000 
    201 H201       -3.4594  -25.3590  -50.2083 H         1 UNK         0.0600 
    202 H202       -1.6712  -24.5278  -51.6005 H         1 UNK         0.0600 
    203 H203       -0.9372  -25.1271  -50.1314 H         1 UNK         0.0600 
    204 H204       -1.1273  -23.3902  -50.3711 H         1 UNK         0.0600 
    205 H205       -3.1182  -22.0337  -48.9126 H         1 UNK         0.3000 
    206 H206       -4.6752  -20.7220  -50.9002 H         1 UNK         0.0600 
    207 H207       -4.2248  -19.9248  -47.9757 H         1 UNK         0.0600 
    208 H208       -4.7661  -18.8689  -49.2720 H         1 UNK         0.0600 
    209 H209       -3.1427  -19.5391  -49.3060 H         1 UNK         0.0600 
    210 H210       -5.5782  -22.2641  -47.7849 H         1 UNK         0.3000 
    211 H211       -8.3676  -21.6798  -47.9004 H         1 UNK         0.0600 
    212 H212       -6.9220  -24.0177  -46.5443 H         1 UNK         0.0600 
    213 H213       -8.5634  -23.4855  -46.2107 H         1 UNK         0.0600 
    214 H214       -7.2079  -22.4328  -45.8313 H         1 UNK         0.0600 
    215 H215       -6.4250  -24.2930  -49.3142 H         1 UNK         0.3000 
    216 H216       -8.6543  -25.7386  -50.4836 H         1 UNK         0.0600 
    217 H217       -6.8635  -27.0902  -51.5109 H         1 UNK         0.0600 
    218 H218       -6.5418  -26.8631  -49.7983 H         1 UNK         0.0600 
    219 H219       -5.6453  -25.9325  -50.9958 H         1 UNK         0.0600 
    220 H220       -9.3610  -23.4296  -51.2311 H         1 UNK         0.3000 
    221 H221      -10.1229  -22.2005  -52.9025 H         1 UNK         0.0600 
    222 H222       -9.2249  -24.4704  -54.7496 H         1 UNK         0.0600 
    223 H223      -10.7341  -24.4292  -53.8387 H         1 UNK         0.0600 
    224 H224      -10.4403  -23.2519  -55.1067 H         1 UNK         0.0600 
    225 H225       -7.7271  -21.2833  -52.0288 H         1 UNK         0.3000 
    226 H226       -6.3322  -19.6416  -52.4001 H         1 UNK         0.0600 
    227 H227       -8.3109  -18.6110  -53.5247 H         1 UNK         0.0600 
    228 H228       -6.7906  -18.0195  -54.1691 H         1 UNK         0.0600 
    229 H229       -7.7243  -19.1943  -55.0823 H         1 UNK         0.0600 
    230 H230       -5.5308  -22.3717  -53.4173 H         1 UNK         0.3000 
    231 H231       -3.5838  -21.8142  -55.5458 H         1 UNK         0.0600 
    232 H232       -4.1748  -24.3512  -53.9366 H         1 UNK         0.0600 
    233 H233       -3.1650  -24.2470  -55.3762 H         1 UNK         0.0600 
    234 H234       -4.8906  -23.9418  -55.4935 H         1 UNK         0.0600 
    235 H235       -3.1241  -20.1756  -53.3814 H         1 UNK         0.3000 
    236 H236       -1.8899  -20.9854  -51.1273 H         1 UNK         0.0600 
    237 H237       -1.0807  -18.6501  -50.9182 H         1 UNK         0.0600 
    238 H238       -2.7122  -18.6823  -51.5688 H         1 UNK         0.0600 
    239 H239       -1.3418  -18.3789  -52.6362 H         1 UNK         0.0600 
    240 H240       -0.0878  -20.3055  -54.1398 H         1 UNK         0.3000 
    241 H241        2.4797  -20.7714  -52.8274 H         1 UNK         0.0600 
    242 H242        0.1921  -23.0844  -53.8082 H         1 UNK         0.3800 
    243 H243        1.3430  -24.3382  -54.2005 H         1 UNK         0.3800 
    244 H244        3.5069  -20.2746  -54.9969 H         1 UNK         0.0800 
    245 H245        1.9584  -20.3329  -55.7896 H         1 UNK         0.0800 
    246 H246        4.5185  -18.4719  -53.8570 H         1 UNK         0.0800 
    247 H247        3.9477  -16.8283  -53.8137 H         1 UNK         0.0800 
@<TRIPOS>BOND
     1    1    2 1    
     2    1  127 1    
     3    1  128 1    
     4    1  129 1    
     5    2    3 2    
     6    2    4 am   BACKBONE|DICT|INTERRES
     7    4    5 1    
     8    4  130 1    
     9    5    6 1    
    10    5   65 1    
    11    5  131 1    
    12    6    7 1    
    13    6  132 1    
    14    6  133 1    
    15    7    8 1    
    16    8    9 1    
    17    8  134 1    
    18    8  135 1    
    19    9   10 ar   
    20    9   14 ar   
    21   10   11 ar   
    22   10  136 1    
    23   11   12 ar   
    24   11  126 1    
    25   12   13 ar   
    26   12  137 1    
    27   13   14 ar   
    28   13   15 1    
    29   14  138 1    
    30   15   16 1    
    31   15  139 1    
    32   15  140 1    
    33   16   17 1    
    34   17   18 1    
    35   17  141 1    
    36   17  142 1    
    37   18   19 1    
    38   18   67 1    
    39   18  143 1    
    40   19   20 am   BACKBONE|DICT|INTERRES
    41   19  144 1    
    42   20   21 2    
    43   20   22 1    
    44   22   23 1    
    45   22   24 1    
    46   22  145 1    
    47   23  146 1    
    48   23  147 1    
    49   23  148 1    
    50   24   25 am   BACKBONE|DICT|INTERRES
    51   24  149 1    
    52   25   26 2    
    53   25   27 1    
    54   27   28 1    
    55   27   29 1    
    56   27  150 1    
    57   28  151 1    
    58   28  152 1    
    59   28  153 1    
    60   29   30 am   BACKBONE|DICT|INTERRES
    61   29  154 1    
    62   30   31 2    
    63   30   32 1    
    64   32   33 1    
    65   32   34 1    
    66   32  155 1    
    67   33  156 1    
    68   33  157 1    
    69   33  158 1    
    70   34   35 am   BACKBONE|DICT|INTERRES
    71   34  159 1    
    72   35   36 2    
    73   35   37 1    
    74   37   38 1    
    75   37   39 1    
    76   37  160 1    
    77   38  161 1    
    78   38  162 1    
    79   38  163 1    
    80   39   40 am   BACKBONE|DICT|INTERRES
    81   39  164 1    
    82   40   41 2    
    83   40   42 1    
    84   42   43 1    
    85   42   44 1    
    86   42  165 1    
    87   43  166 1    
    88   43  167 1    
    89   43  168 1    
    90   44   45 am   BACKBONE|DICT|INTERRES
    91   44  169 1    
    92   45   46 2    
    93   45   47 1    
    94   47   48 1    
    95   47   49 1    
    96   47  170 1    
    97   48  171 1    
    98   48  172 1    
    99   48  173 1    
   100   49   50 am   BACKBONE|DICT|INTERRES
   101   49  174 1    
   102   50   51 2    
   103   50   52 1    
   104   52   53 1    
   105   52   54 1    
   106   52  175 1    
   107   53  176 1    
   108   53  177 1    
   109   53  178 1    
   110   54   55 am   BACKBONE|DICT|INTERRES
   111   54  179 1    
   112   55   56 2    
   113   55   57 1    
   114   57   58 1    
   115   57   59 1    
   116   57  180 1    
   117   58  181 1    
   118   58  182 1    
   119   58  183 1    
   120   59   60 am   BACKBONE|DICT|INTERRES
   121   59  184 1    
   122   60   61 2    
   123   60   62 1    
   124   62   63 1    
   125   62   64 1    
   126   62  185 1    
   127   63  186 1    
   128   63  187 1    
   129   63  188 1    
   130   64   65 am   BACKBONE|DICT|INTERRES
   131   64  189 1    
   132   65   66 2    
   133   67   68 2    
   134   67   69 am   BACKBONE|DICT|INTERRES
   135   69   70 1    
   136   69  190 1    
   137   70   71 1    
   138   70   72 1    
   139   70  191 1    
   140   71  192 1    
   141   71  193 1    
   142   71  194 1    
   143   72   73 2    
   144   72   74 am   BACKBONE|DICT|INTERRES
   145   74   75 1    
   146   74  195 1    
   147   75   76 1    
   148   75   77 1    
   149   75  196 1    
   150   76  197 1    
   151   76  198 1    
   152   76  199 1    
   153   77   78 2    
   154   77   79 am   BACKBONE|DICT|INTERRES
   155   79   80 1    
   156   79  200 1    
   157   80   81 1    
   158   80   82 1    
   159   80  201 1    
   160   81  202 1    
   161   81  203 1    
   162   81  204 1    
   163   82   83 2    
   164   82   84 am   BACKBONE|DICT|INTERRES
   165   84   85 1    
   166   84  205 1    
   167   85   86 1    
   168   85   87 1    
   169   85  206 1    
   170   86  207 1    
   171   86  208 1    
   172   86  209 1    
   173   87   88 2    
   174   87   89 am   BACKBONE|DICT|INTERRES
   175   89   90 1    
   176   89  210 1    
   177   90   91 1    
   178   90   92 1    
   179   90  211 1    
   180   91  212 1    
   181   91  213 1    
   182   91  214 1    
   183   92   93 2    
   184   92   94 am   BACKBONE|DICT|INTERRES
   185   94   95 1    
   186   94  215 1    
   187   95   96 1    
   188   95   97 1    
   189   95  216 1    
   190   96  217 1    
   191   96  218 1    
   192   96  219 1    
   193   97   98 2    
   194   97   99 am   BACKBONE|DICT|INTERRES
   195   99  100 1    
   196   99  220 1    
   197  100  101 1    
   198  100  102 1    
   199  100  221 1    
   200  101  222 1    
   201  101  223 1    
   202  101  224 1    
   203  102  103 2    
   204  102  104 am   BACKBONE|DICT|INTERRES
   205  104  105 1    
   206  104  225 1    
   207  105  106 1    
   208  105  107 1    
   209  105  226 1    
   210  106  227 1    
   211  106  228 1    
   212  106  229 1    
   213  107  108 2    
   214  107  109 am   BACKBONE|DICT|INTERRES
   215  109  110 1    
   216  109  230 1    
   217  110  111 1    
   218  110  112 1    
   219  110  231 1    
   220  111  232 1    
   221  111  233 1    
   222  111  234 1    
   223  112  113 2    
   224  112  114 am   BACKBONE|DICT|INTERRES
   225  114  115 1    
   226  114  235 1    
   227  115  116 1    
   228  115  117 1    
   229  115  236 1    
   230  116  237 1    
   231  116  238 1    
   232  116  239 1    
   233  117  118 2    
   234  117  119 am   BACKBONE|DICT|INTERRES
   235  119  120 1    
   236  119  240 1    
   237  120  121 1    
   238  120  124 1    
   239  120  241 1    
   240  121  122 am   BACKBONE|DICT|INTERRES
   241  121  123 2    
   242  122  242 1    
   243  122  243 1    
   244  124  125 1    
   245  124  244 1    
   246  124  245 1    
   247  125  126 1    
   248  126  246 1    
   249  126  247 1    
@<TRIPOS>SUBSTRUCTURE
     1 UNK         1 GROUP             0       ****    0 ROOT    
