@<TRIPOS>MOLECULE
3R540
247   249    1
SMALL
USER_CHARGES


@<TRIPOS>ATOM
      1 CA         -0.7328  -16.1667  -47.2894 C.3       0 UNK        -0.1800 
      2 C          -0.8254  -14.8050  -47.9568 C.2       0 UNK         0.5000 
      3 O          -1.5133  -13.9207  -47.4481 O.2       0 UNK        -0.5000 
      4 N          -0.1148  -14.6186  -49.0774 N.am      1 UNK        -0.5000 
      5 CA         -0.1226  -13.3901  -49.8908 C.3       1 UNK         0.1400 
      6 C6          0.5852  -13.5760  -51.2558 C.3       23 UNK        -0.0398 
      7 S7         -0.0802  -14.9944  -52.1925 S.3       23 UNK        -0.2404 
      8 C8          1.4017  -16.0166  -52.4450 C.3       23 UNK        -0.0205 
      9 C9          1.0467  -17.4932  -52.4472 C.ar      23 UNK        -0.0193 
     10 C10         0.6530  -18.1317  -53.6259 C.ar      23 UNK        -0.1150 
     11 C11         0.3444  -19.4962  -53.6307 C.ar      23 UNK        -0.0193 
     12 C12         0.4479  -20.2181  -52.4333 C.ar      23 UNK        -0.1150 
     13 C13         0.8374  -19.5930  -51.2445 C.ar      23 UNK        -0.0193 
     14 C14         1.1369  -18.2275  -51.2639 C.ar      23 UNK        -0.1150 
     15 C15         1.0071  -20.4220  -49.9738 C.3       23 UNK        -0.0205 
     16 S16         0.5374  -19.5474  -48.4399 S.3       23 UNK        -0.2404 
     17 C17        -0.9457  -20.4608  -47.9050 C.3       23 UNK        -0.0398 
     18 CA         -0.5807  -21.7838  -47.1921 C.3       11 UNK         0.1400 
     19 N           0.2385  -21.5974  -45.9884 N.am      11 UNK        -0.5000 
     20 C           0.9063  -22.5882  -45.3797 C.2       10 UNK         0.5000 
     21 O           0.8627  -23.7620  -45.7476 O.2       10 UNK        -0.5000 
     22 CA          1.7138  -22.2258  -44.1230 C.3       10 UNK         0.1400 
     23 CB          2.9811  -21.4351  -44.4815 C.3       10 UNK        -0.1800 
     24 N           0.9087  -21.4854  -43.1536 N.am      10 UNK        -0.5000 
     25 C          -0.1404  -22.0041  -42.4991 C.2       9 UNK         0.5000 
     26 O          -0.4902  -23.1810  -42.5951 O.2       9 UNK        -0.5000 
     27 CA         -0.9557  -21.0465  -41.6104 C.3       9 UNK         0.1400 
     28 CB         -0.3272  -20.9413  -40.2131 C.3       9 UNK        -0.1800 
     29 N          -1.1021  -19.7081  -42.1855 N.am      9 UNK        -0.5000 
     30 C          -1.7391  -19.4370  -43.3341 C.2       8 UNK         0.5000 
     31 O          -2.2991  -20.2874  -44.0236 O.2       8 UNK        -0.5000 
     32 CA         -1.6893  -17.9821  -43.8324 C.3       8 UNK         0.1400 
     33 CB         -2.6828  -17.0961  -43.0672 C.3       8 UNK        -0.1800 
     34 N          -0.3479  -17.4083  -43.7444 N.am      8 UNK        -0.5000 
     35 C           0.7250  -17.8877  -44.3892 C.2       7 UNK         0.5000 
     36 O           0.6911  -18.8511  -45.1528 O.2       7 UNK        -0.5000 
     37 CA          2.0681  -17.2059  -44.0866 C.3       7 UNK         0.1400 
     38 CB          2.2021  -15.8807  -44.8552 C.3       7 UNK        -0.1800 
     39 N           2.2379  -16.9745  -42.6518 N.am      7 UNK        -0.5000 
     40 C           2.4062  -17.9504  -41.7470 C.2       6 UNK         0.5000 
     41 O           2.4813  -19.1448  -42.0339 O.2       6 UNK        -0.5000 
     42 CA          2.4603  -17.5213  -40.2697 C.3       6 UNK         0.1400 
     43 CB          3.8746  -17.0569  -39.8913 C.3       6 UNK        -0.1800 
     44 N           1.5011  -16.4613  -39.9566 N.am      6 UNK        -0.5000 
     45 C           0.1692  -16.6129  -39.9809 C.2       5 UNK         0.5000 
     46 O          -0.3945  -17.6743  -40.2430 O.2       5 UNK        -0.5000 
     47 CA         -0.6732  -15.3512  -39.7182 C.3       5 UNK         0.1400 
     48 CB         -0.8743  -15.1384  -38.2105 C.3       5 UNK        -0.1800 
     49 N          -0.0966  -14.1405  -40.3106 N.am      5 UNK        -0.5000 
     50 C           0.0916  -13.9592  -41.6237 C.2       4 UNK         0.5000 
     51 O          -0.1733  -14.8100  -42.4769 O.2       4 UNK        -0.5000 
     52 CA          0.7408  -12.6335  -42.0496 C.3       4 UNK         0.1400 
     53 CB          2.2675  -12.7903  -42.1303 C.3       4 UNK        -0.1800 
     54 N           0.2425  -12.2194  -43.3571 N.am      4 UNK        -0.5000 
     55 C          -0.9376  -11.6271  -43.5792 C.2       3 UNK         0.5000 
     56 O          -1.7038  -11.2893  -42.6750 O.2       3 UNK        -0.5000 
     57 CA         -1.3446  -11.3938  -45.0517 C.3       3 UNK         0.1400 
     58 CB         -2.0127  -10.0202  -45.2690 C.3       3 UNK        -0.1800 
     59 N          -0.2646  -11.6199  -46.0224 N.am      3 UNK        -0.5000 
     60 C           0.8632  -10.9082  -46.1885 C.2       2 UNK         0.5000 
     61 O           1.1452   -9.9081  -45.5286 O.2       2 UNK        -0.5000 
     62 CA          1.8737  -11.4159  -47.2396 C.3       2 UNK         0.1400 
     63 CB          3.1026  -12.0236  -46.5428 C.3       2 UNK        -0.1800 
     64 N           1.3159  -12.4183  -48.1486 N.am      2 UNK        -0.5000 
     65 C           0.4595  -12.1657  -49.1487 C.2       1 UNK         0.5000 
     66 O           0.1089  -11.0315  -49.4758 O.2       1 UNK        -0.5000 
     67 C          -1.8345  -22.6409  -46.9351 C.2       11 UNK         0.5000 
     68 O          -2.2662  -23.3440  -47.8488 O.2       11 UNK        -0.5000 
     69 N          -2.3762  -22.6219  -45.7084 N.am      12 UNK        -0.5000 
     70 CA         -3.4599  -23.5041  -45.2649 C.3       12 UNK         0.1400 
     71 CB         -3.9075  -23.1226  -43.8469 C.3       12 UNK        -0.1800 
     72 C          -3.0981  -24.9991  -45.3406 C.2       12 UNK         0.5000 
     73 O          -3.9670  -25.8131  -45.6526 O.2       12 UNK        -0.5000 
     74 N          -1.8246  -25.3259  -45.0884 N.am      13 UNK        -0.5000 
     75 CA         -1.2831  -26.6742  -45.2227 C.3       13 UNK         0.1400 
     76 CB         -0.1440  -26.8653  -44.2083 C.3       13 UNK        -0.1800 
     77 C          -0.7932  -26.9449  -46.6557 C.2       13 UNK         0.5000 
     78 O          -1.1429  -27.9743  -47.2337 O.2       13 UNK        -0.5000 
     79 N           0.0249  -26.0306  -47.1938 N.am      14 UNK        -0.5000 
     80 CA          0.7678  -26.2196  -48.4406 C.3       14 UNK         0.1400 
     81 CB          1.9359  -25.2215  -48.4815 C.3       14 UNK        -0.1800 
     82 C          -0.0792  -26.0898  -49.7181 C.2       14 UNK         0.5000 
     83 O           0.2292  -26.7572  -50.7064 O.2       14 UNK        -0.5000 
     84 N          -1.0985  -25.2232  -49.6943 N.am      15 UNK        -0.5000 
     85 CA         -1.8907  -24.8414  -50.8660 C.3       15 UNK         0.1400 
     86 CB         -1.4784  -23.4199  -51.2914 C.3       15 UNK        -0.1800 
     87 C          -3.4036  -24.9272  -50.6057 C.2       15 UNK         0.5000 
     88 O          -4.1773  -24.4039  -51.4062 O.2       15 UNK        -0.5000 
     89 N          -3.8127  -25.5391  -49.4832 N.am      16 UNK        -0.5000 
     90 CA         -5.2000  -25.6488  -49.0069 C.3       16 UNK         0.1400 
     91 CB         -6.0072  -26.6053  -49.9093 C.3       16 UNK        -0.1800 
     92 C          -5.8892  -24.2756  -48.8207 C.2       16 UNK         0.5000 
     93 O          -7.0953  -24.1522  -49.0380 O.2       16 UNK        -0.5000 
     94 N          -5.0882  -23.2685  -48.4420 N.am      17 UNK        -0.5000 
     95 CA         -5.4239  -21.8551  -48.2419 C.3       17 UNK         0.1400 
     96 CB         -6.5575  -21.6736  -47.2101 C.3       17 UNK        -0.1800 
     97 C          -5.6852  -21.0710  -49.5441 C.2       17 UNK         0.5000 
     98 O          -6.0862  -19.9086  -49.4681 O.2       17 UNK        -0.5000 
     99 N          -5.4120  -21.6648  -50.7153 N.am      18 UNK        -0.5000 
    100 CA        -5.5776  -21.0405  -52.0312 C.3       18 UNK         0.1400 
    101 CB        -5.8178  -22.1377  -53.0843 C.3       18 UNK        -0.1800 
    102 C         -4.3942  -20.1190  -52.3992 C.2       18 UNK         0.5000 
    103 O         -3.8624  -20.2111  -53.5055 O.2       18 UNK        -0.5000 
    104 N         -3.9986  -19.2333  -51.4748 N.am      19 UNK        -0.5000 
    105 CA        -2.9531  -18.2293  -51.6740 C.3       19 UNK         0.1400 
    106 CB        -2.6972  -17.4852  -50.3549 C.3       19 UNK        -0.1800 
    107 C         -3.3329  -17.2613  -52.8113 C.2       19 UNK         0.5000 
    108 O         -4.4133  -16.6689  -52.7695 O.2       19 UNK        -0.5000 
    109 N         -2.4582  -17.1785  -53.8225 N.am      20 UNK        -0.5000 
    110 CA        -2.6285  -16.4762  -55.1019 C.3       20 UNK         0.1400 
    111 CB        -2.8172  -14.9576  -54.8972 C.3       20 UNK        -0.1800 
    112 C         -3.7202  -17.0824  -56.0145 C.2       20 UNK         0.5000 
    113 O         -4.1495  -16.4212  -56.9616 O.2       20 UNK        -0.5000 
    114 N         -4.1374  -18.3262  -55.7435 N.am      21 UNK        -0.5000 
    115 CA        -5.1715  -19.0526  -56.4818 C.3       21 UNK         0.1400 
    116 CB        -6.5058  -18.9434  -55.7203 C.3       21 UNK        -0.1800 
    117 C         -4.7468  -20.5109  -56.7438 C.2       21 UNK         0.5000 
    118 O         -5.6045  -21.3811  -56.9022 O.2       21 UNK        -0.5000 
    119 N         -3.4299  -20.7541  -56.7887 N.am      22 UNK        -0.5000 
    120 CA        -2.8180  -22.0795  -56.9898 C.3       22 UNK         0.1400 
    121 C         -2.9563  -22.6559  -58.4311 C.2       22 UNK         0.5000 
    122 N         -3.3608  -21.8780  -59.4279 N.am      22 UNK        -0.7600 
    123 O         -2.6936  -23.8357  -58.6484 O.2       22 UNK        -0.5000 
    124 C124       -1.3337  -22.1069  -56.5398 C.3       23 UNK        -0.0398 
    125 S125       -1.1045  -21.6338  -54.7919 S.3       23 UNK        -0.2404 
    126 C126       -0.0372  -20.1618  -54.9539 C.3       23 UNK        -0.0205 
    127 H127       -1.5927  -16.7804  -47.5555 H         1 UNK         0.0600 
    128 H128       -0.7234  -16.0452  -46.2074 H         1 UNK         0.0600 
    129 H129        0.1748  -16.6952  -47.5797 H         1 UNK         0.0600 
    130 H130        0.4199  -15.3858  -49.4579 H         1 UNK         0.3000 
    131 H131       -1.1700  -13.1569  -50.0950 H         1 UNK         0.0600 
    132 H132        0.4526  -12.6853  -51.8728 H         1 UNK         0.0800 
    133 H133        1.6618  -13.6864  -51.1181 H         1 UNK         0.0800 
    134 H134        2.1390  -15.8256  -51.6643 H         1 UNK         0.0800 
    135 H135        1.8752  -15.7380  -53.3876 H         1 UNK         0.0800 
    136 H136        0.6031  -17.5637  -54.5448 H         1 UNK         0.1150 
    137 H137        0.2476  -21.2788  -52.4263 H         1 UNK         0.1150 
    138 H138        1.4626  -17.7348  -50.3592 H         1 UNK         0.1150 
    139 H139        0.4476  -21.3543  -50.0536 H         1 UNK         0.0800 
    140 H140        2.0569  -20.7060  -49.8944 H         1 UNK         0.0800 
    141 H141       -1.5747  -20.6404  -48.7794 H         1 UNK         0.0800 
    142 H142       -1.5201  -19.8162  -47.2372 H         1 UNK         0.0800 
    143 H143        0.0257  -22.3637  -47.8905 H         1 UNK         0.0600 
    144 H144        0.3369  -20.6439  -45.6450 H         1 UNK         0.3000 
    145 H145        2.0280  -23.1597  -43.6521 H         1 UNK         0.0600 
    146 H146        3.5875  -21.2427  -43.5964 H         1 UNK         0.0600 
    147 H147        3.6005  -21.9923  -45.1853 H         1 UNK         0.0600 
    148 H148        2.7484  -20.4750  -44.9409 H         1 UNK         0.0600 
    149 H149        1.1641  -20.5184  -42.9901 H         1 UNK         0.3000 
    150 H150       -1.9560  -21.4704  -41.5014 H         1 UNK         0.0600 
    151 H151       -0.2144  -21.9265  -39.7588 H         1 UNK         0.0600 
    152 H152       -0.9493  -20.3451  -39.5454 H         1 UNK         0.0600 
    153 H153        0.6605  -20.4804  -40.2507 H         1 UNK         0.0600 
    154 H154       -0.7014  -18.9408  -41.6526 H         1 UNK         0.3000 
    155 H155       -1.9783  -17.9836  -44.8855 H         1 UNK         0.0600 
    156 H156       -2.4401  -17.0413  -42.0060 H         1 UNK         0.0600 
    157 H157       -3.6981  -17.4848  -43.1529 H         1 UNK         0.0600 
    158 H158       -2.6875  -16.0795  -43.4613 H         1 UNK         0.0600 
    159 H159       -0.2414  -16.5821  -43.1613 H         1 UNK         0.3000 
    160 H160        2.8656  -17.8731  -44.4206 H         1 UNK         0.0600 
    161 H161        1.4180  -15.1717  -44.5895 H         1 UNK         0.0600 
    162 H162        2.1373  -16.0499  -45.9307 H         1 UNK         0.0600 
    163 H163        3.1643  -15.4072  -44.6603 H         1 UNK         0.0600 
    164 H164        2.1318  -16.0259  -42.3268 H         1 UNK         0.3000 
    165 H165        2.2129  -18.3935  -39.6608 H         1 UNK         0.0600 
    166 H166        3.9421  -16.8254  -38.8281 H         1 UNK         0.0600 
    167 H167        4.6094  -17.8356  -40.1004 H         1 UNK         0.0600 
    168 H168        4.1711  -16.1673  -40.4485 H         1 UNK         0.0600 
    169 H169        1.8786  -15.5534  -39.7296 H         1 UNK         0.3000 
    170 H170       -1.6533  -15.5094  -40.1727 H         1 UNK         0.0600 
    171 H171       -1.3197  -16.0204  -37.7483 H         1 UNK         0.0600 
    172 H172        0.0695  -14.9417  -37.7006 H         1 UNK         0.0600 
    173 H173       -1.5428  -14.2994  -38.0163 H         1 UNK         0.0600 
    174 H174        0.1556  -13.4014  -39.6700 H         1 UNK         0.3000 
    175 H175        0.5033  -11.8623  -41.3137 H         1 UNK         0.0600 
    176 H176        2.5601  -13.5497  -42.8560 H         1 UNK         0.0600 
    177 H177        2.7432  -11.8529  -42.4195 H         1 UNK         0.0600 
    178 H178        2.6842  -13.0799  -41.1648 H         1 UNK         0.0600 
    179 H179        0.7861  -12.5001  -44.1578 H         1 UNK         0.3000 
    180 H180       -2.0948  -12.1552  -45.2699 H         1 UNK         0.0600 
    181 H181       -1.3552   -9.1978  -44.9866 H         1 UNK         0.0600 
    182 H182       -2.9208   -9.9284  -44.6721 H         1 UNK         0.0600 
    183 H183       -2.2972   -9.8811  -46.3121 H         1 UNK         0.0600 
    184 H184       -0.4177  -12.4196  -46.6283 H         1 UNK         0.3000 
    185 H185        2.2000  -10.5545  -47.8262 H         1 UNK         0.0600 
    186 H186        3.5741  -11.2997  -45.8767 H         1 UNK         0.0600 
    187 H187        2.8374  -12.8957  -45.9437 H         1 UNK         0.0600 
    188 H188        3.8556  -12.3312  -47.2686 H         1 UNK         0.0600 
    189 H189        1.5501  -13.3817  -47.9588 H         1 UNK         0.3000 
    190 H190       -2.0316  -21.9515  -45.0272 H         1 UNK         0.3000 
    191 H191       -4.3099  -23.3463  -45.9249 H         1 UNK         0.0600 
    192 H192       -3.0922  -23.2064  -43.1293 H         1 UNK         0.0600 
    193 H193       -4.7140  -23.7718  -43.5038 H         1 UNK         0.0600 
    194 H194       -4.2824  -22.0998  -43.8139 H         1 UNK         0.0600 
    195 H195       -1.1688  -24.5916  -44.8544 H         1 UNK         0.3000 
    196 H196       -2.0599  -27.4056  -44.9887 H         1 UNK         0.0600 
    197 H197        0.2809  -27.8671  -44.2822 H         1 UNK         0.0600 
    198 H198       -0.5040  -26.7389  -43.1870 H         1 UNK         0.0600 
    199 H199        0.6659  -26.1519  -44.3648 H         1 UNK         0.0600 
    200 H200        0.2756  -25.2112  -46.6429 H         1 UNK         0.3000 
    201 H201        1.1909  -27.2265  -48.4311 H         1 UNK         0.0600 
    202 H202        2.5904  -25.3445  -47.6183 H         1 UNK         0.0600 
    203 H203        1.5839  -24.1895  -48.4893 H         1 UNK         0.0600 
    204 H204        2.5450  -25.3671  -49.3745 H         1 UNK         0.0600 
    205 H205       -1.3034  -24.7102  -48.8422 H         1 UNK         0.3000 
    206 H206       -1.6939  -25.5163  -51.7010 H         1 UNK         0.0600 
    207 H207       -0.4114  -23.3727  -51.5068 H         1 UNK         0.0600 
    208 H208       -2.0036  -23.1069  -52.1948 H         1 UNK         0.0600 
    209 H209       -1.6994  -22.6870  -50.5150 H         1 UNK         0.0600 
    210 H210       -3.1058  -25.9340  -48.8794 H         1 UNK         0.3000 
    211 H211       -5.1510  -26.1000  -48.0159 H         1 UNK         0.0600 
    212 H212       -6.1569  -26.1918  -50.9071 H         1 UNK         0.0600 
    213 H213       -6.9928  -26.8037  -49.4868 H         1 UNK         0.0600 
    214 H214       -5.5028  -27.5656  -50.0162 H         1 UNK         0.0600 
    215 H215       -4.1014  -23.4846  -48.3240 H         1 UNK         0.3000 
    216 H216       -4.5285  -21.4056  -47.8112 H         1 UNK         0.0600 
    217 H217       -6.6565  -20.6266  -46.9216 H         1 UNK         0.0600 
    218 H218       -6.3671  -22.2401  -46.2992 H         1 UNK         0.0600 
    219 H219       -7.5226  -21.9899  -47.6062 H         1 UNK         0.0600 
    220 H220       -5.0530  -22.6134  -50.7187 H         1 UNK         0.3000 
    221 H221       -6.4717  -20.4141  -52.0099 H         1 UNK         0.0600 
    222 H222       -4.9202  -22.7312  -53.2600 H         1 UNK         0.0600 
    223 H223       -6.6155  -22.8152  -52.7794 H         1 UNK         0.0600 
    224 H224       -6.1084  -21.7048  -54.0416 H         1 UNK         0.0600 
    225 H225       -4.5346  -19.1795  -50.6169 H         1 UNK         0.3000 
    226 H226       -2.0377  -18.7579  -51.9450 H         1 UNK         0.0600 
    227 H227       -2.3827  -18.1732  -49.5702 H         1 UNK         0.0600 
    228 H228       -1.9036  -16.7472  -50.4737 H         1 UNK         0.0600 
    229 H229       -3.5874  -16.9595  -50.0077 H         1 UNK         0.0600 
    230 H230       -1.6005  -17.7065  -53.7368 H         1 UNK         0.3000 
    231 H231       -1.6890  -16.6137  -55.6385 H         1 UNK         0.0600 
    232 H232       -2.0308  -14.5382  -54.2727 H         1 UNK         0.0600 
    233 H233       -3.7751  -14.7243  -54.4325 H         1 UNK         0.0600 
    234 H234       -2.7824  -14.4270  -55.8492 H         1 UNK         0.0600 
    235 H235       -3.7638  -18.8195  -54.9365 H         1 UNK         0.3000 
    236 H236       -5.3087  -18.6070  -57.4688 H         1 UNK         0.0600 
    237 H237       -7.3110  -19.4497  -56.2538 H         1 UNK         0.0600 
    238 H238       -6.4365  -19.3850  -54.7265 H         1 UNK         0.0600 
    239 H239       -6.8038  -17.9017  -55.6004 H         1 UNK         0.0600 
    240 H240       -2.7947  -19.9854  -56.6419 H         1 UNK         0.3000 
    241 H241       -3.3597  -22.7749  -56.3452 H         1 UNK         0.0600 
    242 H242       -3.4500  -22.2641  -60.3549 H         1 UNK         0.3800 
    243 H243       -3.5831  -20.9092  -59.2651 H         1 UNK         0.3800 
    244 H244       -0.9208  -23.1107  -56.6545 H         1 UNK         0.0800 
    245 H245       -0.7323  -21.4604  -57.1810 H         1 UNK         0.0800 
    246 H246        0.8805  -20.4469  -55.4697 H         1 UNK         0.0800 
    247 H247       -0.5465  -19.4400  -55.5940 H         1 UNK         0.0800 
@<TRIPOS>BOND
     1    1    2 1    
     2    1  127 1    
     3    1  128 1    
     4    1  129 1    
     5    2    3 2    
     6    2    4 am   BACKBONE|DICT|INTERRES
     7    4    5 1    
     8    4  130 1    
     9    5    6 1    
    10    5   65 1    
    11    5  131 1    
    12    6    7 1    
    13    6  132 1    
    14    6  133 1    
    15    7    8 1    
    16    8    9 1    
    17    8  134 1    
    18    8  135 1    
    19    9   10 ar   
    20    9   14 ar   
    21   10   11 ar   
    22   10  136 1    
    23   11   12 ar   
    24   11  126 1    
    25   12   13 ar   
    26   12  137 1    
    27   13   14 ar   
    28   13   15 1    
    29   14  138 1    
    30   15   16 1    
    31   15  139 1    
    32   15  140 1    
    33   16   17 1    
    34   17   18 1    
    35   17  141 1    
    36   17  142 1    
    37   18   19 1    
    38   18   67 1    
    39   18  143 1    
    40   19   20 am   BACKBONE|DICT|INTERRES
    41   19  144 1    
    42   20   21 2    
    43   20   22 1    
    44   22   23 1    
    45   22   24 1    
    46   22  145 1    
    47   23  146 1    
    48   23  147 1    
    49   23  148 1    
    50   24   25 am   BACKBONE|DICT|INTERRES
    51   24  149 1    
    52   25   26 2    
    53   25   27 1    
    54   27   28 1    
    55   27   29 1    
    56   27  150 1    
    57   28  151 1    
    58   28  152 1    
    59   28  153 1    
    60   29   30 am   BACKBONE|DICT|INTERRES
    61   29  154 1    
    62   30   31 2    
    63   30   32 1    
    64   32   33 1    
    65   32   34 1    
    66   32  155 1    
    67   33  156 1    
    68   33  157 1    
    69   33  158 1    
    70   34   35 am   BACKBONE|DICT|INTERRES
    71   34  159 1    
    72   35   36 2    
    73   35   37 1    
    74   37   38 1    
    75   37   39 1    
    76   37  160 1    
    77   38  161 1    
    78   38  162 1    
    79   38  163 1    
    80   39   40 am   BACKBONE|DICT|INTERRES
    81   39  164 1    
    82   40   41 2    
    83   40   42 1    
    84   42   43 1    
    85   42   44 1    
    86   42  165 1    
    87   43  166 1    
    88   43  167 1    
    89   43  168 1    
    90   44   45 am   BACKBONE|DICT|INTERRES
    91   44  169 1    
    92   45   46 2    
    93   45   47 1    
    94   47   48 1    
    95   47   49 1    
    96   47  170 1    
    97   48  171 1    
    98   48  172 1    
    99   48  173 1    
   100   49   50 am   BACKBONE|DICT|INTERRES
   101   49  174 1    
   102   50   51 2    
   103   50   52 1    
   104   52   53 1    
   105   52   54 1    
   106   52  175 1    
   107   53  176 1    
   108   53  177 1    
   109   53  178 1    
   110   54   55 am   BACKBONE|DICT|INTERRES
   111   54  179 1    
   112   55   56 2    
   113   55   57 1    
   114   57   58 1    
   115   57   59 1    
   116   57  180 1    
   117   58  181 1    
   118   58  182 1    
   119   58  183 1    
   120   59   60 am   BACKBONE|DICT|INTERRES
   121   59  184 1    
   122   60   61 2    
   123   60   62 1    
   124   62   63 1    
   125   62   64 1    
   126   62  185 1    
   127   63  186 1    
   128   63  187 1    
   129   63  188 1    
   130   64   65 am   BACKBONE|DICT|INTERRES
   131   64  189 1    
   132   65   66 2    
   133   67   68 2    
   134   67   69 am   BACKBONE|DICT|INTERRES
   135   69   70 1    
   136   69  190 1    
   137   70   71 1    
   138   70   72 1    
   139   70  191 1    
   140   71  192 1    
   141   71  193 1    
   142   71  194 1    
   143   72   73 2    
   144   72   74 am   BACKBONE|DICT|INTERRES
   145   74   75 1    
   146   74  195 1    
   147   75   76 1    
   148   75   77 1    
   149   75  196 1    
   150   76  197 1    
   151   76  198 1    
   152   76  199 1    
   153   77   78 2    
   154   77   79 am   BACKBONE|DICT|INTERRES
   155   79   80 1    
   156   79  200 1    
   157   80   81 1    
   158   80   82 1    
   159   80  201 1    
   160   81  202 1    
   161   81  203 1    
   162   81  204 1    
   163   82   83 2    
   164   82   84 am   BACKBONE|DICT|INTERRES
   165   84   85 1    
   166   84  205 1    
   167   85   86 1    
   168   85   87 1    
   169   85  206 1    
   170   86  207 1    
   171   86  208 1    
   172   86  209 1    
   173   87   88 2    
   174   87   89 am   BACKBONE|DICT|INTERRES
   175   89   90 1    
   176   89  210 1    
   177   90   91 1    
   178   90   92 1    
   179   90  211 1    
   180   91  212 1    
   181   91  213 1    
   182   91  214 1    
   183   92   93 2    
   184   92   94 am   BACKBONE|DICT|INTERRES
   185   94   95 1    
   186   94  215 1    
   187   95   96 1    
   188   95   97 1    
   189   95  216 1    
   190   96  217 1    
   191   96  218 1    
   192   96  219 1    
   193   97   98 2    
   194   97   99 am   BACKBONE|DICT|INTERRES
   195   99  100 1    
   196   99  220 1    
   197  100  101 1    
   198  100  102 1    
   199  100  221 1    
   200  101  222 1    
   201  101  223 1    
   202  101  224 1    
   203  102  103 2    
   204  102  104 am   BACKBONE|DICT|INTERRES
   205  104  105 1    
   206  104  225 1    
   207  105  106 1    
   208  105  107 1    
   209  105  226 1    
   210  106  227 1    
   211  106  228 1    
   212  106  229 1    
   213  107  108 2    
   214  107  109 am   BACKBONE|DICT|INTERRES
   215  109  110 1    
   216  109  230 1    
   217  110  111 1    
   218  110  112 1    
   219  110  231 1    
   220  111  232 1    
   221  111  233 1    
   222  111  234 1    
   223  112  113 2    
   224  112  114 am   BACKBONE|DICT|INTERRES
   225  114  115 1    
   226  114  235 1    
   227  115  116 1    
   228  115  117 1    
   229  115  236 1    
   230  116  237 1    
   231  116  238 1    
   232  116  239 1    
   233  117  118 2    
   234  117  119 am   BACKBONE|DICT|INTERRES
   235  119  120 1    
   236  119  240 1    
   237  120  121 1    
   238  120  124 1    
   239  120  241 1    
   240  121  122 am   BACKBONE|DICT|INTERRES
   241  121  123 2    
   242  122  242 1    
   243  122  243 1    
   244  124  125 1    
   245  124  244 1    
   246  124  245 1    
   247  125  126 1    
   248  126  246 1    
   249  126  247 1    
@<TRIPOS>SUBSTRUCTURE
     1 UNK         1 GROUP             0       ****    0 ROOT    
