@<TRIPOS>MOLECULE
3R540
247   249    1
SMALL
USER_CHARGES


@<TRIPOS>ATOM
      1 CA          6.2485   -9.9195  -54.1703 C.3       0 UNK        -0.1800 
      2 C           6.6347  -10.6906  -52.9157 C.2       0 UNK         0.5000 
      3 O           7.6320  -10.3574  -52.2746 O.2       0 UNK        -0.5000 
      4 N           5.8556  -11.7226  -52.5688 N.am      1 UNK        -0.5000 
      5 CA          6.0267  -12.5325  -51.3591 C.3       1 UNK         0.1400 
      6 C6          5.2283  -13.8583  -51.4600 C.3       23 UNK        -0.0398 
      7 S7          5.9493  -15.1964  -50.4483 S.3       23 UNK        -0.2404 
      8 C8          4.7911  -15.2904  -49.0478 C.3       23 UNK        -0.0205 
      9 C9          3.5256  -16.0645  -49.3852 C.ar      23 UNK        -0.0193 
     10 C10         2.3631  -15.3886  -49.7657 C.ar      23 UNK        -0.1150 
     11 C11         1.1809  -16.0901  -50.0144 C.ar      23 UNK        -0.0193 
     12 C12         1.1675  -17.4820  -49.8854 C.ar      23 UNK        -0.1150 
     13 C13         2.3248  -18.1712  -49.5128 C.ar      23 UNK        -0.0193 
     14 C14         3.5015  -17.4572  -49.2658 C.ar      23 UNK        -0.1150 
     15 C15         2.2873  -19.6793  -49.3248 C.3       23 UNK        -0.0205 
     16 S16         1.5287  -20.0721  -47.7247 S.3       23 UNK        -0.2404 
     17 C17         1.9564  -21.8207  -47.4709 C.3       23 UNK        -0.0398 
     18 CA          0.7773  -22.7071  -47.0004 C.3       11 UNK         0.1400 
     19 N           0.0744  -22.2065  -45.8106 N.am      11 UNK        -0.5000 
     20 C          -0.6830  -22.9934  -45.0315 C.2       10 UNK         0.5000 
     21 O          -0.8322  -24.1992  -45.2345 O.2       10 UNK        -0.5000 
     22 CA         -1.4253  -22.3384  -43.8532 C.3       10 UNK         0.1400 
     23 CB         -0.4725  -22.0672  -42.6793 C.3       10 UNK        -0.1800 
     24 N          -2.1343  -21.1124  -44.2199 N.am      10 UNK        -0.5000 
     25 C          -3.1671  -21.0619  -45.0737 C.2       9 UNK         0.5000 
     26 O          -3.6088  -22.0423  -45.6696 O.2       9 UNK        -0.5000 
     27 CA         -3.7983  -19.6831  -45.3337 C.3       9 UNK         0.1400 
     28 CB         -4.7538  -19.2961  -44.1960 C.3       9 UNK        -0.1800 
     29 N          -2.7954  -18.6369  -45.5124 N.am      9 UNK        -0.5000 
     30 C          -1.9133  -18.6076  -46.5210 C.2       8 UNK         0.5000 
     31 O          -1.9047  -19.4163  -47.4488 O.2       8 UNK        -0.5000 
     32 CA         -0.8384  -17.5118  -46.4590 C.3       8 UNK         0.1400 
     33 CB         -1.4013  -16.1723  -46.9538 C.3       8 UNK        -0.1800 
     34 N          -0.2788  -17.3391  -45.1200 N.am      8 UNK        -0.5000 
     35 C           0.3435  -18.2809  -44.3962 C.2       7 UNK         0.5000 
     36 O           0.5198  -19.4413  -44.7634 O.2       7 UNK        -0.5000 
     37 CA          0.7952  -17.8622  -42.9893 C.3       7 UNK         0.1400 
     38 CB          2.0471  -16.9731  -43.0526 C.3       7 UNK        -0.1800 
     39 N          -0.2699  -17.1688  -42.2670 N.am      7 UNK        -0.5000 
     40 C          -1.4022  -17.7507  -41.8476 C.2       6 UNK         0.5000 
     41 O          -1.6611  -18.9441  -42.0052 O.2       6 UNK        -0.5000 
     42 CA         -2.4302  -16.8330  -41.1626 C.3       6 UNK         0.1400 
     43 CB         -2.0818  -16.6387  -39.6792 C.3       6 UNK        -0.1800 
     44 N          -2.5403  -15.5254  -41.8119 N.am      6 UNK        -0.5000 
     45 C          -3.0469  -15.3384  -43.0379 C.2       5 UNK         0.5000 
     46 O          -3.4646  -16.2489  -43.7543 O.2       5 UNK        -0.5000 
     47 CA         -3.0512  -13.8917  -43.5664 C.3       5 UNK         0.1400 
     48 CB         -4.2094  -13.0923  -42.9500 C.3       5 UNK        -0.1800 
     49 N          -1.7926  -13.1604  -43.3689 N.am      5 UNK        -0.5000 
     50 C          -0.5984  -13.5688  -43.8153 C.2       4 UNK         0.5000 
     51 O          -0.3906  -14.6860  -44.2925 O.2       4 UNK        -0.5000 
     52 CA          0.5652  -12.5730  -43.7573 C.3       4 UNK         0.1400 
     53 CB          1.4454  -12.8052  -42.5191 C.3       4 UNK        -0.1800 
     54 N           1.3313  -12.8059  -44.9739 N.am      4 UNK        -0.5000 
     55 C           2.0124  -11.9023  -45.6787 C.2       3 UNK         0.5000 
     56 O           2.2253  -10.7459  -45.3059 O.2       3 UNK        -0.5000 
     57 CA          2.4547  -12.3660  -47.0792 C.3       3 UNK         0.1400 
     58 CB          1.3644  -12.0266  -48.1091 C.3       3 UNK        -0.1800 
     59 N           3.7108  -11.7641  -47.5169 N.am      3 UNK        -0.5000 
     60 C           4.9127  -11.9882  -46.9752 C.2       2 UNK         0.5000 
     61 O           5.1016  -12.7368  -46.0146 O.2       2 UNK        -0.5000 
     62 CA          6.1044  -11.3170  -47.6895 C.3       2 UNK         0.1400 
     63 CB          7.4007  -11.3796  -46.8620 C.3       2 UNK        -0.1800 
     64 N           6.3511  -11.9349  -48.9953 N.am      2 UNK        -0.5000 
     65 C           5.6309  -11.7222  -50.1044 C.2       1 UNK         0.5000 
     66 O           4.6726  -10.9454  -50.1539 O.2       1 UNK        -0.5000 
     67 C          -0.1911  -23.0771  -48.1419 C.2       11 UNK         0.5000 
     68 O           0.0596  -24.0638  -48.8336 O.2       11 UNK        -0.5000 
     69 N          -1.3063  -22.3444  -48.2866 N.am      12 UNK        -0.5000 
     70 CA         -2.3833  -22.6981  -49.2130 C.3       12 UNK         0.1400 
     71 CB         -3.3674  -21.5314  -49.3559 C.3       12 UNK        -0.1800 
     72 C          -3.1086  -23.9948  -48.8107 C.2       12 UNK         0.5000 
     73 O          -3.4261  -24.7994  -49.6842 O.2       12 UNK        -0.5000 
     74 N          -3.3310  -24.2049  -47.5057 N.am      13 UNK        -0.5000 
     75 CA         -3.8830  -25.4444  -46.9553 C.3       13 UNK         0.1400 
     76 CB         -4.1915  -25.2710  -45.4609 C.3       13 UNK        -0.1800 
     77 C          -2.9512  -26.6470  -47.1869 C.2       13 UNK         0.5000 
     78 O          -3.4214  -27.6994  -47.6187 O.2       13 UNK        -0.5000 
     79 N          -1.6441  -26.4536  -46.9558 N.am      14 UNK        -0.5000 
     80 CA         -0.5945  -27.4447  -47.2132 C.3       14 UNK         0.1400 
     81 CB          0.7420  -26.9314  -46.6575 C.3       14 UNK        -0.1800 
     82 C          -0.4597  -27.8126  -48.7048 C.2       14 UNK         0.5000 
     83 O          -0.2127  -28.9756  -49.0248 O.2       14 UNK        -0.5000 
     84 N          -0.6653  -26.8263  -49.5880 N.am      15 UNK        -0.5000 
     85 CA         -0.7086  -26.9865  -51.0435 C.3       15 UNK         0.1400 
     86 CB         -0.4668  -25.6158  -51.6966 C.3       15 UNK        -0.1800 
     87 C          -2.0246  -27.6047  -51.5645 C.2       15 UNK         0.5000 
     88 O          -2.1184  -27.8769  -52.7621 O.2       15 UNK        -0.5000 
     89 N          -3.0131  -27.7995  -50.6774 N.am      16 UNK        -0.5000 
     90 CA         -4.3692  -28.2921  -50.9411 C.3       16 UNK         0.1400 
     91 CB         -4.3470  -29.7405  -51.4728 C.3       16 UNK        -0.1800 
     92 C          -5.2002  -27.3314  -51.8190 C.2       16 UNK         0.5000 
     93 O          -6.0577  -27.7740  -52.5847 O.2       16 UNK        -0.5000 
     94 N          -4.9561  -26.0244  -51.6630 N.am      17 UNK        -0.5000 
     95 CA         -5.6411  -24.9276  -52.3459 C.3       17 UNK         0.1400 
     96 CB         -4.5938  -23.8872  -52.7840 C.3       17 UNK        -0.1800 
     97 C          -6.7385  -24.3142  -51.4515 C.2       17 UNK         0.5000 
     98 O          -6.9601  -23.1035  -51.4906 O.2       17 UNK        -0.5000 
     99 N          -7.3914  -25.1572  -50.6351 N.am      18 UNK        -0.5000 
    100 CA        -8.5574  -24.8693  -49.7851 C.3       18 UNK         0.1400 
    101 CB        -9.7964  -24.6180  -50.6698 C.3       18 UNK        -0.1800 
    102 C         -8.3520  -23.7428  -48.7462 C.2       18 UNK         0.5000 
    103 O         -9.3322  -23.1540  -48.2878 O.2       18 UNK        -0.5000 
    104 N         -7.0856  -23.4538  -48.4072 N.am      19 UNK        -0.5000 
    105 CA        -6.6288  -22.3484  -47.5540 C.3       19 UNK         0.1400 
    106 CB        -7.1309  -22.5253  -46.1059 C.3       19 UNK        -0.1800 
    107 C         -6.9636  -20.9502  -48.1277 C.2       19 UNK         0.5000 
    108 O         -7.0596  -19.9856  -47.3687 O.2       19 UNK        -0.5000 
    109 N         -7.1345  -20.8557  -49.4555 N.am      20 UNK        -0.5000 
    110 CA        -7.6316  -19.6695  -50.1612 C.3       20 UNK         0.1400 
    111 CB        -8.2750  -20.1251  -51.4819 C.3       20 UNK        -0.1800 
    112 C         -6.5755  -18.5717  -50.4139 C.2       20 UNK         0.5000 
    113 O         -6.9002  -17.5786  -51.0669 O.2       20 UNK        -0.5000 
    114 N         -5.3489  -18.7640  -49.9069 N.am      21 UNK        -0.5000 
    115 CA        -4.1569  -17.9275  -50.0922 C.3       21 UNK         0.1400 
    116 CB        -4.3987  -16.4831  -49.5965 C.3       21 UNK        -0.1800 
    117 C         -3.6002  -17.9890  -51.5325 C.2       21 UNK         0.5000 
    118 O         -4.0527  -18.7965  -52.3479 O.2       21 UNK        -0.5000 
    119 N         -2.5777  -17.1705  -51.7987 N.am      22 UNK        -0.5000 
    120 CA        -1.9086  -17.0412  -53.0994 C.3       22 UNK         0.1400 
    121 C         -2.7126  -16.1810  -54.1167 C.2       22 UNK         0.5000 
    122 N         -2.4451  -16.3308  -55.4073 N.am      22 UNK        -0.7600 
    123 O         -3.5598  -15.3668  -53.7546 O.2       22 UNK        -0.5000 
    124 C124       -0.4404  -16.5611  -52.9340 C.3       23 UNK        -0.0398 
    125 S125       -0.2279  -14.9272  -52.1334 S.3       23 UNK        -0.2404 
    126 C126       -0.0938  -15.3377  -50.3625 C.3       23 UNK        -0.0205 
    127 H127        6.0531   -8.8759  -53.9236 H         1 UNK         0.0600 
    128 H128        5.3547  -10.3306  -54.6404 H         1 UNK         0.0600 
    129 H129        7.0605   -9.9532  -54.8967 H         1 UNK         0.0600 
    130 H130        5.0319  -11.9218  -53.1181 H         1 UNK         0.3000 
    131 H131        7.0899  -12.7743  -51.2900 H         1 UNK         0.0600 
    132 H132        5.2480  -14.2223  -52.4883 H         1 UNK         0.0800 
    133 H133        4.1733  -13.7120  -51.2266 H         1 UNK         0.0800 
    134 H134        4.5394  -14.2866  -48.7095 H         1 UNK         0.0800 
    135 H135        5.2961  -15.7708  -48.2084 H         1 UNK         0.0800 
    136 H136        2.3712  -14.3130  -49.8512 H         1 UNK         0.1150 
    137 H137        0.2511  -18.0318  -50.0494 H         1 UNK         0.1150 
    138 H138        4.3946  -17.9827  -48.9579 H         1 UNK         0.1150 
    139 H139        1.7166  -20.1479  -50.1280 H         1 UNK         0.0800 
    140 H140        3.2962  -20.0930  -49.3676 H         1 UNK         0.0800 
    141 H141        2.7451  -21.8501  -46.7182 H         1 UNK         0.0800 
    142 H142        2.4037  -22.2296  -48.3787 H         1 UNK         0.0800 
    143 H143        1.2390  -23.6511  -46.7028 H         1 UNK         0.0600 
    144 H144        0.1706  -21.2173  -45.5925 H         1 UNK         0.3000 
    145 H145       -2.1754  -23.0531  -43.5081 H         1 UNK         0.0600 
    146 H146       -1.0152  -21.6948  -41.8104 H         1 UNK         0.0600 
    147 H147        0.0404  -22.9804  -42.3749 H         1 UNK         0.0600 
    148 H148        0.2909  -21.3331  -42.9355 H         1 UNK         0.0600 
    149 H149       -1.8257  -20.2590  -43.7694 H         1 UNK         0.3000 
    150 H150       -4.3797  -19.7517  -46.2555 H         1 UNK         0.0600 
    151 H151       -5.5111  -20.0654  -44.0413 H         1 UNK         0.0600 
    152 H152       -5.2771  -18.3671  -44.4231 H         1 UNK         0.0600 
    153 H153       -4.2239  -19.1593  -43.2527 H         1 UNK         0.0600 
    154 H154       -2.7667  -17.9050  -44.8104 H         1 UNK         0.3000 
    155 H155       -0.0254  -17.7964  -47.1257 H         1 UNK         0.0600 
    156 H156       -1.8620  -16.2858  -47.9327 H         1 UNK         0.0600 
    157 H157       -0.6140  -15.4239  -47.0469 H         1 UNK         0.0600 
    158 H158       -2.1615  -15.7794  -46.2780 H         1 UNK         0.0600 
    159 H159       -0.3702  -16.4065  -44.7203 H         1 UNK         0.3000 
    160 H160        1.0493  -18.7674  -42.4336 H         1 UNK         0.0600 
    161 H161        2.3920  -16.7048  -42.0540 H         1 UNK         0.0600 
    162 H162        1.8644  -16.0506  -43.6040 H         1 UNK         0.0600 
    163 H163        2.8662  -17.4932  -43.5509 H         1 UNK         0.0600 
    164 H164       -0.1687  -16.1714  -42.1533 H         1 UNK         0.3000 
    165 H165       -3.4037  -17.3248  -41.2216 H         1 UNK         0.0600 
    166 H166       -2.8482  -16.0562  -39.1675 H         1 UNK         0.0600 
    167 H167       -2.0090  -17.5991  -39.1671 H         1 UNK         0.0600 
    168 H168       -1.1280  -16.1253  -39.5516 H         1 UNK         0.0600 
    169 H169       -2.2063  -14.7238  -41.2974 H         1 UNK         0.3000 
    170 H170       -3.2215  -13.9479  -44.6436 H         1 UNK         0.0600 
    171 H171       -5.1602  -13.6081  -43.0926 H         1 UNK         0.0600 
    172 H172       -4.0732  -12.9452  -41.8780 H         1 UNK         0.0600 
    173 H173       -4.3024  -12.1105  -43.4145 H         1 UNK         0.0600 
    174 H174       -1.8735  -12.2345  -42.9740 H         1 UNK         0.3000 
    175 H175        0.1712  -11.5545  -43.7524 H         1 UNK         0.0600 
    176 H176        1.8448  -13.8194  -42.4915 H         1 UNK         0.0600 
    177 H177        2.2887  -12.1146  -42.5022 H         1 UNK         0.0600 
    178 H178        0.8771  -12.6488  -41.6015 H         1 UNK         0.0600 
    179 H179        1.1656  -13.7252  -45.3658 H         1 UNK         0.3000 
    180 H180        2.5954  -13.4492  -47.0657 H         1 UNK         0.0600 
    181 H181        1.6651  -12.2979  -49.1202 H         1 UNK         0.0600 
    182 H182        1.1354  -10.9600  -48.1115 H         1 UNK         0.0600 
    183 H183        0.4389  -12.5602  -47.8890 H         1 UNK         0.0600 
    184 H184        3.6693  -11.1702  -48.3372 H         1 UNK         0.3000 
    185 H185        5.8540  -10.2638  -47.8346 H         1 UNK         0.0600 
    186 H186        7.2597  -10.9241  -45.8810 H         1 UNK         0.0600 
    187 H187        7.7314  -12.4069  -46.7036 H         1 UNK         0.0600 
    188 H188        8.2091  -10.8402  -47.3559 H         1 UNK         0.0600 
    189 H189        7.0995  -12.6125  -49.0267 H         1 UNK         0.3000 
    190 H190       -1.4400  -21.5170  -47.7156 H         1 UNK         0.3000 
    191 H191       -1.9378  -22.8712  -50.1947 H         1 UNK         0.0600 
    192 H192       -2.8788  -20.6810  -49.8301 H         1 UNK         0.0600 
    193 H193       -4.2202  -21.8045  -49.9790 H         1 UNK         0.0600 
    194 H194       -3.7458  -21.2026  -48.3888 H         1 UNK         0.0600 
    195 H195       -3.1103  -23.4709  -46.8380 H         1 UNK         0.3000 
    196 H196       -4.8241  -25.6471  -47.4710 H         1 UNK         0.0600 
    197 H197       -4.6596  -26.1678  -45.0535 H         1 UNK         0.0600 
    198 H198       -4.8760  -24.4417  -45.2911 H         1 UNK         0.0600 
    199 H199       -3.2910  -25.0790  -44.8787 H         1 UNK         0.0600 
    200 H200       -1.3486  -25.5692  -46.5519 H         1 UNK         0.3000 
    201 H201       -0.8604  -28.3545  -46.6712 H         1 UNK         0.0600 
    202 H202        0.6671  -26.7034  -45.5941 H         1 UNK         0.0600 
    203 H203        1.0707  -26.0286  -47.1719 H         1 UNK         0.0600 
    204 H204        1.5264  -27.6798  -46.7763 H         1 UNK         0.0600 
    205 H205       -0.7858  -25.8816  -49.2381 H         1 UNK         0.3000 
    206 H206        0.1030  -27.6528  -51.3425 H         1 UNK         0.0600 
    207 H207        0.4819  -25.1863  -51.3746 H         1 UNK         0.0600 
    208 H208       -0.4319  -25.6977  -52.7836 H         1 UNK         0.0600 
    209 H209       -1.2578  -24.9083  -51.4472 H         1 UNK         0.0600 
    210 H210       -2.8370  -27.5359  -49.7157 H         1 UNK         0.3000 
    211 H211       -4.8691  -28.3125  -49.9720 H         1 UNK         0.0600 
    212 H212       -3.9358  -29.7990  -52.4807 H         1 UNK         0.0600 
    213 H213       -5.3536  -30.1585  -51.5080 H         1 UNK         0.0600 
    214 H214       -3.7512  -30.3872  -50.8284 H         1 UNK         0.0600 
    215 H215       -4.2681  -25.7362  -50.9682 H         1 UNK         0.3000 
    216 H216       -6.1356  -25.3001  -53.2450 H         1 UNK         0.0600 
    217 H217       -5.0518  -23.0920  -53.3734 H         1 UNK         0.0600 
    218 H218       -3.8209  -24.3441  -53.4023 H         1 UNK         0.0600 
    219 H219       -4.1042  -23.4212  -51.9291 H         1 UNK         0.0600 
    220 H220       -7.1094  -26.1264  -50.6649 H         1 UNK         0.3000 
    221 H221       -8.7428  -25.7758  -49.2075 H         1 UNK         0.0600 
    222 H222       -9.7062  -23.6885  -51.2333 H         1 UNK         0.0600 
    223 H223       -9.9433  -25.4293  -51.3828 H         1 UNK         0.0600 
    224 H224      -10.7044  -24.5504  -50.0696 H         1 UNK         0.0600 
    225 H225       -6.3593  -23.9934  -48.8553 H         1 UNK         0.3000 
    226 H226       -5.5433  -22.4191  -47.5288 H         1 UNK         0.0600 
    227 H227       -6.9761  -23.5436  -45.7519 H         1 UNK         0.0600 
    228 H228       -6.5969  -21.8602  -45.4269 H         1 UNK         0.0600 
    229 H229       -8.1937  -22.3003  -46.0144 H         1 UNK         0.0600 
    230 H230       -7.0328  -21.6906  -50.0251 H         1 UNK         0.3000 
    231 H231       -8.4157  -19.2160  -49.5514 H         1 UNK         0.0600 
    232 H232       -7.5308  -20.5288  -52.1696 H         1 UNK         0.0600 
    233 H233       -8.7711  -19.2954  -51.9867 H         1 UNK         0.0600 
    234 H234       -9.0273  -20.8958  -51.3114 H         1 UNK         0.0600 
    235 H235       -5.1998  -19.6270  -49.4077 H         1 UNK         0.3000 
    236 H236       -3.3887  -18.3627  -49.4531 H         1 UNK         0.0600 
    237 H237       -4.8158  -16.4792  -48.5893 H         1 UNK         0.0600 
    238 H238       -3.4743  -15.9087  -49.5601 H         1 UNK         0.0600 
    239 H239       -5.0831  -15.9366  -50.2453 H         1 UNK         0.0600 
    240 H240       -2.3036  -16.4914  -51.1074 H         1 UNK         0.3000 
    241 H241       -1.8584  -18.0437  -53.5297 H         1 UNK         0.0600 
    242 H242       -1.7571  -16.9908  -55.7360 H         1 UNK         0.3800 
    243 H243       -2.9521  -15.7740  -56.0780 H         1 UNK         0.3800 
    244 H244        0.1264  -17.3109  -52.3849 H         1 UNK         0.0800 
    245 H245        0.0443  -16.5113  -53.9102 H         1 UNK         0.0800 
    246 H246       -0.1300  -14.4094  -49.7903 H         1 UNK         0.0800 
    247 H247       -0.9629  -15.9106  -50.0475 H         1 UNK         0.0800 
@<TRIPOS>BOND
     1    1    2 1    
     2    1  127 1    
     3    1  128 1    
     4    1  129 1    
     5    2    3 2    
     6    2    4 am   BACKBONE|DICT|INTERRES
     7    4    5 1    
     8    4  130 1    
     9    5    6 1    
    10    5   65 1    
    11    5  131 1    
    12    6    7 1    
    13    6  132 1    
    14    6  133 1    
    15    7    8 1    
    16    8    9 1    
    17    8  134 1    
    18    8  135 1    
    19    9   10 ar   
    20    9   14 ar   
    21   10   11 ar   
    22   10  136 1    
    23   11   12 ar   
    24   11  126 1    
    25   12   13 ar   
    26   12  137 1    
    27   13   14 ar   
    28   13   15 1    
    29   14  138 1    
    30   15   16 1    
    31   15  139 1    
    32   15  140 1    
    33   16   17 1    
    34   17   18 1    
    35   17  141 1    
    36   17  142 1    
    37   18   19 1    
    38   18   67 1    
    39   18  143 1    
    40   19   20 am   BACKBONE|DICT|INTERRES
    41   19  144 1    
    42   20   21 2    
    43   20   22 1    
    44   22   23 1    
    45   22   24 1    
    46   22  145 1    
    47   23  146 1    
    48   23  147 1    
    49   23  148 1    
    50   24   25 am   BACKBONE|DICT|INTERRES
    51   24  149 1    
    52   25   26 2    
    53   25   27 1    
    54   27   28 1    
    55   27   29 1    
    56   27  150 1    
    57   28  151 1    
    58   28  152 1    
    59   28  153 1    
    60   29   30 am   BACKBONE|DICT|INTERRES
    61   29  154 1    
    62   30   31 2    
    63   30   32 1    
    64   32   33 1    
    65   32   34 1    
    66   32  155 1    
    67   33  156 1    
    68   33  157 1    
    69   33  158 1    
    70   34   35 am   BACKBONE|DICT|INTERRES
    71   34  159 1    
    72   35   36 2    
    73   35   37 1    
    74   37   38 1    
    75   37   39 1    
    76   37  160 1    
    77   38  161 1    
    78   38  162 1    
    79   38  163 1    
    80   39   40 am   BACKBONE|DICT|INTERRES
    81   39  164 1    
    82   40   41 2    
    83   40   42 1    
    84   42   43 1    
    85   42   44 1    
    86   42  165 1    
    87   43  166 1    
    88   43  167 1    
    89   43  168 1    
    90   44   45 am   BACKBONE|DICT|INTERRES
    91   44  169 1    
    92   45   46 2    
    93   45   47 1    
    94   47   48 1    
    95   47   49 1    
    96   47  170 1    
    97   48  171 1    
    98   48  172 1    
    99   48  173 1    
   100   49   50 am   BACKBONE|DICT|INTERRES
   101   49  174 1    
   102   50   51 2    
   103   50   52 1    
   104   52   53 1    
   105   52   54 1    
   106   52  175 1    
   107   53  176 1    
   108   53  177 1    
   109   53  178 1    
   110   54   55 am   BACKBONE|DICT|INTERRES
   111   54  179 1    
   112   55   56 2    
   113   55   57 1    
   114   57   58 1    
   115   57   59 1    
   116   57  180 1    
   117   58  181 1    
   118   58  182 1    
   119   58  183 1    
   120   59   60 am   BACKBONE|DICT|INTERRES
   121   59  184 1    
   122   60   61 2    
   123   60   62 1    
   124   62   63 1    
   125   62   64 1    
   126   62  185 1    
   127   63  186 1    
   128   63  187 1    
   129   63  188 1    
   130   64   65 am   BACKBONE|DICT|INTERRES
   131   64  189 1    
   132   65   66 2    
   133   67   68 2    
   134   67   69 am   BACKBONE|DICT|INTERRES
   135   69   70 1    
   136   69  190 1    
   137   70   71 1    
   138   70   72 1    
   139   70  191 1    
   140   71  192 1    
   141   71  193 1    
   142   71  194 1    
   143   72   73 2    
   144   72   74 am   BACKBONE|DICT|INTERRES
   145   74   75 1    
   146   74  195 1    
   147   75   76 1    
   148   75   77 1    
   149   75  196 1    
   150   76  197 1    
   151   76  198 1    
   152   76  199 1    
   153   77   78 2    
   154   77   79 am   BACKBONE|DICT|INTERRES
   155   79   80 1    
   156   79  200 1    
   157   80   81 1    
   158   80   82 1    
   159   80  201 1    
   160   81  202 1    
   161   81  203 1    
   162   81  204 1    
   163   82   83 2    
   164   82   84 am   BACKBONE|DICT|INTERRES
   165   84   85 1    
   166   84  205 1    
   167   85   86 1    
   168   85   87 1    
   169   85  206 1    
   170   86  207 1    
   171   86  208 1    
   172   86  209 1    
   173   87   88 2    
   174   87   89 am   BACKBONE|DICT|INTERRES
   175   89   90 1    
   176   89  210 1    
   177   90   91 1    
   178   90   92 1    
   179   90  211 1    
   180   91  212 1    
   181   91  213 1    
   182   91  214 1    
   183   92   93 2    
   184   92   94 am   BACKBONE|DICT|INTERRES
   185   94   95 1    
   186   94  215 1    
   187   95   96 1    
   188   95   97 1    
   189   95  216 1    
   190   96  217 1    
   191   96  218 1    
   192   96  219 1    
   193   97   98 2    
   194   97   99 am   BACKBONE|DICT|INTERRES
   195   99  100 1    
   196   99  220 1    
   197  100  101 1    
   198  100  102 1    
   199  100  221 1    
   200  101  222 1    
   201  101  223 1    
   202  101  224 1    
   203  102  103 2    
   204  102  104 am   BACKBONE|DICT|INTERRES
   205  104  105 1    
   206  104  225 1    
   207  105  106 1    
   208  105  107 1    
   209  105  226 1    
   210  106  227 1    
   211  106  228 1    
   212  106  229 1    
   213  107  108 2    
   214  107  109 am   BACKBONE|DICT|INTERRES
   215  109  110 1    
   216  109  230 1    
   217  110  111 1    
   218  110  112 1    
   219  110  231 1    
   220  111  232 1    
   221  111  233 1    
   222  111  234 1    
   223  112  113 2    
   224  112  114 am   BACKBONE|DICT|INTERRES
   225  114  115 1    
   226  114  235 1    
   227  115  116 1    
   228  115  117 1    
   229  115  236 1    
   230  116  237 1    
   231  116  238 1    
   232  116  239 1    
   233  117  118 2    
   234  117  119 am   BACKBONE|DICT|INTERRES
   235  119  120 1    
   236  119  240 1    
   237  120  121 1    
   238  120  124 1    
   239  120  241 1    
   240  121  122 am   BACKBONE|DICT|INTERRES
   241  121  123 2    
   242  122  242 1    
   243  122  243 1    
   244  124  125 1    
   245  124  244 1    
   246  124  245 1    
   247  125  126 1    
   248  126  246 1    
   249  126  247 1    
@<TRIPOS>SUBSTRUCTURE
     1 UNK         1 GROUP             0       ****    0 ROOT    
