@<TRIPOS>MOLECULE
3R540
247   249    1
SMALL
USER_CHARGES


@<TRIPOS>ATOM
      1 CA         -0.7606  -10.5869  -47.2953 C.3       0 UNK        -0.1800 
      2 C          -0.2590  -11.1365  -45.9687 C.2       0 UNK         0.5000 
      3 O           0.7878  -10.7013  -45.4864 O.2       0 UNK        -0.5000 
      4 N          -1.0110  -12.0733  -45.3743 N.am      1 UNK        -0.5000 
      5 CA         -0.7190  -12.8025  -44.1287 C.3       1 UNK         0.1400 
      6 C6         -1.5693  -14.0966  -44.0155 C.3       23 UNK        -0.0398 
      7 S7         -1.2724  -15.2945  -45.3585 S.3       23 UNK        -0.2404 
      8 C8         -2.6754  -14.9627  -46.4657 C.3       23 UNK        -0.0205 
      9 C9         -2.8005  -16.0592  -47.5078 C.ar      23 UNK        -0.0193 
     10 C10        -2.1123  -15.9700  -48.7195 C.ar      23 UNK        -0.1150 
     11 C11        -2.2155  -16.9921  -49.6666 C.ar      23 UNK        -0.0193 
     12 C12        -2.9995  -18.1163  -49.3869 C.ar      23 UNK        -0.1150 
     13 C13        -3.6952  -18.2186  -48.1779 C.ar      23 UNK        -0.0193 
     14 C14        -3.5999  -17.1743  -47.2502 C.ar      23 UNK        -0.1150 
     15 C15        -4.5512  -19.4567  -47.9110 C.3       23 UNK        -0.0205 
     16 S16        -4.7142  -19.9146  -46.1484 S.3       23 UNK        -0.2404 
     17 C17        -2.9951  -20.3574  -45.7214 C.3       23 UNK        -0.0398 
     18 CA         -2.7260  -21.8675  -45.9117 C.3       11 UNK         0.1400 
     19 N          -1.3337  -22.1334  -46.2876 N.am      11 UNK        -0.5000 
     20 C          -0.8437  -23.3054  -46.7157 C.2       10 UNK         0.5000 
     21 O          -1.5264  -24.3227  -46.8385 O.2       10 UNK        -0.5000 
     22 CA          0.6626  -23.3555  -47.0137 C.3       10 UNK         0.1400 
     23 CB          0.9535  -22.8466  -48.4345 C.3       10 UNK        -0.1800 
     24 N           1.4099  -22.5619  -46.0369 N.am      10 UNK        -0.5000 
     25 C           1.7289  -22.9922  -44.8075 C.2       9 UNK         0.5000 
     26 O           1.5115  -24.1363  -44.4098 O.2       9 UNK        -0.5000 
     27 CA          2.3770  -21.9729  -43.8498 C.3       9 UNK         0.1400 
     28 CB          3.9072  -22.0124  -43.9769 C.3       9 UNK        -0.1800 
     29 N           1.9146  -20.6012  -44.0662 N.am      9 UNK        -0.5000 
     30 C           0.6713  -20.1616  -43.8236 C.2       8 UNK         0.5000 
     31 O          -0.2237  -20.8624  -43.3507 O.2       8 UNK        -0.5000 
     32 CA          0.3670  -18.7046  -44.2288 C.3       8 UNK         0.1400 
     33 CB          0.6899  -17.7541  -43.0660 C.3       8 UNK        -0.1800 
     34 N           1.0779  -18.2631  -45.4365 N.am      8 UNK        -0.5000 
     35 C           0.9903  -18.8612  -46.6358 C.2       7 UNK         0.5000 
     36 O           0.3122  -19.8702  -46.8315 O.2       7 UNK        -0.5000 
     37 CA          1.8073  -18.2659  -47.7945 C.3       7 UNK         0.1400 
     38 CB          1.2257  -18.6191  -49.1740 C.3       7 UNK        -0.1800 
     39 N           1.9224  -16.8175  -47.6547 N.am      7 UNK        -0.5000 
     40 C           3.0397  -16.1185  -47.8836 C.2       6 UNK         0.5000 
     41 O           4.0784  -16.6083  -48.3302 O.2       6 UNK        -0.5000 
     42 CA          3.0206  -14.6217  -47.5171 C.3       6 UNK         0.1400 
     43 CB          1.6162  -13.9851  -47.5291 C.3       6 UNK        -0.1800 
     44 N           3.6845  -14.3645  -46.2358 N.am      6 UNK        -0.5000 
     45 C           3.4438  -14.9451  -45.0472 C.2       5 UNK         0.5000 
     46 O           2.6000  -15.8218  -44.8600 O.2       5 UNK        -0.5000 
     47 CA          4.2936  -14.4539  -43.8577 C.3       5 UNK         0.1400 
     48 CB          5.5237  -15.3542  -43.6693 C.3       5 UNK        -0.1800 
     49 N           4.7292  -13.0631  -44.0175 N.am      5 UNK        -0.5000 
     50 C           3.9020  -12.0139  -43.9262 C.2       4 UNK         0.5000 
     51 O           2.7300  -12.1076  -43.5520 O.2       4 UNK        -0.5000 
     52 CA          4.4742  -10.6469  -44.3390 C.3       4 UNK         0.1400 
     53 CB          5.0476  -10.6686  -45.7694 C.3       4 UNK        -0.1800 
     54 N           3.4062   -9.6593  -44.2706 N.am      4 UNK        -0.5000 
     55 C           3.5397   -8.3623  -43.9777 C.2       3 UNK         0.5000 
     56 O           4.6228   -7.8091  -43.7825 O.2       3 UNK        -0.5000 
     57 CA          2.2353   -7.5495  -43.8698 C.3       3 UNK         0.1400 
     58 CB          1.8580   -6.9554  -45.2356 C.3       3 UNK        -0.1800 
     59 N           1.1179   -8.3581  -43.3780 N.am      3 UNK        -0.5000 
     60 C           0.9731   -8.7660  -42.1079 C.2       2 UNK         0.5000 
     61 O           1.7209   -8.4297  -41.1893 O.2       2 UNK        -0.5000 
     62 CA         -0.1801   -9.7400  -41.8308 C.3       2 UNK         0.1400 
     63 CB         -1.5205   -8.9908  -41.7122 C.3       2 UNK        -0.1800 
     64 N          -0.2313  -10.7417  -42.8908 N.am      2 UNK        -0.5000 
     65 C          -0.8721  -11.9108  -42.8685 C.2       1 UNK         0.5000 
     66 O          -1.5654  -12.2810  -41.9189 O.2       1 UNK        -0.5000 
     67 C          -3.2241  -22.7125  -44.7152 C.2       11 UNK         0.5000 
     68 O          -4.4297  -22.9273  -44.5893 O.2       11 UNK        -0.5000 
     69 N          -2.3007  -23.2667  -43.9161 N.am      12 UNK        -0.5000 
     70 CA         -2.5692  -24.3021  -42.9122 C.3       12 UNK         0.1400 
     71 CB         -1.2720  -24.6013  -42.1473 C.3       12 UNK        -0.1800 
     72 C          -3.1615  -25.6025  -43.5063 C.2       12 UNK         0.5000 
     73 O          -3.8738  -26.3177  -42.8014 O.2       12 UNK        -0.5000 
     74 N          -2.8901  -25.8606  -44.7933 N.am      13 UNK        -0.5000 
     75 CA         -3.4790  -26.9222  -45.6105 C.3       13 UNK         0.1400 
     76 CB         -2.3459  -27.8190  -46.1399 C.3       13 UNK        -0.1800 
     77 C          -4.3196  -26.3153  -46.7561 C.2       13 UNK         0.5000 
     78 O          -4.4180  -26.9096  -47.8323 O.2       13 UNK        -0.5000 
     79 N          -4.8724  -25.1118  -46.5267 N.am      14 UNK        -0.5000 
     80 CA         -5.6876  -24.2962  -47.4385 C.3       14 UNK         0.1400 
     81 CB         -7.0409  -24.9865  -47.7075 C.3       14 UNK        -0.1800 
     82 C          -4.9741  -23.8977  -48.7486 C.2       14 UNK         0.5000 
     83 O          -5.6445  -23.5495  -49.7208 O.2       14 UNK        -0.5000 
     84 N          -3.6361  -23.9978  -48.7757 N.am      15 UNK        -0.5000 
     85 CA         -2.7612  -23.8627  -49.9424 C.3       15 UNK         0.1400 
     86 CB         -2.6630  -22.3894  -50.3863 C.3       15 UNK        -0.1800 
     87 C          -3.1565  -24.8312  -51.0752 C.2       15 UNK         0.5000 
     88 O          -3.1801  -24.4392  -52.2428 O.2       15 UNK        -0.5000 
     89 N          -3.5062  -26.0708  -50.6942 N.am      16 UNK        -0.5000 
     90 CA         -4.0283  -27.1397  -51.5538 C.3       16 UNK         0.1400 
     91 CB         -2.9520  -27.6129  -52.5543 C.3       16 UNK        -0.1800 
     92 C          -5.3635  -26.7516  -52.2275 C.2       16 UNK         0.5000 
     93 O          -5.5819  -27.0675  -53.3969 O.2       16 UNK        -0.5000 
     94 N          -6.2170  -26.0522  -51.4636 N.am      17 UNK        -0.5000 
     95 CA         -7.4665  -25.4058  -51.8780 C.3       17 UNK         0.1400 
     96 CB         -8.5075  -26.4399  -52.3567 C.3       17 UNK        -0.1800 
     97 C          -7.2069  -24.2701  -52.8899 C.2       17 UNK         0.5000 
     98 O          -7.8266  -24.2296  -53.9545 O.2       17 UNK        -0.5000 
     99 N          -6.2792  -23.3744  -52.5182 N.am      18 UNK        -0.5000 
    100 CA        -5.7997  -22.2099  -53.2708 C.3       18 UNK         0.1400 
    101 CB        -6.8926  -21.1240  -53.3302 C.3       18 UNK        -0.1800 
    102 C         -5.2326  -22.5812  -54.6579 C.2       18 UNK         0.5000 
    103 O         -5.6038  -21.9759  -55.6662 O.2       18 UNK        -0.5000 
    104 N         -4.3559  -23.5916  -54.6778 N.am      19 UNK        -0.5000 
    105 CA        -3.6957  -24.1075  -55.8771 C.3       19 UNK         0.1400 
    106 CB        -4.1414  -25.5572  -56.1184 C.3       19 UNK        -0.1800 
    107 C         -2.1651  -24.0269  -55.7639 C.2       19 UNK         0.5000 
    108 O         -1.5015  -23.8125  -56.7791 O.2       19 UNK        -0.5000 
    109 N         -1.6226  -24.1843  -54.5475 N.am      20 UNK        -0.5000 
    110 CA        -0.1903  -24.0729  -54.2637 C.3       20 UNK         0.1400 
    111 CB         0.1209  -24.7693  -52.9292 C.3       20 UNK        -0.1800 
    112 C          0.2781  -22.6074  -54.2253 C.2       20 UNK         0.5000 
    113 O          1.4204  -22.3232  -54.5874 O.2       20 UNK        -0.5000 
    114 N         -0.6164  -21.7088  -53.8003 N.am      21 UNK        -0.5000 
    115 CA        -0.4229  -20.2679  -53.7279 C.3       21 UNK         0.1400 
    116 CB         0.4250  -19.9076  -52.4941 C.3       21 UNK        -0.1800 
    117 C         -1.8095  -19.6149  -53.6587 C.2       21 UNK         0.5000 
    118 O         -2.7278  -20.2086  -53.0877 O.2       21 UNK        -0.5000 
    119 N         -1.9313  -18.4101  -54.2313 N.am      22 UNK        -0.5000 
    120 CA        -3.1589  -17.5871  -54.2690 C.3       22 UNK         0.1400 
    121 C         -4.3637  -18.2326  -55.0252 C.2       22 UNK         0.5000 
    122 N         -4.1447  -19.2167  -55.8878 N.am      22 UNK        -0.7600 
    123 O         -5.5079  -17.8201  -54.8561 O.2       22 UNK        -0.5000 
    124 C124       -3.5525  -17.0323  -52.8690 C.3       23 UNK        -0.0398 
    125 S125       -2.3013  -15.8760  -52.2104 S.3       23 UNK        -0.2404 
    126 C126       -1.4443  -16.8949  -50.9726 C.3       23 UNK        -0.0205 
    127 H127       -0.0206  -10.7648  -48.0755 H         1 UNK         0.0600 
    128 H128       -0.9243   -9.5121  -47.2176 H         1 UNK         0.0600 
    129 H129       -1.6967  -11.0544  -47.6014 H         1 UNK         0.0600 
    130 H130       -1.8768  -12.3382  -45.8181 H         1 UNK         0.3000 
    131 H131        0.3290  -13.1063  -44.1655 H         1 UNK         0.0600 
    132 H132       -1.3346  -14.6188  -43.0862 H         1 UNK         0.0800 
    133 H133       -2.6327  -13.8574  -43.9626 H         1 UNK         0.0800 
    134 H134       -3.5983  -14.8965  -45.8874 H         1 UNK         0.0800 
    135 H135       -2.5409  -13.9971  -46.9540 H         1 UNK         0.0800 
    136 H136       -1.4925  -15.1083  -48.9238 H         1 UNK         0.1150 
    137 H137       -3.0658  -18.9158  -50.1122 H         1 UNK         0.1150 
    138 H138       -4.1348  -17.2282  -46.3132 H         1 UNK         0.1150 
    139 H139       -5.5481  -19.2759  -48.3145 H         1 UNK         0.0800 
    140 H140       -4.1506  -20.3147  -48.4534 H         1 UNK         0.0800 
    141 H141       -2.7857  -20.0426  -44.6976 H         1 UNK         0.0800 
    142 H142       -2.3271  -19.7678  -46.3499 H         1 UNK         0.0800 
    143 H143       -3.3121  -22.1935  -46.7709 H         1 UNK         0.0600 
    144 H144       -0.7076  -21.3319  -46.2826 H         1 UNK         0.3000 
    145 H145        0.9878  -24.3964  -46.9539 H         1 UNK         0.0600 
    146 H146        2.0251  -22.8128  -48.6310 H         1 UNK         0.0600 
    147 H147        0.5097  -23.5051  -49.1813 H         1 UNK         0.0600 
    148 H148        0.5498  -21.8482  -48.6016 H         1 UNK         0.0600 
    149 H149        1.5619  -21.5899  -46.2692 H         1 UNK         0.3000 
    150 H150        2.1105  -22.2622  -42.8310 H         1 UNK         0.0600 
    151 H151        4.2879  -23.0187  -43.7966 H         1 UNK         0.0600 
    152 H152        4.3808  -21.3525  -43.2498 H         1 UNK         0.0600 
    153 H153        4.2373  -21.7098  -44.9714 H         1 UNK         0.0600 
    154 H154        2.5820  -19.9507  -44.4536 H         1 UNK         0.3000 
    155 H155       -0.7021  -18.6354  -44.4374 H         1 UNK         0.0600 
    156 H156        0.1521  -18.0432  -42.1622 H         1 UNK         0.0600 
    157 H157        0.4021  -16.7296  -43.2999 H         1 UNK         0.0600 
    158 H158        1.7550  -17.7541  -42.8313 H         1 UNK         0.0600 
    159 H159        1.6562  -17.4318  -45.3345 H         1 UNK         0.3000 
    160 H160        2.7973  -18.7201  -47.7195 H         1 UNK         0.0600 
    161 H161        0.1698  -18.3631  -49.2321 H         1 UNK         0.0600 
    162 H162        1.3117  -19.6876  -49.3707 H         1 UNK         0.0600 
    163 H163        1.7483  -18.0995  -49.9770 H         1 UNK         0.0600 
    164 H164        1.1283  -16.3459  -47.2424 H         1 UNK         0.3000 
    165 H165        3.6111  -14.1162  -48.2827 H         1 UNK         0.0600 
    166 H166        1.6894  -12.8994  -47.4721 H         1 UNK         0.0600 
    167 H167        1.0746  -14.2241  -48.4452 H         1 UNK         0.0600 
    168 H168        1.0137  -14.3131  -46.6850 H         1 UNK         0.0600 
    169 H169        4.4259  -13.6812  -46.2685 H         1 UNK         0.3000 
    170 H170        3.6774  -14.5264  -42.9587 H         1 UNK         0.0600 
    171 H171        5.2266  -16.3940  -43.5248 H         1 UNK         0.0600 
    172 H172        6.1863  -15.3195  -44.5349 H         1 UNK         0.0600 
    173 H173        6.0992  -15.0572  -42.7924 H         1 UNK         0.0600 
    174 H174        5.6893  -12.9158  -44.2938 H         1 UNK         0.3000 
    175 H175        5.2620  -10.3879  -43.6288 H         1 UNK         0.0600 
    176 H176        4.2963  -10.9829  -46.4954 H         1 UNK         0.0600 
    177 H177        5.4026   -9.6815  -46.0661 H         1 UNK         0.0600 
    178 H178        5.8956  -11.3486  -45.8523 H         1 UNK         0.0600 
    179 H179        2.4780  -10.0464  -44.4087 H         1 UNK         0.3000 
    180 H180        2.4070   -6.7272  -43.1720 H         1 UNK         0.0600 
    181 H181        1.6585   -7.7352  -45.9722 H         1 UNK         0.0600 
    182 H182        2.6638   -6.3326  -45.6263 H         1 UNK         0.0600 
    183 H183        0.9696   -6.3280  -45.1613 H         1 UNK         0.0600 
    184 H184        0.4524   -8.6655  -44.0722 H         1 UNK         0.3000 
    185 H185        0.0297  -10.2455  -40.8859 H         1 UNK         0.0600 
    186 H186       -1.4638   -8.2084  -40.9544 H         1 UNK         0.0600 
    187 H187       -1.8020   -8.5181  -42.6538 H         1 UNK         0.0600 
    188 H188       -2.3282   -9.6622  -41.4213 H         1 UNK         0.0600 
    189 H189        0.3475  -10.5686  -43.7090 H         1 UNK         0.3000 
    190 H190       -1.3335  -23.0069  -44.0536 H         1 UNK         0.3000 
    191 H191       -3.2994  -23.8989  -42.2077 H         1 UNK         0.0600 
    192 H192       -0.5101  -25.0262  -42.8016 H         1 UNK         0.0600 
    193 H193       -0.8610  -23.6981  -41.6954 H         1 UNK         0.0600 
    194 H194       -1.4492  -25.3167  -41.3432 H         1 UNK         0.0600 
    195 H195       -2.2960  -25.2145  -45.3052 H         1 UNK         0.3000 
    196 H196       -4.1549  -27.5372  -45.0137 H         1 UNK         0.0600 
    197 H197       -1.7572  -28.2325  -45.3209 H         1 UNK         0.0600 
    198 H198       -1.6691  -27.2655  -46.7923 H         1 UNK         0.0600 
    199 H199       -2.7415  -28.6603  -46.7102 H         1 UNK         0.0600 
    200 H200       -4.7121  -24.6855  -45.6204 H         1 UNK         0.3000 
    201 H201       -5.8916  -23.3615  -46.9145 H         1 UNK         0.0600 
    202 H202       -7.7131  -24.3333  -48.2653 H         1 UNK         0.0600 
    203 H203       -7.5437  -25.2419  -46.7748 H         1 UNK         0.0600 
    204 H204       -6.9220  -25.9035  -48.2852 H         1 UNK         0.0600 
    205 H205       -3.1617  -24.2993  -47.9306 H         1 UNK         0.3000 
    206 H206       -1.7676  -24.1764  -49.6231 H         1 UNK         0.0600 
    207 H207       -2.3155  -21.7568  -49.5693 H         1 UNK         0.0600 
    208 H208       -3.6227  -22.0001  -50.7249 H         1 UNK         0.0600 
    209 H209       -1.9538  -22.2722  -51.2058 H         1 UNK         0.0600 
    210 H210       -3.5098  -26.2812  -49.7019 H         1 UNK         0.3000 
    211 H211       -4.2556  -27.9785  -50.8943 H         1 UNK         0.0600 
    212 H212       -2.0374  -27.9042  -52.0381 H         1 UNK         0.0600 
    213 H213       -3.2962  -28.4810  -53.1173 H         1 UNK         0.0600 
    214 H214       -2.6943  -26.8381  -53.2758 H         1 UNK         0.0600 
    215 H215       -5.9093  -25.8193  -50.5303 H         1 UNK         0.3000 
    216 H216       -7.8727  -24.9293  -50.9844 H         1 UNK         0.0600 
    217 H217       -9.4720  -25.9634  -52.5351 H         1 UNK         0.0600 
    218 H218       -8.2086  -26.9233  -53.2870 H         1 UNK         0.0600 
    219 H219       -8.6630  -27.2174  -51.6089 H         1 UNK         0.0600 
    220 H220       -5.8667  -23.4915  -51.5956 H         1 UNK         0.3000 
    221 H221       -4.9638  -21.8003  -52.7032 H         1 UNK         0.0600 
    222 H222       -7.7581  -21.4506  -53.9074 H         1 UNK         0.0600 
    223 H223       -7.2356  -20.8561  -52.3310 H         1 UNK         0.0600 
    224 H224       -6.5121  -20.2147  -53.7957 H         1 UNK         0.0600 
    225 H225       -4.0958  -24.0167  -53.7915 H         1 UNK         0.3000 
    226 H226       -3.9809  -23.5192  -56.7516 H         1 UNK         0.0600 
    227 H227       -5.2255  -25.6254  -56.2118 H         1 UNK         0.0600 
    228 H228       -3.7076  -25.9518  -57.0379 H         1 UNK         0.0600 
    229 H229       -3.8358  -26.2131  -55.3036 H         1 UNK         0.0600 
    230 H230       -2.2270  -24.3466  -53.7454 H         1 UNK         0.3000 
    231 H231        0.3642  -24.5860  -55.0523 H         1 UNK         0.0600 
    232 H232        1.1951  -24.7843  -52.7413 H         1 UNK         0.0600 
    233 H233       -0.2240  -25.8035  -52.9312 H         1 UNK         0.0600 
    234 H234       -0.3485  -24.2588  -52.0882 H         1 UNK         0.0600 
    235 H235       -1.5479  -22.0129  -53.5460 H         1 UNK         0.3000 
    236 H236        0.0845  -19.9321  -54.6347 H         1 UNK         0.0600 
    237 H237        1.3942  -20.4057  -52.5140 H         1 UNK         0.0600 
    238 H238        0.6195  -18.8356  -52.4541 H         1 UNK         0.0600 
    239 H239       -0.0758  -20.1916  -51.5674 H         1 UNK         0.0600 
    240 H240       -1.1259  -18.0007  -54.6827 H         1 UNK         0.3000 
    241 H241       -2.9053  -16.7261  -54.8884 H         1 UNK         0.0600 
    242 H242       -4.9272  -19.6645  -56.3403 H         1 UNK         0.3800 
    243 H243       -3.2124  -19.5588  -56.0492 H         1 UNK         0.3800 
    244 H244       -4.4860  -16.4705  -52.9238 H         1 UNK         0.0800 
    245 H245       -3.7366  -17.8446  -52.1663 H         1 UNK         0.0800 
    246 H246       -0.4622  -16.4595  -50.7825 H         1 UNK         0.0800 
    247 H247       -1.2625  -17.8892  -51.3752 H         1 UNK         0.0800 
@<TRIPOS>BOND
     1    1    2 1    
     2    1  127 1    
     3    1  128 1    
     4    1  129 1    
     5    2    3 2    
     6    2    4 am   BACKBONE|DICT|INTERRES
     7    4    5 1    
     8    4  130 1    
     9    5    6 1    
    10    5   65 1    
    11    5  131 1    
    12    6    7 1    
    13    6  132 1    
    14    6  133 1    
    15    7    8 1    
    16    8    9 1    
    17    8  134 1    
    18    8  135 1    
    19    9   10 ar   
    20    9   14 ar   
    21   10   11 ar   
    22   10  136 1    
    23   11   12 ar   
    24   11  126 1    
    25   12   13 ar   
    26   12  137 1    
    27   13   14 ar   
    28   13   15 1    
    29   14  138 1    
    30   15   16 1    
    31   15  139 1    
    32   15  140 1    
    33   16   17 1    
    34   17   18 1    
    35   17  141 1    
    36   17  142 1    
    37   18   19 1    
    38   18   67 1    
    39   18  143 1    
    40   19   20 am   BACKBONE|DICT|INTERRES
    41   19  144 1    
    42   20   21 2    
    43   20   22 1    
    44   22   23 1    
    45   22   24 1    
    46   22  145 1    
    47   23  146 1    
    48   23  147 1    
    49   23  148 1    
    50   24   25 am   BACKBONE|DICT|INTERRES
    51   24  149 1    
    52   25   26 2    
    53   25   27 1    
    54   27   28 1    
    55   27   29 1    
    56   27  150 1    
    57   28  151 1    
    58   28  152 1    
    59   28  153 1    
    60   29   30 am   BACKBONE|DICT|INTERRES
    61   29  154 1    
    62   30   31 2    
    63   30   32 1    
    64   32   33 1    
    65   32   34 1    
    66   32  155 1    
    67   33  156 1    
    68   33  157 1    
    69   33  158 1    
    70   34   35 am   BACKBONE|DICT|INTERRES
    71   34  159 1    
    72   35   36 2    
    73   35   37 1    
    74   37   38 1    
    75   37   39 1    
    76   37  160 1    
    77   38  161 1    
    78   38  162 1    
    79   38  163 1    
    80   39   40 am   BACKBONE|DICT|INTERRES
    81   39  164 1    
    82   40   41 2    
    83   40   42 1    
    84   42   43 1    
    85   42   44 1    
    86   42  165 1    
    87   43  166 1    
    88   43  167 1    
    89   43  168 1    
    90   44   45 am   BACKBONE|DICT|INTERRES
    91   44  169 1    
    92   45   46 2    
    93   45   47 1    
    94   47   48 1    
    95   47   49 1    
    96   47  170 1    
    97   48  171 1    
    98   48  172 1    
    99   48  173 1    
   100   49   50 am   BACKBONE|DICT|INTERRES
   101   49  174 1    
   102   50   51 2    
   103   50   52 1    
   104   52   53 1    
   105   52   54 1    
   106   52  175 1    
   107   53  176 1    
   108   53  177 1    
   109   53  178 1    
   110   54   55 am   BACKBONE|DICT|INTERRES
   111   54  179 1    
   112   55   56 2    
   113   55   57 1    
   114   57   58 1    
   115   57   59 1    
   116   57  180 1    
   117   58  181 1    
   118   58  182 1    
   119   58  183 1    
   120   59   60 am   BACKBONE|DICT|INTERRES
   121   59  184 1    
   122   60   61 2    
   123   60   62 1    
   124   62   63 1    
   125   62   64 1    
   126   62  185 1    
   127   63  186 1    
   128   63  187 1    
   129   63  188 1    
   130   64   65 am   BACKBONE|DICT|INTERRES
   131   64  189 1    
   132   65   66 2    
   133   67   68 2    
   134   67   69 am   BACKBONE|DICT|INTERRES
   135   69   70 1    
   136   69  190 1    
   137   70   71 1    
   138   70   72 1    
   139   70  191 1    
   140   71  192 1    
   141   71  193 1    
   142   71  194 1    
   143   72   73 2    
   144   72   74 am   BACKBONE|DICT|INTERRES
   145   74   75 1    
   146   74  195 1    
   147   75   76 1    
   148   75   77 1    
   149   75  196 1    
   150   76  197 1    
   151   76  198 1    
   152   76  199 1    
   153   77   78 2    
   154   77   79 am   BACKBONE|DICT|INTERRES
   155   79   80 1    
   156   79  200 1    
   157   80   81 1    
   158   80   82 1    
   159   80  201 1    
   160   81  202 1    
   161   81  203 1    
   162   81  204 1    
   163   82   83 2    
   164   82   84 am   BACKBONE|DICT|INTERRES
   165   84   85 1    
   166   84  205 1    
   167   85   86 1    
   168   85   87 1    
   169   85  206 1    
   170   86  207 1    
   171   86  208 1    
   172   86  209 1    
   173   87   88 2    
   174   87   89 am   BACKBONE|DICT|INTERRES
   175   89   90 1    
   176   89  210 1    
   177   90   91 1    
   178   90   92 1    
   179   90  211 1    
   180   91  212 1    
   181   91  213 1    
   182   91  214 1    
   183   92   93 2    
   184   92   94 am   BACKBONE|DICT|INTERRES
   185   94   95 1    
   186   94  215 1    
   187   95   96 1    
   188   95   97 1    
   189   95  216 1    
   190   96  217 1    
   191   96  218 1    
   192   96  219 1    
   193   97   98 2    
   194   97   99 am   BACKBONE|DICT|INTERRES
   195   99  100 1    
   196   99  220 1    
   197  100  101 1    
   198  100  102 1    
   199  100  221 1    
   200  101  222 1    
   201  101  223 1    
   202  101  224 1    
   203  102  103 2    
   204  102  104 am   BACKBONE|DICT|INTERRES
   205  104  105 1    
   206  104  225 1    
   207  105  106 1    
   208  105  107 1    
   209  105  226 1    
   210  106  227 1    
   211  106  228 1    
   212  106  229 1    
   213  107  108 2    
   214  107  109 am   BACKBONE|DICT|INTERRES
   215  109  110 1    
   216  109  230 1    
   217  110  111 1    
   218  110  112 1    
   219  110  231 1    
   220  111  232 1    
   221  111  233 1    
   222  111  234 1    
   223  112  113 2    
   224  112  114 am   BACKBONE|DICT|INTERRES
   225  114  115 1    
   226  114  235 1    
   227  115  116 1    
   228  115  117 1    
   229  115  236 1    
   230  116  237 1    
   231  116  238 1    
   232  116  239 1    
   233  117  118 2    
   234  117  119 am   BACKBONE|DICT|INTERRES
   235  119  120 1    
   236  119  240 1    
   237  120  121 1    
   238  120  124 1    
   239  120  241 1    
   240  121  122 am   BACKBONE|DICT|INTERRES
   241  121  123 2    
   242  122  242 1    
   243  122  243 1    
   244  124  125 1    
   245  124  244 1    
   246  124  245 1    
   247  125  126 1    
   248  126  246 1    
   249  126  247 1    
@<TRIPOS>SUBSTRUCTURE
     1 UNK         1 GROUP             0       ****    0 ROOT    
