@<TRIPOS>MOLECULE
3R540
247   249    1
SMALL
USER_CHARGES


@<TRIPOS>ATOM
      1 CA         -6.1857  -12.3570  -47.7867 C.3       0 UNK        -0.1800 
      2 C          -4.9279  -13.1011  -47.3652 C.2       0 UNK         0.5000 
      3 O          -4.1527  -12.5832  -46.5617 O.2       0 UNK        -0.5000 
      4 N          -4.7326  -14.3201  -47.8860 N.am      1 UNK        -0.5000 
      5 CA         -3.5602  -15.1849  -47.6757 C.3       1 UNK         0.1400 
      6 C6         -3.6520  -16.4735  -48.5284 C.3       23 UNK        -0.0398 
      7 S7         -3.3873  -16.1677  -50.3059 S.3       23 UNK        -0.2404 
      8 C8         -1.5725  -16.0144  -50.3973 C.3       23 UNK        -0.0205 
      9 C9         -0.8416  -17.3119  -50.0817 C.ar      23 UNK        -0.0193 
     10 C10        -0.5716  -18.2220  -51.1054 C.ar      23 UNK        -0.1150 
     11 C11         0.1416  -19.3945  -50.8455 C.ar      23 UNK        -0.0193 
     12 C12         0.5694  -19.6620  -49.5435 C.ar      23 UNK        -0.1150 
     13 C13         0.2905  -18.7715  -48.5030 C.ar      23 UNK        -0.0193 
     14 C14        -0.4022  -17.5895  -48.7820 C.ar      23 UNK        -0.1150 
     15 C15         0.7444  -19.0866  -47.0841 C.3       23 UNK        -0.0205 
     16 S16        -0.4525  -20.1256  -46.1930 S.3       23 UNK        -0.2404 
     17 C17        -0.2693  -21.7160  -47.0823 C.3       23 UNK        -0.0398 
     18 CA         -0.7142  -22.9690  -46.2906 C.3       11 UNK         0.1400 
     19 N           0.0966  -23.1821  -45.0882 N.am      11 UNK        -0.5000 
     20 C          -0.0323  -24.1983  -44.2202 C.2       10 UNK         0.5000 
     21 O          -0.8149  -25.1330  -44.3878 O.2       10 UNK        -0.5000 
     22 CA          0.8000  -24.1500  -42.9208 C.3       10 UNK         0.1400 
     23 CB          1.9632  -25.1496  -42.9955 C.3       10 UNK        -0.1800 
     24 N           1.3351  -22.8248  -42.6038 N.am      10 UNK        -0.5000 
     25 C           0.6189  -21.7062  -42.4224 C.2       9 UNK         0.5000 
     26 O          -0.6118  -21.6900  -42.3614 O.2       9 UNK        -0.5000 
     27 CA          1.4015  -20.3771  -42.3647 C.3       9 UNK         0.1400 
     28 CB          1.4134  -19.8237  -40.9316 C.3       9 UNK        -0.1800 
     29 N           2.7849  -20.4317  -42.8630 N.am      9 UNK        -0.5000 
     30 C           3.1722  -20.7892  -44.0964 C.2       8 UNK         0.5000 
     31 O           2.4143  -21.2559  -44.9491 O.2       8 UNK        -0.5000 
     32 CA          4.6743  -20.6454  -44.4119 C.3       8 UNK         0.1400 
     33 CB          5.4011  -21.9731  -44.1486 C.3       8 UNK        -0.1800 
     34 N           4.9162  -20.2368  -45.7983 N.am      8 UNK        -0.5000 
     35 C           4.4777  -19.0928  -46.3387 C.2       7 UNK         0.5000 
     36 O           3.8773  -18.2272  -45.6956 O.2       7 UNK        -0.5000 
     37 CA          4.7434  -18.8761  -47.8401 C.3       7 UNK         0.1400 
     38 CB          4.4084  -20.1125  -48.6968 C.3       7 UNK        -0.1800 
     39 N           3.9322  -17.7468  -48.2783 N.am      7 UNK        -0.5000 
     40 C           4.2993  -16.7780  -49.1202 C.2       6 UNK         0.5000 
     41 O           5.3604  -16.7791  -49.7447 O.2       6 UNK        -0.5000 
     42 CA          3.3208  -15.5952  -49.2781 C.3       6 UNK         0.1400 
     43 CB          2.5557  -15.7015  -50.6056 C.3       6 UNK        -0.1800 
     44 N           2.3466  -15.4886  -48.1866 N.am      6 UNK        -0.5000 
     45 C           2.6166  -15.0759  -46.9412 C.2       5 UNK         0.5000 
     46 O           3.7295  -14.6964  -46.5726 O.2       5 UNK        -0.5000 
     47 CA          1.4279  -15.0562  -45.9581 C.3       5 UNK         0.1400 
     48 CB          1.8443  -15.4360  -44.5274 C.3       5 UNK        -0.1800 
     49 N           0.7781  -13.7492  -45.9250 N.am      5 UNK        -0.5000 
     50 C           0.0664  -13.2136  -46.9226 C.2       4 UNK         0.5000 
     51 O          -0.1250  -13.7764  -48.0003 O.2       4 UNK        -0.5000 
     52 CA         -0.5722  -11.8419  -46.6396 C.3       4 UNK         0.1400 
     53 CB         -1.2237  -11.2243  -47.8902 C.3       4 UNK        -0.1800 
     54 N          -1.5870  -11.9618  -45.5961 N.am      4 UNK        -0.5000 
     55 C          -1.3571  -11.9486  -44.2771 C.2       3 UNK         0.5000 
     56 O          -0.2364  -11.8190  -43.7825 O.2       3 UNK        -0.5000 
     57 CA         -2.5778  -12.1452  -43.3655 C.3       3 UNK         0.1400 
     58 CB         -3.4752  -10.8971  -43.3754 C.3       3 UNK        -0.1800 
     59 N          -3.3553  -13.3025  -43.8044 N.am      3 UNK        -0.5000 
     60 C          -3.3482  -14.5028  -43.2082 C.2       2 UNK         0.5000 
     61 O          -2.7349  -14.7484  -42.1689 O.2       2 UNK        -0.5000 
     62 CA         -4.1610  -15.6275  -43.8841 C.3       2 UNK         0.1400 
     63 CB         -5.5627  -15.7271  -43.2636 C.3       2 UNK        -0.1800 
     64 N          -4.2930  -15.4540  -45.3316 N.am      2 UNK        -0.5000 
     65 C          -3.2768  -15.5466  -46.2006 C.2       1 UNK         0.5000 
     66 O          -2.1388  -15.8854  -45.8764 O.2       1 UNK        -0.5000 
     67 C          -2.2362  -22.9479  -46.0282 C.2       11 UNK         0.5000 
     68 O          -2.9987  -23.3671  -46.9000 O.2       11 UNK        -0.5000 
     69 N          -2.6497  -22.4840  -44.8402 N.am      12 UNK        -0.5000 
     70 CA         -4.0443  -22.4653  -44.4032 C.3       12 UNK         0.1400 
     71 CB         -4.1810  -21.5231  -43.1985 C.3       12 UNK        -0.1800 
     72 C          -4.5756  -23.8702  -44.0638 C.2       12 UNK         0.5000 
     73 O          -5.7421  -24.1567  -44.3322 O.2       12 UNK        -0.5000 
     74 N          -3.7102  -24.7247  -43.5009 N.am      13 UNK        -0.5000 
     75 CA         -4.0186  -26.1142  -43.1595 C.3       13 UNK         0.1400 
     76 CB         -3.0491  -26.5990  -42.0701 C.3       13 UNK        -0.1800 
     77 C          -3.9566  -27.0293  -44.3944 C.2       13 UNK         0.5000 
     78 O          -4.8025  -27.9110  -44.5455 O.2       13 UNK        -0.5000 
     79 N          -2.9695  -26.7838  -45.2667 N.am      14 UNK        -0.5000 
     80 CA         -2.7639  -27.4912  -46.5323 C.3       14 UNK         0.1400 
     81 CB         -1.3353  -27.2059  -47.0225 C.3       14 UNK        -0.1800 
     82 C          -3.7850  -27.1129  -47.6247 C.2       14 UNK         0.5000 
     83 O          -3.8839  -27.8250  -48.6242 O.2       14 UNK        -0.5000 
     84 N          -4.4953  -25.9919  -47.4273 N.am      15 UNK        -0.5000 
     85 CA         -5.4503  -25.3554  -48.3419 C.3       15 UNK         0.1400 
     86 CB         -6.6448  -26.2806  -48.6526 C.3       15 UNK        -0.1800 
     87 C          -4.7892  -24.7765  -49.6113 C.2       15 UNK         0.5000 
     88 O          -5.4690  -24.5459  -50.6112 O.2       15 UNK        -0.5000 
     89 N          -3.4814  -24.4969  -49.5349 N.am      16 UNK        -0.5000 
     90 CA         -2.7129  -23.7866  -50.5579 C.3       16 UNK         0.1400 
     91 CB         -1.2152  -24.0279  -50.3179 C.3       16 UNK        -0.1800 
     92 C          -3.0380  -22.2799  -50.5742 C.2       16 UNK         0.5000 
     93 O          -2.9300  -21.6467  -51.6222 O.2       16 UNK        -0.5000 
     94 N          -3.4866  -21.7533  -49.4246 N.am      17 UNK        -0.5000 
     95 CA         -3.9665  -20.3829  -49.2273 C.3       17 UNK         0.1400 
     96 CB         -4.1008  -20.1408  -47.7151 C.3       17 UNK        -0.1800 
     97 C          -5.3070  -20.0710  -49.9300 C.2       17 UNK         0.5000 
     98 O          -5.7443  -18.9210  -49.9044 O.2       17 UNK        -0.5000 
     99 N          -5.9576  -21.0839  -50.5223 N.am      18 UNK        -0.5000 
    100 CA        -7.2260  -20.9604  -51.2453 C.3       18 UNK         0.1400 
    101 CB        -7.7901  -22.3653  -51.5052 C.3       18 UNK        -0.1800 
    102 C         -7.1229  -20.1680  -52.5655 C.2       18 UNK         0.5000 
    103 O         -8.1519  -19.7230  -53.0765 O.2       18 UNK        -0.5000 
    104 N         -5.9040  -20.0009  -53.0913 N.am      19 UNK        -0.5000 
    105 CA        -5.5921  -19.1814  -54.2553 C.3       19 UNK         0.1400 
    106 CB        -5.2805  -20.0970  -55.4499 C.3       19 UNK        -0.1800 
    107 C         -4.3835  -18.2998  -53.9202 C.2       19 UNK         0.5000 
    108 O         -3.4981  -18.7294  -53.1774 O.2       19 UNK        -0.5000 
    109 N         -4.3357  -17.1009  -54.5123 N.am      20 UNK        -0.5000 
    110 CA        -3.2560  -16.1223  -54.3563 C.3       20 UNK         0.1400 
    111 CB        -3.8150  -14.7173  -54.6443 C.3       20 UNK        -0.1800 
    112 C         -2.0244  -16.4690  -55.2222 C.2       20 UNK         0.5000 
    113 O         -1.5598  -15.6404  -56.0080 O.2       20 UNK        -0.5000 
    114 N         -1.5360  -17.7045  -55.0738 N.am      21 UNK        -0.5000 
    115 CA        -0.3227  -18.2274  -55.6954 C.3       21 UNK         0.1400 
    116 CB        -0.5509  -19.7158  -56.0274 C.3       21 UNK        -0.1800 
    117 C          0.8969  -17.9780  -54.7807 C.2       21 UNK         0.5000 
    118 O          0.8922  -17.0240  -53.9999 O.2       21 UNK        -0.5000 
    119 N          1.9212  -18.8358  -54.8888 N.am      22 UNK        -0.5000 
    120 CA         3.1598  -18.8143  -54.0841 C.3       22 UNK         0.1400 
    121 C          4.0946  -17.5912  -54.3487 C.2       22 UNK         0.5000 
    122 N          3.9118  -16.8357  -55.4249 N.am      22 UNK        -0.7600 
    123 O          5.0303  -17.3427  -53.5939 O.2       22 UNK        -0.5000 
    124 C124        2.9011  -19.0523  -52.5673 C.3       23 UNK        -0.0398 
    125 S125        2.2121  -20.7061  -52.2061 S.3       23 UNK        -0.2404 
    126 C126        0.4325  -20.3762  -51.9710 C.3       23 UNK        -0.0205 
    127 H127       -5.9189  -11.4140  -48.2636 H         1 UNK         0.0600 
    128 H128       -6.8006  -12.1370  -46.9141 H         1 UNK         0.0600 
    129 H129       -6.7845  -12.9370  -48.4892 H         1 UNK         0.0600 
    130 H130       -5.4116  -14.6791  -48.5422 H         1 UNK         0.3000 
    131 H131       -2.6922  -14.6117  -48.0034 H         1 UNK         0.0600 
    132 H132       -2.9494  -17.2377  -48.1992 H         1 UNK         0.0800 
    133 H133       -4.6376  -16.9250  -48.4094 H         1 UNK         0.0800 
    134 H134       -1.3027  -15.6845  -51.4016 H         1 UNK         0.0800 
    135 H135       -1.2380  -15.2221  -49.7316 H         1 UNK         0.0800 
    136 H136       -0.9118  -18.0092  -52.1089 H         1 UNK         0.1150 
    137 H137        1.1178  -20.5710  -49.3457 H         1 UNK         0.1150 
    138 H138       -0.6134  -16.8905  -47.9852 H         1 UNK         0.1150 
    139 H139        1.7082  -19.5926  -47.0990 H         1 UNK         0.0800 
    140 H140        0.8935  -18.1664  -46.5193 H         1 UNK         0.0800 
    141 H141        0.7778  -21.8371  -47.3628 H         1 UNK         0.0800 
    142 H142       -0.8247  -21.6433  -48.0184 H         1 UNK         0.0800 
    143 H143       -0.5298  -23.8344  -46.9289 H         1 UNK         0.0600 
    144 H144        0.7885  -22.4635  -44.8954 H         1 UNK         0.3000 
    145 H145        0.1401  -24.4463  -42.1031 H         1 UNK         0.0600 
    146 H146        2.5096  -25.1916  -42.0531 H         1 UNK         0.0600 
    147 H147        1.6007  -26.1573  -43.2041 H         1 UNK         0.0600 
    148 H148        2.6699  -24.8848  -43.7833 H         1 UNK         0.0600 
    149 H149        2.3380  -22.7265  -42.6539 H         1 UNK         0.3000 
    150 H150        0.8611  -19.6707  -42.9983 H         1 UNK         0.0600 
    151 H151        1.9738  -20.4712  -40.2562 H         1 UNK         0.0600 
    152 H152        0.4003  -19.7353  -40.5365 H         1 UNK         0.0600 
    153 H153        1.8605  -18.8301  -40.8952 H         1 UNK         0.0600 
    154 H154        3.4884  -20.0904  -42.2239 H         1 UNK         0.3000 
    155 H155        5.0980  -19.8786  -43.7600 H         1 UNK         0.0600 
    156 H156        5.0239  -22.7716  -44.7892 H         1 UNK         0.0600 
    157 H157        5.2706  -22.2935  -43.1141 H         1 UNK         0.0600 
    158 H158        6.4729  -21.8788  -44.3246 H         1 UNK         0.0600 
    159 H159        5.3741  -20.9132  -46.3906 H         1 UNK         0.3000 
    160 H160        5.8025  -18.6356  -47.9512 H         1 UNK         0.0600 
    161 H161        3.3916  -20.4634  -48.5239 H         1 UNK         0.0600 
    162 H162        5.0837  -20.9406  -48.4814 H         1 UNK         0.0600 
    163 H163        4.5057  -19.8921  -49.7598 H         1 UNK         0.0600 
    164 H164        3.0907  -17.6039  -47.7386 H         1 UNK         0.3000 
    165 H165        3.9154  -14.6796  -49.2985 H         1 UNK         0.0600 
    166 H166        1.9302  -14.8246  -50.7737 H         1 UNK         0.0600 
    167 H167        3.2396  -15.7813  -51.4519 H         1 UNK         0.0600 
    168 H168        1.9100  -16.5787  -50.6217 H         1 UNK         0.0600 
    169 H169        1.3852  -15.6844  -48.4288 H         1 UNK         0.3000 
    170 H170        0.6911  -15.7895  -46.2895 H         1 UNK         0.0600 
    171 H171        2.3194  -16.4168  -44.5061 H         1 UNK         0.0600 
    172 H172        2.5496  -14.7188  -44.1057 H         1 UNK         0.0600 
    173 H173        0.9783  -15.4828  -43.8666 H         1 UNK         0.0600 
    174 H174        0.8582  -13.2214  -45.0647 H         1 UNK         0.3000 
    175 H175        0.2185  -11.1668  -46.3058 H         1 UNK         0.0600 
    176 H176       -0.4915  -11.0947  -48.6880 H         1 UNK         0.0600 
    177 H177       -2.0266  -11.8515  -48.2797 H         1 UNK         0.0600 
    178 H178       -1.6438  -10.2426  -47.6713 H         1 UNK         0.0600 
    179 H179       -2.5377  -12.1176  -45.9253 H         1 UNK         0.3000 
    180 H180       -2.2153  -12.2892  -42.3455 H         1 UNK         0.0600 
    181 H181       -3.8869  -10.6990  -44.3659 H         1 UNK         0.0600 
    182 H182       -2.9166  -10.0123  -43.0677 H         1 UNK         0.0600 
    183 H183       -4.3107  -11.0107  -42.6846 H         1 UNK         0.0600 
    184 H184       -3.8485  -13.1999  -44.6847 H         1 UNK         0.3000 
    185 H185       -3.6379  -16.5686  -43.7006 H         1 UNK         0.0600 
    186 H186       -5.5021  -15.8835  -42.1858 H         1 UNK         0.0600 
    187 H187       -6.1426  -14.8187  -43.4314 H         1 UNK         0.0600 
    188 H188       -6.1208  -16.5652  -43.6813 H         1 UNK         0.0600 
    189 H189       -5.1977  -15.1701  -45.6777 H         1 UNK         0.3000 
    190 H190       -1.9585  -22.1451  -44.1818 H         1 UNK         0.3000 
    191 H191       -4.6561  -22.0679  -45.2149 H         1 UNK         0.0600 
    192 H192       -3.8720  -20.5097  -43.4556 H         1 UNK         0.0600 
    193 H193       -5.2157  -21.4715  -42.8572 H         1 UNK         0.0600 
    194 H194       -3.5717  -21.8549  -42.3566 H         1 UNK         0.0600 
    195 H195       -2.7522  -24.4303  -43.3736 H         1 UNK         0.3000 
    196 H196       -5.0320  -26.1623  -42.7549 H         1 UNK         0.0600 
    197 H197       -3.2770  -27.6241  -41.7752 H         1 UNK         0.0600 
    198 H198       -3.1209  -25.9802  -41.1756 H         1 UNK         0.0600 
    199 H199       -2.0128  -26.5790  -42.4090 H         1 UNK         0.0600 
    200 H200       -2.2728  -26.0837  -45.0215 H         1 UNK         0.3000 
    201 H201       -2.8581  -28.5633  -46.3486 H         1 UNK         0.0600 
    202 H202       -1.1168  -27.7564  -47.9384 H         1 UNK         0.0600 
    203 H203       -0.5957  -27.5047  -46.2794 H         1 UNK         0.0600 
    204 H204       -1.1881  -26.1465  -47.2332 H         1 UNK         0.0600 
    205 H205       -4.2992  -25.4702  -46.5841 H         1 UNK         0.3000 
    206 H206       -5.8422  -24.4942  -47.7987 H         1 UNK         0.0600 
    207 H207       -7.0858  -26.6756  -47.7374 H         1 UNK         0.0600 
    208 H208       -7.4294  -25.7392  -49.1824 H         1 UNK         0.0600 
    209 H209       -6.3547  -27.1246  -49.2786 H         1 UNK         0.0600 
    210 H210       -3.0290  -24.6418  -48.6419 H         1 UNK         0.3000 
    211 H211       -2.9734  -24.1958  -51.5363 H         1 UNK         0.0600 
    212 H212       -0.8882  -23.6270  -49.3598 H         1 UNK         0.0600 
    213 H213       -0.6142  -23.5564  -51.0956 H         1 UNK         0.0600 
    214 H214       -0.9819  -25.0928  -50.3313 H         1 UNK         0.0600 
    215 H215       -3.5259  -22.3584  -48.6119 H         1 UNK         0.3000 
    216 H216       -3.2185  -19.6950  -49.6284 H         1 UNK         0.0600 
    217 H217       -4.4572  -19.1345  -47.4978 H         1 UNK         0.0600 
    218 H218       -3.1442  -20.2566  -47.2105 H         1 UNK         0.0600 
    219 H219       -4.8062  -20.8382  -47.2631 H         1 UNK         0.0600 
    220 H220       -5.5383  -22.0027  -50.5059 H         1 UNK         0.3000 
    221 H221       -7.9279  -20.4268  -50.6013 H         1 UNK         0.0600 
    222 H222       -7.1338  -22.9464  -52.1542 H         1 UNK         0.0600 
    223 H223       -7.9192  -22.9194  -50.5751 H         1 UNK         0.0600 
    224 H224       -8.7662  -22.3124  -51.9891 H         1 UNK         0.0600 
    225 H225       -5.0961  -20.3382  -52.5814 H         1 UNK         0.3000 
    226 H226       -6.4338  -18.5329  -54.5072 H         1 UNK         0.0600 
    227 H227       -5.0359  -19.5130  -56.3380 H         1 UNK         0.0600 
    228 H228       -4.4332  -20.7524  -55.2432 H         1 UNK         0.0600 
    229 H229       -6.1366  -20.7246  -55.6979 H         1 UNK         0.0600 
    230 H230       -5.0776  -16.8408  -55.1461 H         1 UNK         0.3000 
    231 H231       -2.9216  -16.1336  -53.3175 H         1 UNK         0.0600 
    232 H232       -4.1700  -14.6270  -55.6716 H         1 UNK         0.0600 
    233 H233       -3.0522  -13.9532  -54.4898 H         1 UNK         0.0600 
    234 H234       -4.6457  -14.4809  -53.9790 H         1 UNK         0.0600 
    235 H235       -1.9855  -18.2968  -54.3826 H         1 UNK         0.3000 
    236 H236       -0.1355  -17.6994  -56.6324 H         1 UNK         0.0600 
    237 H237       -1.4498  -19.8453  -56.6307 H         1 UNK         0.0600 
    238 H238        0.2758  -20.1313  -56.6041 H         1 UNK         0.0600 
    239 H239       -0.6706  -20.3210  -55.1286 H         1 UNK         0.0600 
    240 H240        1.8533  -19.5879  -55.5589 H         1 UNK         0.3000 
    241 H241        3.7433  -19.6639  -54.4403 H         1 UNK         0.0600 
    242 H242        3.1579  -17.0270  -56.0645 H         1 UNK         0.3800 
    243 H243        4.5293  -16.0574  -55.5946 H         1 UNK         0.3800 
    244 H244        3.8327  -18.9827  -52.0041 H         1 UNK         0.0800 
    245 H245        2.2565  -18.2771  -52.1580 H         1 UNK         0.0800 
    246 H246        0.0059  -20.0230  -52.9081 H         1 UNK         0.0800 
    247 H247       -0.0716  -21.3162  -51.7490 H         1 UNK         0.0800 
@<TRIPOS>BOND
     1    1    2 1    
     2    1  127 1    
     3    1  128 1    
     4    1  129 1    
     5    2    3 2    
     6    2    4 am   BACKBONE|DICT|INTERRES
     7    4    5 1    
     8    4  130 1    
     9    5    6 1    
    10    5   65 1    
    11    5  131 1    
    12    6    7 1    
    13    6  132 1    
    14    6  133 1    
    15    7    8 1    
    16    8    9 1    
    17    8  134 1    
    18    8  135 1    
    19    9   10 ar   
    20    9   14 ar   
    21   10   11 ar   
    22   10  136 1    
    23   11   12 ar   
    24   11  126 1    
    25   12   13 ar   
    26   12  137 1    
    27   13   14 ar   
    28   13   15 1    
    29   14  138 1    
    30   15   16 1    
    31   15  139 1    
    32   15  140 1    
    33   16   17 1    
    34   17   18 1    
    35   17  141 1    
    36   17  142 1    
    37   18   19 1    
    38   18   67 1    
    39   18  143 1    
    40   19   20 am   BACKBONE|DICT|INTERRES
    41   19  144 1    
    42   20   21 2    
    43   20   22 1    
    44   22   23 1    
    45   22   24 1    
    46   22  145 1    
    47   23  146 1    
    48   23  147 1    
    49   23  148 1    
    50   24   25 am   BACKBONE|DICT|INTERRES
    51   24  149 1    
    52   25   26 2    
    53   25   27 1    
    54   27   28 1    
    55   27   29 1    
    56   27  150 1    
    57   28  151 1    
    58   28  152 1    
    59   28  153 1    
    60   29   30 am   BACKBONE|DICT|INTERRES
    61   29  154 1    
    62   30   31 2    
    63   30   32 1    
    64   32   33 1    
    65   32   34 1    
    66   32  155 1    
    67   33  156 1    
    68   33  157 1    
    69   33  158 1    
    70   34   35 am   BACKBONE|DICT|INTERRES
    71   34  159 1    
    72   35   36 2    
    73   35   37 1    
    74   37   38 1    
    75   37   39 1    
    76   37  160 1    
    77   38  161 1    
    78   38  162 1    
    79   38  163 1    
    80   39   40 am   BACKBONE|DICT|INTERRES
    81   39  164 1    
    82   40   41 2    
    83   40   42 1    
    84   42   43 1    
    85   42   44 1    
    86   42  165 1    
    87   43  166 1    
    88   43  167 1    
    89   43  168 1    
    90   44   45 am   BACKBONE|DICT|INTERRES
    91   44  169 1    
    92   45   46 2    
    93   45   47 1    
    94   47   48 1    
    95   47   49 1    
    96   47  170 1    
    97   48  171 1    
    98   48  172 1    
    99   48  173 1    
   100   49   50 am   BACKBONE|DICT|INTERRES
   101   49  174 1    
   102   50   51 2    
   103   50   52 1    
   104   52   53 1    
   105   52   54 1    
   106   52  175 1    
   107   53  176 1    
   108   53  177 1    
   109   53  178 1    
   110   54   55 am   BACKBONE|DICT|INTERRES
   111   54  179 1    
   112   55   56 2    
   113   55   57 1    
   114   57   58 1    
   115   57   59 1    
   116   57  180 1    
   117   58  181 1    
   118   58  182 1    
   119   58  183 1    
   120   59   60 am   BACKBONE|DICT|INTERRES
   121   59  184 1    
   122   60   61 2    
   123   60   62 1    
   124   62   63 1    
   125   62   64 1    
   126   62  185 1    
   127   63  186 1    
   128   63  187 1    
   129   63  188 1    
   130   64   65 am   BACKBONE|DICT|INTERRES
   131   64  189 1    
   132   65   66 2    
   133   67   68 2    
   134   67   69 am   BACKBONE|DICT|INTERRES
   135   69   70 1    
   136   69  190 1    
   137   70   71 1    
   138   70   72 1    
   139   70  191 1    
   140   71  192 1    
   141   71  193 1    
   142   71  194 1    
   143   72   73 2    
   144   72   74 am   BACKBONE|DICT|INTERRES
   145   74   75 1    
   146   74  195 1    
   147   75   76 1    
   148   75   77 1    
   149   75  196 1    
   150   76  197 1    
   151   76  198 1    
   152   76  199 1    
   153   77   78 2    
   154   77   79 am   BACKBONE|DICT|INTERRES
   155   79   80 1    
   156   79  200 1    
   157   80   81 1    
   158   80   82 1    
   159   80  201 1    
   160   81  202 1    
   161   81  203 1    
   162   81  204 1    
   163   82   83 2    
   164   82   84 am   BACKBONE|DICT|INTERRES
   165   84   85 1    
   166   84  205 1    
   167   85   86 1    
   168   85   87 1    
   169   85  206 1    
   170   86  207 1    
   171   86  208 1    
   172   86  209 1    
   173   87   88 2    
   174   87   89 am   BACKBONE|DICT|INTERRES
   175   89   90 1    
   176   89  210 1    
   177   90   91 1    
   178   90   92 1    
   179   90  211 1    
   180   91  212 1    
   181   91  213 1    
   182   91  214 1    
   183   92   93 2    
   184   92   94 am   BACKBONE|DICT|INTERRES
   185   94   95 1    
   186   94  215 1    
   187   95   96 1    
   188   95   97 1    
   189   95  216 1    
   190   96  217 1    
   191   96  218 1    
   192   96  219 1    
   193   97   98 2    
   194   97   99 am   BACKBONE|DICT|INTERRES
   195   99  100 1    
   196   99  220 1    
   197  100  101 1    
   198  100  102 1    
   199  100  221 1    
   200  101  222 1    
   201  101  223 1    
   202  101  224 1    
   203  102  103 2    
   204  102  104 am   BACKBONE|DICT|INTERRES
   205  104  105 1    
   206  104  225 1    
   207  105  106 1    
   208  105  107 1    
   209  105  226 1    
   210  106  227 1    
   211  106  228 1    
   212  106  229 1    
   213  107  108 2    
   214  107  109 am   BACKBONE|DICT|INTERRES
   215  109  110 1    
   216  109  230 1    
   217  110  111 1    
   218  110  112 1    
   219  110  231 1    
   220  111  232 1    
   221  111  233 1    
   222  111  234 1    
   223  112  113 2    
   224  112  114 am   BACKBONE|DICT|INTERRES
   225  114  115 1    
   226  114  235 1    
   227  115  116 1    
   228  115  117 1    
   229  115  236 1    
   230  116  237 1    
   231  116  238 1    
   232  116  239 1    
   233  117  118 2    
   234  117  119 am   BACKBONE|DICT|INTERRES
   235  119  120 1    
   236  119  240 1    
   237  120  121 1    
   238  120  124 1    
   239  120  241 1    
   240  121  122 am   BACKBONE|DICT|INTERRES
   241  121  123 2    
   242  122  242 1    
   243  122  243 1    
   244  124  125 1    
   245  124  244 1    
   246  124  245 1    
   247  125  126 1    
   248  126  246 1    
   249  126  247 1    
@<TRIPOS>SUBSTRUCTURE
     1 UNK         1 GROUP             0       ****    0 ROOT    
