@<TRIPOS>MOLECULE
3R540
247   249    1
SMALL
USER_CHARGES


@<TRIPOS>ATOM
      1 CA          0.2760   -8.6368  -46.2147 C.3       0 UNK        -0.1800 
      2 C           0.1763  -10.1293  -45.9381 C.2       0 UNK         0.5000 
      3 O           1.0444  -10.6847  -45.2658 O.2       0 UNK        -0.5000 
      4 N          -0.8858  -10.7780  -46.4357 N.am      1 UNK        -0.5000 
      5 CA         -1.1538  -12.2166  -46.2938 C.3       1 UNK         0.1400 
      6 C6         -2.4079  -12.6324  -47.1035 C.3       23 UNK        -0.0398 
      7 S7         -2.4684  -14.4106  -47.5126 S.3       23 UNK        -0.2404 
      8 C8         -1.6716  -14.4218  -49.1500 C.3       23 UNK        -0.0205 
      9 C9         -1.8847  -15.7440  -49.8719 C.ar      23 UNK        -0.0193 
     10 C10        -3.1332  -16.0259  -50.4322 C.ar      23 UNK        -0.1150 
     11 C11        -3.3432  -17.2071  -51.1460 C.ar      23 UNK        -0.0193 
     12 C12        -2.2894  -18.1093  -51.3020 C.ar      23 UNK        -0.1150 
     13 C13        -1.0372  -17.8514  -50.7364 C.ar      23 UNK        -0.0193 
     14 C14        -0.8409  -16.6652  -50.0190 C.ar      23 UNK        -0.1150 
     15 C15         0.1148  -18.8240  -50.9571 C.3       23 UNK        -0.0205 
     16 S16         0.1466  -20.2059  -49.7646 S.3       23 UNK        -0.2404 
     17 C17        -1.2480  -21.2626  -50.3116 C.3       23 UNK        -0.0398 
     18 CA         -2.4145  -21.3232  -49.2890 C.3       11 UNK         0.1400 
     19 N          -2.7382  -19.9927  -48.7625 N.am      11 UNK        -0.5000 
     20 C          -3.5525  -19.6938  -47.7441 C.2       10 UNK         0.5000 
     21 O          -4.3613  -20.4840  -47.2560 O.2       10 UNK        -0.5000 
     22 CA         -3.3952  -18.2675  -47.1779 C.3       10 UNK         0.1400 
     23 CB         -4.0957  -18.0772  -45.8171 C.3       10 UNK        -0.1800 
     24 N          -1.9833  -17.8609  -47.1090 N.am      10 UNK        -0.5000 
     25 C          -1.0065  -18.4552  -46.4055 C.2       9 UNK         0.5000 
     26 O          -1.1857  -19.4079  -45.6417 O.2       9 UNK        -0.5000 
     27 CA          0.4156  -17.8993  -46.5932 C.3       9 UNK         0.1400 
     28 CB          0.4751  -16.3879  -46.3054 C.3       9 UNK        -0.1800 
     29 N           1.3091  -18.6469  -45.7113 N.am      9 UNK        -0.5000 
     30 C           2.6437  -18.6010  -45.6940 C.2       8 UNK         0.5000 
     31 O           3.3203  -17.8666  -46.4170 O.2       8 UNK        -0.5000 
     32 CA          3.3496  -19.5517  -44.7178 C.3       8 UNK         0.1400 
     33 CB          4.0814  -20.6615  -45.5017 C.3       8 UNK        -0.1800 
     34 N           4.2707  -18.7638  -43.9026 N.am      8 UNK        -0.5000 
     35 C           5.0392  -19.2074  -42.9000 C.2       7 UNK         0.5000 
     36 O           5.0766  -20.3786  -42.5216 O.2       7 UNK        -0.5000 
     37 CA          5.8793  -18.1503  -42.1661 C.3       7 UNK         0.1400 
     38 CB          6.7863  -17.3622  -43.1279 C.3       7 UNK        -0.1800 
     39 N           4.9822  -17.2319  -41.4731 N.am      7 UNK        -0.5000 
     40 C           4.6483  -17.3168  -40.1775 C.2       6 UNK         0.5000 
     41 O           5.1771  -18.0949  -39.3825 O.2       6 UNK        -0.5000 
     42 CA          3.5157  -16.3917  -39.6830 C.3       6 UNK         0.1400 
     43 CB          4.0968  -15.1093  -39.0699 C.3       6 UNK        -0.1800 
     44 N           2.5672  -16.0345  -40.7401 N.am      6 UNK        -0.5000 
     45 C           1.7560  -16.9072  -41.3579 C.2       5 UNK         0.5000 
     46 O           1.6308  -18.0809  -41.0072 O.2       5 UNK        -0.5000 
     47 CA          0.9787  -16.4133  -42.5946 C.3       5 UNK         0.1400 
     48 CB         -0.5013  -16.1923  -42.2457 C.3       5 UNK        -0.1800 
     49 N           1.5142  -15.1992  -43.2177 N.am      5 UNK        -0.5000 
     50 C           2.7516  -15.0381  -43.7099 C.2       4 UNK         0.5000 
     51 O           3.6077  -15.9229  -43.7077 O.2       4 UNK        -0.5000 
     52 CA          3.1175  -13.6376  -44.2362 C.3       4 UNK         0.1400 
     53 CB          2.8623  -13.5373  -45.7463 C.3       4 UNK        -0.1800 
     54 N           2.4093  -12.5520  -43.5545 N.am      4 UNK        -0.5000 
     55 C           2.5074  -12.2647  -42.2481 C.2       3 UNK         0.5000 
     56 O           3.2120  -12.8951  -41.4595 O.2       3 UNK        -0.5000 
     57 CA          1.6386  -11.1061  -41.7336 C.3       3 UNK         0.1400 
     58 CB          2.2560   -9.7464  -42.0965 C.3       3 UNK        -0.1800 
     59 N           0.2819  -11.1927  -42.2723 N.am      3 UNK        -0.5000 
     60 C          -0.6767  -11.9822  -41.7681 C.2       2 UNK         0.5000 
     61 O          -0.5392  -12.6543  -40.7457 O.2       2 UNK        -0.5000 
     62 CA         -2.0131  -12.0439  -42.5346 C.3       2 UNK         0.1400 
     63 CB         -3.0074  -11.0211  -41.9644 C.3       2 UNK        -0.1800 
     64 N          -1.8749  -11.8233  -43.9759 N.am      2 UNK        -0.5000 
     65 C          -1.2474  -12.6590  -44.8161 C.2       1 UNK         0.5000 
     66 O          -0.7051  -13.7017  -44.4551 O.2       1 UNK        -0.5000 
     67 C          -3.6196  -22.0934  -49.8727 C.2       11 UNK         0.5000 
     68 O          -3.5528  -23.3127  -50.0099 O.2       11 UNK        -0.5000 
     69 N          -4.7040  -21.3774  -50.1994 N.am      12 UNK        -0.5000 
     70 CA         -5.9734  -21.9527  -50.6448 C.3       12 UNK         0.1400 
     71 CB         -6.7386  -20.9021  -51.4641 C.3       12 UNK        -0.1800 
     72 C          -6.8404  -22.5009  -49.4930 C.2       12 UNK         0.5000 
     73 O          -7.8080  -23.2097  -49.7693 O.2       12 UNK        -0.5000 
     74 N          -6.4914  -22.1807  -48.2401 N.am      13 UNK        -0.5000 
     75 CA         -7.1536  -22.6718  -47.0332 C.3       13 UNK         0.1400 
     76 CB         -7.7486  -21.4839  -46.2591 C.3       13 UNK        -0.1800 
     77 C          -6.1617  -23.4568  -46.1624 C.2       13 UNK         0.5000 
     78 O          -6.4444  -24.5976  -45.7940 O.2       13 UNK        -0.5000 
     79 N          -5.0103  -22.8432  -45.8606 N.am      14 UNK        -0.5000 
     80 CA         -3.9168  -23.4365  -45.0975 C.3       14 UNK         0.1400 
     81 CB         -3.0241  -22.3104  -44.5504 C.3       14 UNK        -0.1800 
     82 C          -3.1323  -24.4044  -45.9974 C.2       14 UNK         0.5000 
     83 O          -2.3257  -23.9522  -46.8102 O.2       14 UNK        -0.5000 
     84 N          -3.4259  -25.7065  -45.8603 N.am      15 UNK        -0.5000 
     85 CA         -2.9824  -26.8032  -46.7296 C.3       15 UNK         0.1400 
     86 CB         -1.4524  -26.9980  -46.6625 C.3       15 UNK        -0.1800 
     87 C          -3.5122  -26.5998  -48.1626 C.2       15 UNK         0.5000 
     88 O          -2.7309  -26.4386  -49.0994 O.2       15 UNK        -0.5000 
     89 N          -4.8493  -26.5841  -48.2751 N.am      16 UNK        -0.5000 
     90 CA         -5.6626  -26.1705  -49.4267 C.3       16 UNK         0.1400 
     91 CB         -7.1386  -26.4439  -49.0994 C.3       16 UNK        -0.1800 
     92 C          -5.3070  -26.7564  -50.8092 C.2       16 UNK         0.5000 
     93 O          -5.6965  -26.1743  -51.8208 O.2       16 UNK        -0.5000 
     94 N          -4.5557  -27.8644  -50.8537 N.am      17 UNK        -0.5000 
     95 CA         -3.9500  -28.4124  -52.0711 C.3       17 UNK         0.1400 
     96 CB         -3.2826  -29.7539  -51.7330 C.3       17 UNK        -0.1800 
     97 C          -2.9339  -27.4562  -52.7377 C.2       17 UNK         0.5000 
     98 O          -2.7134  -27.5535  -53.9449 O.2       17 UNK        -0.5000 
     99 N          -2.3582  -26.5329  -51.9547 N.am      18 UNK        -0.5000 
    100 CA        -1.4192  -25.4998  -52.3904 C.3       18 UNK         0.1400 
    101 CB        -0.5088  -25.1333  -51.2058 C.3       18 UNK        -0.1800 
    102 C         -2.0990  -24.2471  -52.9866 C.2       18 UNK         0.5000 
    103 O         -1.4186  -23.2383  -53.1760 O.2       18 UNK        -0.5000 
    104 N         -3.4047  -24.3109  -53.2979 N.am      19 UNK        -0.5000 
    105 CA        -4.2121  -23.2180  -53.8593 C.3       19 UNK         0.1400 
    106 CB        -5.6422  -23.7149  -54.1210 C.3       19 UNK        -0.1800 
    107 C         -3.6488  -22.5759  -55.1416 C.2       19 UNK         0.5000 
    108 O         -3.8870  -21.3911  -55.3733 O.2       19 UNK        -0.5000 
    109 N         -2.8768  -23.3418  -55.9255 N.am      20 UNK        -0.5000 
    110 CA        -2.1554  -22.8776  -57.1133 C.3       20 UNK         0.1400 
    111 CB        -1.4467  -24.0734  -57.7664 C.3       20 UNK        -0.1800 
    112 C         -1.1474  -21.7444  -56.8270 C.2       20 UNK         0.5000 
    113 O         -0.9210  -20.9035  -57.6984 O.2       20 UNK        -0.5000 
    114 N         -0.5993  -21.7029  -55.6024 N.am      21 UNK        -0.5000 
    115 CA         0.3020  -20.6491  -55.1307 C.3       21 UNK         0.1400 
    116 CB         1.0201  -21.1294  -53.8600 C.3       21 UNK        -0.1800 
    117 C         -0.4018  -19.2945  -54.8984 C.2       21 UNK         0.5000 
    118 O          0.2841  -18.2792  -54.7782 O.2       21 UNK        -0.5000 
    119 N         -1.7427  -19.2892  -54.8608 N.am      22 UNK        -0.5000 
    120 CA        -2.5769  -18.0769  -54.8653 C.3       22 UNK         0.1400 
    121 C         -2.6083  -17.3393  -56.2409 C.2       22 UNK         0.5000 
    122 N         -2.1575  -17.9432  -57.3365 N.am      22 UNK        -0.7600 
    123 O         -3.0348  -16.1909  -56.3183 O.2       22 UNK        -0.5000 
    124 C124       -4.0085  -18.3921  -54.3502 C.3       23 UNK        -0.0398 
    125 S125       -4.8095  -16.9928  -53.4913 S.3       23 UNK        -0.2404 
    126 C126       -4.7082  -17.5028  -51.7465 C.3       23 UNK        -0.0205 
    127 H127        1.1922   -8.4192  -46.7634 H         1 UNK         0.0600 
    128 H128        0.3003   -8.0834  -45.2759 H         1 UNK         0.0600 
    129 H129       -0.5680   -8.2752  -46.8024 H         1 UNK         0.0600 
    130 H130       -1.5644  -10.2562  -46.9721 H         1 UNK         0.3000 
    131 H131       -0.2915  -12.7272  -46.7267 H         1 UNK         0.0600 
    132 H132       -3.3223  -12.3682  -46.5692 H         1 UNK         0.0800 
    133 H133       -2.4518  -12.0729  -48.0387 H         1 UNK         0.0800 
    134 H134       -0.6076  -14.2087  -49.0362 H         1 UNK         0.0800 
    135 H135       -2.0819  -13.6198  -49.7654 H         1 UNK         0.0800 
    136 H136       -3.9405  -15.3154  -50.3203 H         1 UNK         0.1150 
    137 H137       -2.4453  -19.0067  -51.8800 H         1 UNK         0.1150 
    138 H138        0.1323  -16.4462  -49.6021 H         1 UNK         0.1150 
    139 H139        0.0723  -19.2149  -51.9717 H         1 UNK         0.0800 
    140 H140        1.0634  -18.2897  -50.8875 H         1 UNK         0.0800 
    141 H141       -0.8510  -22.2657  -50.4696 H         1 UNK         0.0800 
    142 H142       -1.5939  -20.9386  -51.2926 H         1 UNK         0.0800 
    143 H143       -2.0654  -21.9037  -48.4338 H         1 UNK         0.0600 
    144 H144       -2.1208  -19.2610  -49.0857 H         1 UNK         0.3000 
    145 H145       -3.8755  -17.5977  -47.8924 H         1 UNK         0.0600 
    146 H146       -5.1687  -18.2512  -45.9041 H         1 UNK         0.0600 
    147 H147       -3.7150  -18.7665  -45.0627 H         1 UNK         0.0600 
    148 H148       -3.9597  -17.0620  -45.4442 H         1 UNK         0.0600 
    149 H149       -1.7432  -17.0643  -47.6833 H         1 UNK         0.3000 
    150 H150        0.7238  -18.0847  -47.6234 H         1 UNK         0.0600 
    151 H151       -0.0107  -15.8217  -47.0962 H         1 UNK         0.0600 
    152 H152        1.4975  -16.0218  -46.2531 H         1 UNK         0.0600 
    153 H153       -0.0227  -16.1373  -45.3700 H         1 UNK         0.0600 
    154 H154        0.8111  -19.3093  -45.1270 H         1 UNK         0.3000 
    155 H155        2.6095  -20.0060  -44.0559 H         1 UNK         0.0600 
    156 H156        4.9063  -20.2582  -46.0902 H         1 UNK         0.0600 
    157 H157        3.4016  -21.1637  -46.1914 H         1 UNK         0.0600 
    158 H158        4.4841  -21.4287  -44.8413 H         1 UNK         0.0600 
    159 H159        4.2603  -17.7673  -44.1070 H         1 UNK         0.3000 
    160 H160        6.5239  -18.6675  -41.4523 H         1 UNK         0.0600 
    161 H161        6.2162  -16.7750  -43.8484 H         1 UNK         0.0600 
    162 H162        7.4341  -18.0352  -43.6909 H         1 UNK         0.0600 
    163 H163        7.4304  -16.6751  -42.5792 H         1 UNK         0.0600 
    164 H164        4.4592  -16.5975  -42.0684 H         1 UNK         0.3000 
    165 H165        2.9671  -16.9252  -38.9041 H         1 UNK         0.0600 
    166 H166        3.3084  -14.4592  -38.6900 H         1 UNK         0.0600 
    167 H167        4.7588  -15.3415  -38.2347 H         1 UNK         0.0600 
    168 H168        4.6764  -14.5426  -39.7997 H         1 UNK         0.0600 
    169 H169        2.6131  -15.0838  -41.0859 H         1 UNK         0.3000 
    170 H170        1.0354  -17.2105  -43.3360 H         1 UNK         0.0600 
    171 H171       -0.9289  -17.0734  -41.7654 H         1 UNK         0.0600 
    172 H172       -0.6306  -15.3506  -41.5647 H         1 UNK         0.0600 
    173 H173       -1.0948  -15.9972  -43.1385 H         1 UNK         0.0600 
    174 H174        0.8557  -14.4374  -43.3413 H         1 UNK         0.3000 
    175 H175        4.1858  -13.4952  -44.0617 H         1 UNK         0.0600 
    176 H176        3.2117  -12.5838  -46.1425 H         1 UNK         0.0600 
    177 H177        1.8011  -13.6250  -45.9778 H         1 UNK         0.0600 
    178 H178        3.3862  -14.3272  -46.2861 H         1 UNK         0.0600 
    179 H179        1.8270  -11.9577  -44.1397 H         1 UNK         0.3000 
    180 H180        1.5978  -11.1730  -40.6441 H         1 UNK         0.0600 
    181 H181        1.6604   -8.9253  -41.6973 H         1 UNK         0.0600 
    182 H182        2.3361   -9.6078  -43.1749 H         1 UNK         0.0600 
    183 H183        3.2595   -9.6526  -41.6796 H         1 UNK         0.0600 
    184 H184        0.1103  -10.7158  -43.1465 H         1 UNK         0.3000 
    185 H185       -2.4284  -13.0432  -42.3866 H         1 UNK         0.0600 
    186 H186       -3.9837  -11.1115  -42.4410 H         1 UNK         0.0600 
    187 H187       -3.1545  -11.1740  -40.8944 H         1 UNK         0.0600 
    188 H188       -2.6573   -9.9977  -42.1047 H         1 UNK         0.0600 
    189 H189       -2.2691  -10.9707  -44.3459 H         1 UNK         0.3000 
    190 H190       -4.6858  -20.3833  -50.0296 H         1 UNK         0.3000 
    191 H191       -5.7613  -22.8009  -51.2956 H         1 UNK         0.0600 
    192 H192       -7.6859  -21.3029  -51.8272 H         1 UNK         0.0600 
    193 H193       -6.1667  -20.5920  -52.3390 H         1 UNK         0.0600 
    194 H194       -6.9635  -20.0144  -50.8719 H         1 UNK         0.0600 
    195 H195       -5.6727  -21.5984  -48.0910 H         1 UNK         0.3000 
    196 H196       -7.9698  -23.3514  -47.2866 H         1 UNK         0.0600 
    197 H197       -6.9873  -20.7498  -45.9917 H         1 UNK         0.0600 
    198 H198       -8.5086  -20.9737  -46.8509 H         1 UNK         0.0600 
    199 H199       -8.2244  -21.8175  -45.3360 H         1 UNK         0.0600 
    200 H200       -4.8233  -21.9237  -46.2541 H         1 UNK         0.3000 
    201 H201       -4.3266  -23.9853  -44.2468 H         1 UNK         0.0600 
    202 H202       -3.5846  -21.6459  -43.8928 H         1 UNK         0.0600 
    203 H203       -2.6026  -21.7038  -45.3528 H         1 UNK         0.0600 
    204 H204       -2.1920  -22.7164  -43.9744 H         1 UNK         0.0600 
    205 H205       -4.1328  -25.9545  -45.1814 H         1 UNK         0.3000 
    206 H206       -3.4440  -27.7149  -46.3473 H         1 UNK         0.0600 
    207 H207       -1.1185  -27.1435  -45.6353 H         1 UNK         0.0600 
    208 H208       -1.1507  -27.8783  -47.2311 H         1 UNK         0.0600 
    209 H209       -0.9092  -26.1471  -47.0742 H         1 UNK         0.0600 
    210 H210       -5.3758  -26.7295  -47.4255 H         1 UNK         0.3000 
    211 H211       -5.5311  -25.0923  -49.5155 H         1 UNK         0.0600 
    212 H212       -7.7890  -26.1189  -49.9129 H         1 UNK         0.0600 
    213 H213       -7.4522  -25.9035  -48.2061 H         1 UNK         0.0600 
    214 H214       -7.3229  -27.5061  -48.9348 H         1 UNK         0.0600 
    215 H215       -4.2571  -28.2675  -49.9780 H         1 UNK         0.3000 
    216 H216       -4.7495  -28.5966  -52.7915 H         1 UNK         0.0600 
    217 H217       -2.4861  -29.6317  -50.9978 H         1 UNK         0.0600 
    218 H218       -2.8423  -30.2066  -52.6224 H         1 UNK         0.0600 
    219 H219       -4.0053  -30.4648  -51.3318 H         1 UNK         0.0600 
    220 H220       -2.5971  -26.5148  -50.9645 H         1 UNK         0.3000 
    221 H221       -0.7859  -25.9146  -53.1768 H         1 UNK         0.0600 
    222 H222        0.0004  -26.0135  -50.8132 H         1 UNK         0.0600 
    223 H223       -1.0777  -24.6874  -50.3891 H         1 UNK         0.0600 
    224 H224        0.2613  -24.4196  -51.5011 H         1 UNK         0.0600 
    225 H225       -3.9020  -25.1628  -53.0762 H         1 UNK         0.3000 
    226 H226       -4.2502  -22.4292  -53.1066 H         1 UNK         0.0600 
    227 H227       -5.6531  -24.5565  -54.8146 H         1 UNK         0.0600 
    228 H228       -6.1327  -24.0339  -53.2034 H         1 UNK         0.0600 
    229 H229       -6.2598  -22.9254  -54.5517 H         1 UNK         0.0600 
    230 H230       -2.7319  -24.3032  -55.6538 H         1 UNK         0.3000 
    231 H231       -2.8936  -22.4883  -57.8173 H         1 UNK         0.0600 
    232 H232       -0.7156  -24.5236  -57.0936 H         1 UNK         0.0600 
    233 H233       -0.9175  -23.7683  -58.6702 H         1 UNK         0.0600 
    234 H234       -2.1597  -24.8462  -58.0545 H         1 UNK         0.0600 
    235 H235       -0.8733  -22.3963  -54.9126 H         1 UNK         0.3000 
    236 H236        1.0601  -20.4865  -55.8997 H         1 UNK         0.0600 
    237 H237        0.3218  -21.3042  -53.0423 H         1 UNK         0.0600 
    238 H238        1.5606  -22.0588  -54.0398 H         1 UNK         0.0600 
    239 H239        1.7478  -20.3923  -53.5184 H         1 UNK         0.0600 
    240 H240       -2.2391  -20.1618  -54.9986 H         1 UNK         0.3000 
    241 H241       -2.1146  -17.3817  -54.1618 H         1 UNK         0.0600 
    242 H242       -2.1792  -17.4484  -58.2143 H         1 UNK         0.3800 
    243 H243       -1.7901  -18.8849  -57.3053 H         1 UNK         0.3800 
    244 H244       -3.9865  -19.2396  -53.6649 H         1 UNK         0.0800 
    245 H245       -4.6546  -18.7143  -55.1689 H         1 UNK         0.0800 
    246 H246       -5.4802  -16.9727  -51.1867 H         1 UNK         0.0800 
    247 H247       -4.9435  -18.5619  -51.6479 H         1 UNK         0.0800 
@<TRIPOS>BOND
     1    1    2 1    
     2    1  127 1    
     3    1  128 1    
     4    1  129 1    
     5    2    3 2    
     6    2    4 am   BACKBONE|DICT|INTERRES
     7    4    5 1    
     8    4  130 1    
     9    5    6 1    
    10    5   65 1    
    11    5  131 1    
    12    6    7 1    
    13    6  132 1    
    14    6  133 1    
    15    7    8 1    
    16    8    9 1    
    17    8  134 1    
    18    8  135 1    
    19    9   10 ar   
    20    9   14 ar   
    21   10   11 ar   
    22   10  136 1    
    23   11   12 ar   
    24   11  126 1    
    25   12   13 ar   
    26   12  137 1    
    27   13   14 ar   
    28   13   15 1    
    29   14  138 1    
    30   15   16 1    
    31   15  139 1    
    32   15  140 1    
    33   16   17 1    
    34   17   18 1    
    35   17  141 1    
    36   17  142 1    
    37   18   19 1    
    38   18   67 1    
    39   18  143 1    
    40   19   20 am   BACKBONE|DICT|INTERRES
    41   19  144 1    
    42   20   21 2    
    43   20   22 1    
    44   22   23 1    
    45   22   24 1    
    46   22  145 1    
    47   23  146 1    
    48   23  147 1    
    49   23  148 1    
    50   24   25 am   BACKBONE|DICT|INTERRES
    51   24  149 1    
    52   25   26 2    
    53   25   27 1    
    54   27   28 1    
    55   27   29 1    
    56   27  150 1    
    57   28  151 1    
    58   28  152 1    
    59   28  153 1    
    60   29   30 am   BACKBONE|DICT|INTERRES
    61   29  154 1    
    62   30   31 2    
    63   30   32 1    
    64   32   33 1    
    65   32   34 1    
    66   32  155 1    
    67   33  156 1    
    68   33  157 1    
    69   33  158 1    
    70   34   35 am   BACKBONE|DICT|INTERRES
    71   34  159 1    
    72   35   36 2    
    73   35   37 1    
    74   37   38 1    
    75   37   39 1    
    76   37  160 1    
    77   38  161 1    
    78   38  162 1    
    79   38  163 1    
    80   39   40 am   BACKBONE|DICT|INTERRES
    81   39  164 1    
    82   40   41 2    
    83   40   42 1    
    84   42   43 1    
    85   42   44 1    
    86   42  165 1    
    87   43  166 1    
    88   43  167 1    
    89   43  168 1    
    90   44   45 am   BACKBONE|DICT|INTERRES
    91   44  169 1    
    92   45   46 2    
    93   45   47 1    
    94   47   48 1    
    95   47   49 1    
    96   47  170 1    
    97   48  171 1    
    98   48  172 1    
    99   48  173 1    
   100   49   50 am   BACKBONE|DICT|INTERRES
   101   49  174 1    
   102   50   51 2    
   103   50   52 1    
   104   52   53 1    
   105   52   54 1    
   106   52  175 1    
   107   53  176 1    
   108   53  177 1    
   109   53  178 1    
   110   54   55 am   BACKBONE|DICT|INTERRES
   111   54  179 1    
   112   55   56 2    
   113   55   57 1    
   114   57   58 1    
   115   57   59 1    
   116   57  180 1    
   117   58  181 1    
   118   58  182 1    
   119   58  183 1    
   120   59   60 am   BACKBONE|DICT|INTERRES
   121   59  184 1    
   122   60   61 2    
   123   60   62 1    
   124   62   63 1    
   125   62   64 1    
   126   62  185 1    
   127   63  186 1    
   128   63  187 1    
   129   63  188 1    
   130   64   65 am   BACKBONE|DICT|INTERRES
   131   64  189 1    
   132   65   66 2    
   133   67   68 2    
   134   67   69 am   BACKBONE|DICT|INTERRES
   135   69   70 1    
   136   69  190 1    
   137   70   71 1    
   138   70   72 1    
   139   70  191 1    
   140   71  192 1    
   141   71  193 1    
   142   71  194 1    
   143   72   73 2    
   144   72   74 am   BACKBONE|DICT|INTERRES
   145   74   75 1    
   146   74  195 1    
   147   75   76 1    
   148   75   77 1    
   149   75  196 1    
   150   76  197 1    
   151   76  198 1    
   152   76  199 1    
   153   77   78 2    
   154   77   79 am   BACKBONE|DICT|INTERRES
   155   79   80 1    
   156   79  200 1    
   157   80   81 1    
   158   80   82 1    
   159   80  201 1    
   160   81  202 1    
   161   81  203 1    
   162   81  204 1    
   163   82   83 2    
   164   82   84 am   BACKBONE|DICT|INTERRES
   165   84   85 1    
   166   84  205 1    
   167   85   86 1    
   168   85   87 1    
   169   85  206 1    
   170   86  207 1    
   171   86  208 1    
   172   86  209 1    
   173   87   88 2    
   174   87   89 am   BACKBONE|DICT|INTERRES
   175   89   90 1    
   176   89  210 1    
   177   90   91 1    
   178   90   92 1    
   179   90  211 1    
   180   91  212 1    
   181   91  213 1    
   182   91  214 1    
   183   92   93 2    
   184   92   94 am   BACKBONE|DICT|INTERRES
   185   94   95 1    
   186   94  215 1    
   187   95   96 1    
   188   95   97 1    
   189   95  216 1    
   190   96  217 1    
   191   96  218 1    
   192   96  219 1    
   193   97   98 2    
   194   97   99 am   BACKBONE|DICT|INTERRES
   195   99  100 1    
   196   99  220 1    
   197  100  101 1    
   198  100  102 1    
   199  100  221 1    
   200  101  222 1    
   201  101  223 1    
   202  101  224 1    
   203  102  103 2    
   204  102  104 am   BACKBONE|DICT|INTERRES
   205  104  105 1    
   206  104  225 1    
   207  105  106 1    
   208  105  107 1    
   209  105  226 1    
   210  106  227 1    
   211  106  228 1    
   212  106  229 1    
   213  107  108 2    
   214  107  109 am   BACKBONE|DICT|INTERRES
   215  109  110 1    
   216  109  230 1    
   217  110  111 1    
   218  110  112 1    
   219  110  231 1    
   220  111  232 1    
   221  111  233 1    
   222  111  234 1    
   223  112  113 2    
   224  112  114 am   BACKBONE|DICT|INTERRES
   225  114  115 1    
   226  114  235 1    
   227  115  116 1    
   228  115  117 1    
   229  115  236 1    
   230  116  237 1    
   231  116  238 1    
   232  116  239 1    
   233  117  118 2    
   234  117  119 am   BACKBONE|DICT|INTERRES
   235  119  120 1    
   236  119  240 1    
   237  120  121 1    
   238  120  124 1    
   239  120  241 1    
   240  121  122 am   BACKBONE|DICT|INTERRES
   241  121  123 2    
   242  122  242 1    
   243  122  243 1    
   244  124  125 1    
   245  124  244 1    
   246  124  245 1    
   247  125  126 1    
   248  126  246 1    
   249  126  247 1    
@<TRIPOS>SUBSTRUCTURE
     1 UNK         1 GROUP             0       ****    0 ROOT    
