@<TRIPOS>MOLECULE
3R540
247   249    1
SMALL
USER_CHARGES


@<TRIPOS>ATOM
      1 CA         -4.2704  -16.1755  -47.9786 C.3       0 UNK        -0.1800 
      2 C          -3.5783  -14.8429  -48.2177 C.2       0 UNK         0.5000 
      3 O          -4.2494  -13.8213  -48.3623 O.2       0 UNK        -0.5000 
      4 N          -2.2400  -14.8593  -48.2881 N.am      1 UNK        -0.5000 
      5 CA         -1.3823  -13.6918  -48.5115 C.3       1 UNK         0.1400 
      6 C6          0.1055  -14.0787  -48.7306 C.3       23 UNK        -0.0398 
      7 S7          0.3951  -15.3177  -50.0472 S.3       23 UNK        -0.2404 
      8 C8          0.7897  -16.7880  -49.0387 C.3       23 UNK        -0.0205 
      9 C9          1.5251  -17.9209  -49.7541 C.ar      23 UNK        -0.0193 
     10 C10         1.4292  -18.1514  -51.1350 C.ar      23 UNK        -0.1150 
     11 C11         2.1077  -19.2269  -51.7218 C.ar      23 UNK        -0.0193 
     12 C12         2.8661  -20.0827  -50.9204 C.ar      23 UNK        -0.1150 
     13 C13         2.9617  -19.8773  -49.5440 C.ar      23 UNK        -0.0193 
     14 C14         2.2985  -18.7866  -48.9738 C.ar      23 UNK        -0.1150 
     15 C15         3.8004  -20.8359  -48.7018 C.3       23 UNK        -0.0205 
     16 S16         3.0668  -21.2467  -47.0837 S.3       23 UNK        -0.2404 
     17 C17         1.4068  -21.8393  -47.5573 C.3       23 UNK        -0.0398 
     18 CA          0.9381  -23.0325  -46.6954 C.3       11 UNK         0.1400 
     19 N           0.8474  -22.7001  -45.2668 N.am      11 UNK        -0.5000 
     20 C           0.5784  -23.5716  -44.2829 C.2       10 UNK         0.5000 
     21 O           0.3608  -24.7683  -44.4726 O.2       10 UNK        -0.5000 
     22 CA          0.4950  -23.0055  -42.8558 C.3       10 UNK         0.1400 
     23 CB          1.8947  -22.7638  -42.2692 C.3       10 UNK        -0.1800 
     24 N          -0.2779  -21.7648  -42.8298 N.am      10 UNK        -0.5000 
     25 C          -1.6165  -21.7160  -42.7827 C.2       9 UNK         0.5000 
     26 O          -2.3296  -22.7129  -42.6655 O.2       9 UNK        -0.5000 
     27 CA         -2.2823  -20.3291  -42.8948 C.3       9 UNK         0.1400 
     28 CB         -2.5264  -19.7390  -41.4977 C.3       9 UNK        -0.1800 
     29 N          -1.5234  -19.3643  -43.6909 N.am      9 UNK        -0.5000 
     30 C          -1.2322  -19.4986  -44.9922 C.2       8 UNK         0.5000 
     31 O          -1.5900  -20.4503  -45.6840 O.2       8 UNK        -0.5000 
     32 CA         -0.3264  -18.4167  -45.6060 C.3       8 UNK         0.1400 
     33 CB         -1.1505  -17.1704  -45.9557 C.3       8 UNK        -0.1800 
     34 N           0.7910  -18.0347  -44.7396 N.am      8 UNK        -0.5000 
     35 C           1.6902  -18.8786  -44.2113 C.2       7 UNK         0.5000 
     36 O           1.6649  -20.0963  -44.3742 O.2       7 UNK        -0.5000 
     37 CA          2.7576  -18.2665  -43.2947 C.3       7 UNK         0.1400 
     38 CB          3.8503  -17.5634  -44.1141 C.3       7 UNK        -0.1800 
     39 N           2.1486  -17.3305  -42.3519 N.am      7 UNK        -0.5000 
     40 C           1.4676  -17.7070  -41.2596 C.2       6 UNK         0.5000 
     41 O           1.3637  -18.8761  -40.8874 O.2       6 UNK        -0.5000 
     42 CA          0.7635  -16.5945  -40.4593 C.3       6 UNK         0.1400 
     43 CB          1.7069  -16.0156  -39.3944 C.3       6 UNK        -0.1800 
     44 N           0.2666  -15.5075  -41.3045 N.am      6 UNK        -0.5000 
     45 C          -0.7287  -15.6309  -42.1936 C.2       5 UNK         0.5000 
     46 O          -1.3561  -16.6743  -42.3776 O.2       5 UNK        -0.5000 
     47 CA         -1.0408  -14.3911  -43.0539 C.3       5 UNK         0.1400 
     48 CB         -2.0624  -13.4840  -42.3534 C.3       5 UNK        -0.1800 
     49 N           0.1396  -13.5994  -43.4156 N.am      5 UNK        -0.5000 
     50 C           1.1844  -14.0595  -44.1178 C.2       4 UNK         0.5000 
     51 O           1.3187  -15.2406  -44.4416 O.2       4 UNK        -0.5000 
     52 CA          2.2311  -13.0183  -44.5401 C.3       4 UNK         0.1400 
     53 CB          3.2922  -13.5863  -45.5035 C.3       4 UNK        -0.1800 
     54 N           1.5694  -11.8698  -45.1574 N.am      4 UNK        -0.5000 
     55 C           2.0375  -10.6145  -45.1249 C.2       3 UNK         0.5000 
     56 O           3.0442  -10.2868  -44.4948 O.2       3 UNK        -0.5000 
     57 CA          1.2940   -9.5385  -45.9443 C.3       3 UNK         0.1400 
     58 CB          2.1544   -9.0852  -47.1351 C.3       3 UNK        -0.1800 
     59 N          -0.0041   -9.9772  -46.4561 N.am      3 UNK        -0.5000 
     60 C          -1.1365  -10.0214  -45.7433 C.2       2 UNK         0.5000 
     61 O          -1.2169   -9.6777  -44.5637 O.2       2 UNK        -0.5000 
     62 CA         -2.3851  -10.5634  -46.4686 C.3       2 UNK         0.1400 
     63 CB         -3.2028   -9.4080  -47.0656 C.3       2 UNK        -0.1800 
     64 N          -2.0949  -11.5418  -47.5253 N.am      2 UNK        -0.5000 
     65 C          -1.5023  -12.7249  -47.3165 C.2       1 UNK         0.5000 
     66 O          -1.0553  -13.0726  -46.2243 O.2       1 UNK        -0.5000 
     67 C          -0.3795  -23.6054  -47.2538 C.2       11 UNK         0.5000 
     68 O          -0.3368  -24.4910  -48.1081 O.2       11 UNK        -0.5000 
     69 N          -1.5217  -23.1451  -46.7230 N.am      12 UNK        -0.5000 
     70 CA         -2.8756  -23.6239  -47.0144 C.3       12 UNK         0.1400 
     71 CB         -3.8804  -22.8042  -46.1919 C.3       12 UNK        -0.1800 
     72 C          -3.1030  -25.1346  -46.7870 C.2       12 UNK         0.5000 
     73 O          -4.0613  -25.6784  -47.3325 O.2       12 UNK        -0.5000 
     74 N          -2.2171  -25.8077  -46.0369 N.am      13 UNK        -0.5000 
     75 CA         -2.1977  -27.2673  -45.9075 C.3       13 UNK         0.1400 
     76 CB         -1.1910  -27.6671  -44.8191 C.3       13 UNK        -0.1800 
     77 C          -1.8740  -27.9918  -47.2329 C.2       13 UNK         0.5000 
     78 O          -2.3096  -29.1293  -47.4153 O.2       13 UNK        -0.5000 
     79 N          -1.1348  -27.3230  -48.1294 N.am      14 UNK        -0.5000 
     80 CA         -0.7923  -27.8048  -49.4676 C.3       14 UNK         0.1400 
     81 CB          0.7348  -27.7677  -49.6361 C.3       14 UNK        -0.1800 
     82 C          -1.4707  -26.9559  -50.5566 C.2       14 UNK         0.5000 
     83 O          -1.9510  -27.5089  -51.5457 O.2       14 UNK        -0.5000 
     84 N          -1.5106  -25.6319  -50.3561 N.am      15 UNK        -0.5000 
     85 CA         -2.0136  -24.6390  -51.3082 C.3       15 UNK         0.1400 
     86 CB         -1.1610  -23.3642  -51.1751 C.3       15 UNK        -0.1800 
     87 C          -3.5155  -24.3289  -51.1377 C.2       15 UNK         0.5000 
     88 O          -3.9714  -23.2979  -51.6349 O.2       15 UNK        -0.5000 
     89 N          -4.2490  -25.1860  -50.4112 N.am      16 UNK        -0.5000 
     90 CA         -5.6924  -25.1833  -50.1138 C.3       16 UNK         0.1400 
     91 CB         -6.5207  -25.3366  -51.4030 C.3       16 UNK        -0.1800 
     92 C          -6.1931  -23.9894  -49.2733 C.2       16 UNK         0.5000 
     93 O          -6.9155  -24.1874  -48.2960 O.2       16 UNK        -0.5000 
     94 N          -5.7961  -22.7801  -49.6676 N.am      17 UNK        -0.5000 
     95 CA         -6.0582  -21.5104  -48.9944 C.3       17 UNK         0.1400 
     96 CB         -7.3793  -20.9169  -49.5137 C.3       17 UNK        -0.1800 
     97 C          -4.8942  -20.5151  -49.1662 C.2       17 UNK         0.5000 
     98 O          -4.9017  -19.4818  -48.4979 O.2       17 UNK        -0.5000 
     99 N          -3.9263  -20.8333  -50.0443 N.am      18 UNK        -0.5000 
    100 CA        -2.8082  -19.9922  -50.4785 C.3       18 UNK         0.1400 
    101 CB        -1.8680  -19.6663  -49.2993 C.3       18 UNK        -0.1800 
    102 C         -3.2676  -18.7529  -51.2817 C.2       18 UNK         0.5000 
    103 O         -4.4374  -18.6635  -51.6640 O.2       18 UNK        -0.5000 
    104 N         -2.3196  -17.8559  -51.5964 N.am      19 UNK        -0.5000 
    105 CA        -2.4728  -16.6766  -52.4616 C.3       19 UNK         0.1400 
    106 CB        -3.2552  -15.5605  -51.7415 C.3       19 UNK        -0.1800 
    107 C         -3.0517  -17.0423  -53.8435 C.2       19 UNK         0.5000 
    108 O         -2.3448  -17.6554  -54.6414 O.2       19 UNK        -0.5000 
    109 N         -4.3264  -16.7129  -54.0920 N.am      20 UNK        -0.5000 
    110 CA        -5.0562  -17.0485  -55.3170 C.3       20 UNK         0.1400 
    111 CB        -6.4342  -16.3707  -55.2832 C.3       20 UNK        -0.1800 
    112 C         -5.2054  -18.5655  -55.5505 C.2       20 UNK         0.5000 
    113 O         -5.1966  -19.0030  -56.7016 O.2       20 UNK        -0.5000 
    114 N         -5.2985  -19.3452  -54.4635 N.am      21 UNK        -0.5000 
    115 CA        -5.3612  -20.8085  -54.5033 C.3       21 UNK         0.1400 
    116 CB        -6.0557  -21.3146  -53.2314 C.3       21 UNK        -0.1800 
    117 C         -3.9768  -21.4660  -54.6857 C.2       21 UNK         0.5000 
    118 O         -3.9125  -22.6571  -54.9909 O.2       21 UNK        -0.5000 
    119 N         -2.8991  -20.6844  -54.5254 N.am      22 UNK        -0.5000 
    120 CA        -1.5121  -21.0943  -54.7923 C.3       22 UNK         0.1400 
    121 C         -1.1716  -21.2156  -56.3107 C.2       22 UNK         0.5000 
    122 N         -1.9733  -20.6712  -57.2200 N.am      22 UNK        -0.7600 
    123 O         -0.1746  -21.8311  -56.6761 O.2       22 UNK        -0.5000 
    124 C124       -0.5206  -20.1587  -54.0504 C.3       23 UNK        -0.0398 
    125 S125        1.0777  -20.9327  -53.6568 S.3       23 UNK        -0.2404 
    126 C126        2.0687  -19.4652  -53.2241 C.3       23 UNK        -0.0205 
    127 H127       -3.6715  -17.0042  -48.3536 H         1 UNK         0.0600 
    128 H128       -4.4468  -16.3269  -46.9138 H         1 UNK         0.0600 
    129 H129       -5.2307  -16.2050  -48.4938 H         1 UNK         0.0600 
    130 H130       -1.7520  -15.7299  -48.1575 H         1 UNK         0.3000 
    131 H131       -1.7366  -13.1873  -49.4128 H         1 UNK         0.0600 
    132 H132        0.5506  -14.4353  -47.7999 H         1 UNK         0.0800 
    133 H133        0.6773  -13.1888  -48.9994 H         1 UNK         0.0800 
    134 H134       -0.1383  -17.1878  -48.6339 H         1 UNK         0.0800 
    135 H135        1.3938  -16.4731  -48.1862 H         1 UNK         0.0800 
    136 H136        0.8418  -17.4931  -51.7581 H         1 UNK         0.1150 
    137 H137        3.3868  -20.9129  -51.3772 H         1 UNK         0.1150 
    138 H138        2.3760  -18.6169  -47.9088 H         1 UNK         0.1150 
    139 H139        3.9726  -21.7676  -49.2431 H         1 UNK         0.0800 
    140 H140        4.7810  -20.3880  -48.5377 H         1 UNK         0.0800 
    141 H141        1.4264  -22.1224  -48.6118 H         1 UNK         0.0800 
    142 H142        0.7066  -21.0066  -47.4762 H         1 UNK         0.0800 
    143 H143        1.6841  -23.8245  -46.7886 H         1 UNK         0.0600 
    144 H144        1.0586  -21.7364  -45.0166 H         1 UNK         0.3000 
    145 H145       -0.0010  -23.7487  -42.2277 H         1 UNK         0.0600 
    146 H146        1.8332  -22.3678  -41.2553 H         1 UNK         0.0600 
    147 H147        2.4600  -23.6952  -42.2217 H         1 UNK         0.0600 
    148 H148        2.4758  -22.0614  -42.8664 H         1 UNK         0.0600 
    149 H149        0.2392  -20.9084  -42.9854 H         1 UNK         0.3000 
    150 H150       -3.2494  -20.4702  -43.3819 H         1 UNK         0.0600 
    151 H151       -3.1004  -20.4265  -40.8752 H         1 UNK         0.0600 
    152 H152       -3.0892  -18.8071  -41.5566 H         1 UNK         0.0600 
    153 H153       -1.5880  -19.5306  -40.9818 H         1 UNK         0.0600 
    154 H154       -1.2216  -18.5212  -43.2126 H         1 UNK         0.3000 
    155 H155        0.1012  -18.8178  -46.5264 H         1 UNK         0.0600 
    156 H156       -1.6886  -16.7881  -45.0892 H         1 UNK         0.0600 
    157 H157       -1.8936  -17.4068  -46.7158 H         1 UNK         0.0600 
    158 H158       -0.5219  -16.3652  -46.3354 H         1 UNK         0.0600 
    159 H159        0.9050  -17.0395  -44.5601 H         1 UNK         0.3000 
    160 H160        3.2289  -19.0767  -42.7338 H         1 UNK         0.0600 
    161 H161        4.6056  -17.1180  -43.4667 H         1 UNK         0.0600 
    162 H162        3.4434  -16.7763  -44.7481 H         1 UNK         0.0600 
    163 H163        4.3583  -18.2740  -44.7674 H         1 UNK         0.0600 
    164 H164        2.1245  -16.3597  -42.6312 H         1 UNK         0.3000 
    165 H165       -0.0916  -17.0448  -39.9503 H         1 UNK         0.0600 
    166 H166        1.1954  -15.2819  -38.7710 H         1 UNK         0.0600 
    167 H167        2.0771  -16.8003  -38.7332 H         1 UNK         0.0600 
    168 H168        2.5734  -15.5296  -39.8444 H         1 UNK         0.0600 
    169 H169        0.7302  -14.6145  -41.2240 H         1 UNK         0.3000 
    170 H170       -1.4897  -14.7424  -43.9842 H         1 UNK         0.0600 
    171 H171       -2.9649  -14.0393  -42.0944 H         1 UNK         0.0600 
    172 H172       -1.6604  -13.0600  -41.4325 H         1 UNK         0.0600 
    173 H173       -2.3637  -12.6597  -43.0006 H         1 UNK         0.0600 
    174 H174        0.0994  -12.6121  -43.2090 H         1 UNK         0.3000 
    175 H175        2.7328  -12.7028  -43.6231 H         1 UNK         0.0600 
    176 H176        2.8398  -13.9575  -46.4239 H         1 UNK         0.0600 
    177 H177        4.0287  -12.8297  -45.7740 H         1 UNK         0.0600 
    178 H178        3.8359  -14.4121  -45.0444 H         1 UNK         0.0600 
    179 H179        0.6997  -12.0721  -45.6399 H         1 UNK         0.3000 
    180 H180        1.1416   -8.6783  -45.2890 H         1 UNK         0.0600 
    181 H181        2.3468   -9.9056  -47.8278 H         1 UNK         0.0600 
    182 H182        3.1206   -8.7057  -46.7999 H         1 UNK         0.0600 
    183 H183        1.6685   -8.2827  -47.6904 H         1 UNK         0.0600 
    184 H184       -0.0341  -10.2782  -47.4189 H         1 UNK         0.3000 
    185 H185       -3.0012  -11.0640  -45.7186 H         1 UNK         0.0600 
    186 H186       -3.4589   -8.6737  -46.3006 H         1 UNK         0.0600 
    187 H187       -2.6509   -8.8873  -47.8491 H         1 UNK         0.0600 
    188 H188       -4.1386   -9.7672  -47.4944 H         1 UNK         0.0600 
    189 H189       -2.4625  -11.3331  -48.4426 H         1 UNK         0.3000 
    190 H190       -1.4622  -22.3588  -46.0815 H         1 UNK         0.3000 
    191 H191       -3.0651  -23.4303  -48.0717 H         1 UNK         0.0600 
    192 H192       -3.6843  -22.8884  -45.1227 H         1 UNK         0.0600 
    193 H193       -4.9024  -23.1435  -46.3650 H         1 UNK         0.0600 
    194 H194       -3.8403  -21.7481  -46.4582 H         1 UNK         0.0600 
    195 H195       -1.4500  -25.3048  -45.6062 H         1 UNK         0.3000 
    196 H196       -3.1909  -27.5896  -45.5881 H         1 UNK         0.0600 
    197 H197       -1.2045  -28.7448  -44.6518 H         1 UNK         0.0600 
    198 H198       -1.4239  -27.1867  -43.8686 H         1 UNK         0.0600 
    199 H199       -0.1723  -27.3909  -45.0941 H         1 UNK         0.0600 
    200 H200       -0.8300  -26.3828  -47.9000 H         1 UNK         0.3000 
    201 H201       -1.1218  -28.8369  -49.6027 H         1 UNK         0.0600 
    202 H202        1.2251  -28.4141  -48.9081 H         1 UNK         0.0600 
    203 H203        1.1313  -26.7594  -49.5079 H         1 UNK         0.0600 
    204 H204        1.0278  -28.1138  -50.6282 H         1 UNK         0.0600 
    205 H205       -1.0761  -25.2506  -49.5177 H         1 UNK         0.3000 
    206 H206       -1.8835  -25.0189  -52.3235 H         1 UNK         0.0600 
    207 H207       -0.0971  -23.5877  -51.2573 H         1 UNK         0.0600 
    208 H208       -1.3972  -22.6527  -51.9661 H         1 UNK         0.0600 
    209 H209       -1.3249  -22.8661  -50.2190 H         1 UNK         0.0600 
    210 H210       -3.7454  -25.9560  -49.9942 H         1 UNK         0.3000 
    211 H211       -5.8653  -26.0758  -49.5104 H         1 UNK         0.0600 
    212 H212       -6.3876  -24.4911  -52.0773 H         1 UNK         0.0600 
    213 H213       -7.5851  -25.4078  -51.1762 H         1 UNK         0.0600 
    214 H214       -6.2423  -26.2414  -51.9432 H         1 UNK         0.0600 
    215 H215       -5.2213  -22.7566  -50.5053 H         1 UNK         0.3000 
    216 H216       -6.1574  -21.6892  -47.9223 H         1 UNK         0.0600 
    217 H217       -7.6115  -19.9779  -49.0099 H         1 UNK         0.0600 
    218 H218       -8.2142  -21.5949  -49.3368 H         1 UNK         0.0600 
    219 H219       -7.3335  -20.7122  -50.5833 H         1 UNK         0.0600 
    220 H220       -4.0124  -21.6938  -50.5705 H         1 UNK         0.3000 
    221 H221       -2.2472  -20.6053  -51.1826 H         1 UNK         0.0600 
    222 H222       -2.2899  -18.9137  -48.6348 H         1 UNK         0.0600 
    223 H223       -1.6636  -20.5551  -48.7017 H         1 UNK         0.0600 
    224 H224       -0.9074  -19.2992  -49.6545 H         1 UNK         0.0600 
    225 H225       -1.3825  -18.0185  -51.2601 H         1 UNK         0.3000 
    226 H226       -1.4679  -16.2965  -52.6522 H         1 UNK         0.0600 
    227 H227       -2.6666  -15.1703  -50.9160 H         1 UNK         0.0600 
    228 H228       -3.4518  -14.7169  -52.4044 H         1 UNK         0.0600 
    229 H229       -4.2090  -15.9067  -51.3422 H         1 UNK         0.0600 
    230 H230       -4.8513  -16.2495  -53.3647 H         1 UNK         0.3000 
    231 H231       -4.4951  -16.6406  -56.1603 H         1 UNK         0.0600 
    232 H232       -6.3398  -15.2875  -55.2044 H         1 UNK         0.0600 
    233 H233       -7.0330  -16.7188  -54.4405 H         1 UNK         0.0600 
    234 H234       -6.9956  -16.5814  -56.1944 H         1 UNK         0.0600 
    235 H235       -5.2468  -18.9201  -53.5426 H         1 UNK         0.3000 
    236 H236       -5.9739  -21.1109  -55.3552 H         1 UNK         0.0600 
    237 H237       -6.1512  -22.4003  -53.2452 H         1 UNK         0.0600 
    238 H238       -5.4972  -21.0457  -52.3370 H         1 UNK         0.0600 
    239 H239       -7.0597  -20.9009  -53.1382 H         1 UNK         0.0600 
    240 H240       -3.0398  -19.6976  -54.3532 H         1 UNK         0.3000 
    241 H241       -1.3990  -22.0970  -54.3755 H         1 UNK         0.0600 
    242 H242       -1.7465  -20.7650  -58.1976 H         1 UNK         0.3800 
    243 H243       -2.8026  -20.1673  -56.9454 H         1 UNK         0.3800 
    244 H244       -0.3458  -19.2522  -54.6312 H         1 UNK         0.0800 
    245 H245       -0.9436  -19.8321  -53.1018 H         1 UNK         0.0800 
    246 H246        3.0880  -19.6215  -53.5804 H         1 UNK         0.0800 
    247 H247        1.7033  -18.5820  -53.7496 H         1 UNK         0.0800 
@<TRIPOS>BOND
     1    1    2 1    
     2    1  127 1    
     3    1  128 1    
     4    1  129 1    
     5    2    3 2    
     6    2    4 am   BACKBONE|DICT|INTERRES
     7    4    5 1    
     8    4  130 1    
     9    5    6 1    
    10    5   65 1    
    11    5  131 1    
    12    6    7 1    
    13    6  132 1    
    14    6  133 1    
    15    7    8 1    
    16    8    9 1    
    17    8  134 1    
    18    8  135 1    
    19    9   10 ar   
    20    9   14 ar   
    21   10   11 ar   
    22   10  136 1    
    23   11   12 ar   
    24   11  126 1    
    25   12   13 ar   
    26   12  137 1    
    27   13   14 ar   
    28   13   15 1    
    29   14  138 1    
    30   15   16 1    
    31   15  139 1    
    32   15  140 1    
    33   16   17 1    
    34   17   18 1    
    35   17  141 1    
    36   17  142 1    
    37   18   19 1    
    38   18   67 1    
    39   18  143 1    
    40   19   20 am   BACKBONE|DICT|INTERRES
    41   19  144 1    
    42   20   21 2    
    43   20   22 1    
    44   22   23 1    
    45   22   24 1    
    46   22  145 1    
    47   23  146 1    
    48   23  147 1    
    49   23  148 1    
    50   24   25 am   BACKBONE|DICT|INTERRES
    51   24  149 1    
    52   25   26 2    
    53   25   27 1    
    54   27   28 1    
    55   27   29 1    
    56   27  150 1    
    57   28  151 1    
    58   28  152 1    
    59   28  153 1    
    60   29   30 am   BACKBONE|DICT|INTERRES
    61   29  154 1    
    62   30   31 2    
    63   30   32 1    
    64   32   33 1    
    65   32   34 1    
    66   32  155 1    
    67   33  156 1    
    68   33  157 1    
    69   33  158 1    
    70   34   35 am   BACKBONE|DICT|INTERRES
    71   34  159 1    
    72   35   36 2    
    73   35   37 1    
    74   37   38 1    
    75   37   39 1    
    76   37  160 1    
    77   38  161 1    
    78   38  162 1    
    79   38  163 1    
    80   39   40 am   BACKBONE|DICT|INTERRES
    81   39  164 1    
    82   40   41 2    
    83   40   42 1    
    84   42   43 1    
    85   42   44 1    
    86   42  165 1    
    87   43  166 1    
    88   43  167 1    
    89   43  168 1    
    90   44   45 am   BACKBONE|DICT|INTERRES
    91   44  169 1    
    92   45   46 2    
    93   45   47 1    
    94   47   48 1    
    95   47   49 1    
    96   47  170 1    
    97   48  171 1    
    98   48  172 1    
    99   48  173 1    
   100   49   50 am   BACKBONE|DICT|INTERRES
   101   49  174 1    
   102   50   51 2    
   103   50   52 1    
   104   52   53 1    
   105   52   54 1    
   106   52  175 1    
   107   53  176 1    
   108   53  177 1    
   109   53  178 1    
   110   54   55 am   BACKBONE|DICT|INTERRES
   111   54  179 1    
   112   55   56 2    
   113   55   57 1    
   114   57   58 1    
   115   57   59 1    
   116   57  180 1    
   117   58  181 1    
   118   58  182 1    
   119   58  183 1    
   120   59   60 am   BACKBONE|DICT|INTERRES
   121   59  184 1    
   122   60   61 2    
   123   60   62 1    
   124   62   63 1    
   125   62   64 1    
   126   62  185 1    
   127   63  186 1    
   128   63  187 1    
   129   63  188 1    
   130   64   65 am   BACKBONE|DICT|INTERRES
   131   64  189 1    
   132   65   66 2    
   133   67   68 2    
   134   67   69 am   BACKBONE|DICT|INTERRES
   135   69   70 1    
   136   69  190 1    
   137   70   71 1    
   138   70   72 1    
   139   70  191 1    
   140   71  192 1    
   141   71  193 1    
   142   71  194 1    
   143   72   73 2    
   144   72   74 am   BACKBONE|DICT|INTERRES
   145   74   75 1    
   146   74  195 1    
   147   75   76 1    
   148   75   77 1    
   149   75  196 1    
   150   76  197 1    
   151   76  198 1    
   152   76  199 1    
   153   77   78 2    
   154   77   79 am   BACKBONE|DICT|INTERRES
   155   79   80 1    
   156   79  200 1    
   157   80   81 1    
   158   80   82 1    
   159   80  201 1    
   160   81  202 1    
   161   81  203 1    
   162   81  204 1    
   163   82   83 2    
   164   82   84 am   BACKBONE|DICT|INTERRES
   165   84   85 1    
   166   84  205 1    
   167   85   86 1    
   168   85   87 1    
   169   85  206 1    
   170   86  207 1    
   171   86  208 1    
   172   86  209 1    
   173   87   88 2    
   174   87   89 am   BACKBONE|DICT|INTERRES
   175   89   90 1    
   176   89  210 1    
   177   90   91 1    
   178   90   92 1    
   179   90  211 1    
   180   91  212 1    
   181   91  213 1    
   182   91  214 1    
   183   92   93 2    
   184   92   94 am   BACKBONE|DICT|INTERRES
   185   94   95 1    
   186   94  215 1    
   187   95   96 1    
   188   95   97 1    
   189   95  216 1    
   190   96  217 1    
   191   96  218 1    
   192   96  219 1    
   193   97   98 2    
   194   97   99 am   BACKBONE|DICT|INTERRES
   195   99  100 1    
   196   99  220 1    
   197  100  101 1    
   198  100  102 1    
   199  100  221 1    
   200  101  222 1    
   201  101  223 1    
   202  101  224 1    
   203  102  103 2    
   204  102  104 am   BACKBONE|DICT|INTERRES
   205  104  105 1    
   206  104  225 1    
   207  105  106 1    
   208  105  107 1    
   209  105  226 1    
   210  106  227 1    
   211  106  228 1    
   212  106  229 1    
   213  107  108 2    
   214  107  109 am   BACKBONE|DICT|INTERRES
   215  109  110 1    
   216  109  230 1    
   217  110  111 1    
   218  110  112 1    
   219  110  231 1    
   220  111  232 1    
   221  111  233 1    
   222  111  234 1    
   223  112  113 2    
   224  112  114 am   BACKBONE|DICT|INTERRES
   225  114  115 1    
   226  114  235 1    
   227  115  116 1    
   228  115  117 1    
   229  115  236 1    
   230  116  237 1    
   231  116  238 1    
   232  116  239 1    
   233  117  118 2    
   234  117  119 am   BACKBONE|DICT|INTERRES
   235  119  120 1    
   236  119  240 1    
   237  120  121 1    
   238  120  124 1    
   239  120  241 1    
   240  121  122 am   BACKBONE|DICT|INTERRES
   241  121  123 2    
   242  122  242 1    
   243  122  243 1    
   244  124  125 1    
   245  124  244 1    
   246  124  245 1    
   247  125  126 1    
   248  126  246 1    
   249  126  247 1    
@<TRIPOS>SUBSTRUCTURE
     1 UNK         1 GROUP             0       ****    0 ROOT    
