@<TRIPOS>MOLECULE
3R540
247   249    1
SMALL
USER_CHARGES


@<TRIPOS>ATOM
      1 CA          1.6249   -9.3185  -51.7653 C.3       0 UNK        -0.1800 
      2 C           0.9492  -10.3356  -50.8565 C.2       0 UNK         0.5000 
      3 O           0.4242   -9.9628  -49.8081 O.2       0 UNK        -0.5000 
      4 N           0.9635  -11.6151  -51.2572 N.am      1 UNK        -0.5000 
      5 CA          0.3827  -12.7604  -50.5373 C.3       1 UNK         0.1400 
      6 C6         -1.1453  -12.6077  -50.2881 C.3       23 UNK        -0.0398 
      7 S7         -2.0579  -14.1826  -50.4204 S.3       23 UNK        -0.2404 
      8 C8         -2.7557  -14.3174  -48.7459 C.3       23 UNK        -0.0205 
      9 C9         -3.7592  -15.4548  -48.6545 C.ar      23 UNK        -0.0193 
     10 C10        -5.0324  -15.3038  -49.2104 C.ar      23 UNK        -0.1150 
     11 C11        -5.9731  -16.3362  -49.1384 C.ar      23 UNK        -0.0193 
     12 C12        -5.6362  -17.5175  -48.4716 C.ar      23 UNK        -0.1150 
     13 C13        -4.3690  -17.6781  -47.9015 C.ar      23 UNK        -0.0193 
     14 C14        -3.4298  -16.6475  -48.0045 C.ar      23 UNK        -0.1150 
     15 C15        -4.0241  -18.9527  -47.1498 C.3       23 UNK        -0.0205 
     16 S16        -4.3957  -18.7555  -45.3775 S.3       23 UNK        -0.2404 
     17 C17        -4.0608  -20.3743  -44.5910 C.3       23 UNK        -0.0398 
     18 CA         -3.2812  -21.4397  -45.4025 C.3       11 UNK         0.1400 
     19 N          -1.8931  -21.0482  -45.6914 N.am      11 UNK        -0.5000 
     20 C          -1.0483  -21.7552  -46.4579 C.2       10 UNK         0.5000 
     21 O          -1.3591  -22.8074  -47.0119 O.2       10 UNK        -0.5000 
     22 CA          0.4000  -21.2551  -46.5817 C.3       10 UNK         0.1400 
     23 CB          0.5049  -20.0770  -47.5624 C.3       10 UNK        -0.1800 
     24 N           0.9647  -20.9000  -45.2811 N.am      10 UNK        -0.5000 
     25 C           1.1986  -21.7815  -44.2972 C.2       9 UNK         0.5000 
     26 O           1.0554  -22.9975  -44.4247 O.2       9 UNK        -0.5000 
     27 CA          1.6126  -21.2113  -42.9269 C.3       9 UNK         0.1400 
     28 CB          3.1309  -20.9922  -42.8569 C.3       9 UNK        -0.1800 
     29 N           0.9179  -19.9648  -42.6009 N.am      9 UNK        -0.5000 
     30 C          -0.4073  -19.8570  -42.4277 C.2       8 UNK         0.5000 
     31 O          -1.1801  -20.8147  -42.4568 O.2       8 UNK        -0.5000 
     32 CA         -0.9705  -18.4354  -42.2525 C.3       8 UNK         0.1400 
     33 CB         -0.8448  -17.9625  -40.7966 C.3       8 UNK        -0.1800 
     34 N          -0.3284  -17.4703  -43.1465 N.am      8 UNK        -0.5000 
     35 C          -0.4532  -17.4833  -44.4818 C.2       7 UNK         0.5000 
     36 O          -1.1350  -18.3033  -45.0928 O.2       7 UNK        -0.5000 
     37 CA          0.3634  -16.4390  -45.2644 C.3       7 UNK         0.1400 
     38 CB         -0.3324  -15.0704  -45.2165 C.3       7 UNK        -0.1800 
     39 N           1.7286  -16.3063  -44.7554 N.am      7 UNK        -0.5000 
     40 C           2.6432  -17.2868  -44.7467 C.2       6 UNK         0.5000 
     41 O           2.4577  -18.3967  -45.2429 O.2       6 UNK        -0.5000 
     42 CA          3.9616  -17.0002  -44.0027 C.3       6 UNK         0.1400 
     43 CB          4.9505  -16.2534  -44.9074 C.3       6 UNK        -0.1800 
     44 N           3.7565  -16.2252  -42.7784 N.am      6 UNK        -0.5000 
     45 C           3.0672  -16.6466  -41.7078 C.2       5 UNK         0.5000 
     46 O           2.5898  -17.7754  -41.6031 O.2       5 UNK        -0.5000 
     47 CA          2.7917  -15.5957  -40.6249 C.3       5 UNK         0.1400 
     48 CB          4.0476  -15.3075  -39.7836 C.3       5 UNK        -0.1800 
     49 N           2.3107  -14.3872  -41.2850 N.am      5 UNK        -0.5000 
     50 C           1.6488  -13.3628  -40.7473 C.2       4 UNK         0.5000 
     51 O           1.3929  -13.2730  -39.5454 O.2       4 UNK        -0.5000 
     52 CA          1.1964  -12.2615  -41.7391 C.3       4 UNK         0.1400 
     53 CB          0.6237  -11.0238  -41.0252 C.3       4 UNK        -0.1800 
     54 N           2.2494  -11.8215  -42.6662 N.am      4 UNK        -0.5000 
     55 C           2.7479  -12.5162  -43.6977 C.2       3 UNK         0.5000 
     56 O           2.4096  -13.6723  -43.9665 O.2       3 UNK        -0.5000 
     57 CA          3.8685  -11.8387  -44.5066 C.3       3 UNK         0.1400 
     58 CB          5.2127  -11.9998  -43.7789 C.3       3 UNK        -0.1800 
     59 N           3.9978  -12.4093  -45.8481 N.am      3 UNK        -0.5000 
     60 C           3.1295  -12.2233  -46.8504 C.2       2 UNK         0.5000 
     61 O           2.1594  -11.4655  -46.7728 O.2       2 UNK        -0.5000 
     62 CA          3.4521  -12.9732  -48.1636 C.3       2 UNK         0.1400 
     63 CB          3.6797  -14.4842  -47.9366 C.3       2 UNK        -0.1800 
     64 N           2.4679  -12.7525  -49.2298 N.am      2 UNK        -0.5000 
     65 C           1.1857  -13.1497  -49.2693 C.2       1 UNK         0.5000 
     66 O           0.6514  -13.8185  -48.3851 O.2       1 UNK        -0.5000 
     67 C          -3.3691  -22.8075  -44.6898 C.2       11 UNK         0.5000 
     68 O          -4.2503  -23.6015  -45.0197 O.2       11 UNK        -0.5000 
     69 N          -2.4307  -23.0899  -43.7745 N.am      12 UNK        -0.5000 
     70 CA         -2.2914  -24.3813  -43.0925 C.3       12 UNK         0.1400 
     71 CB         -1.2567  -24.2510  -41.9649 C.3       12 UNK        -0.1800 
     72 C          -1.9290  -25.5476  -44.0384 C.2       12 UNK         0.5000 
     73 O          -2.2455  -26.6964  -43.7289 O.2       12 UNK        -0.5000 
     74 N          -1.3122  -25.2314  -45.1843 N.am      13 UNK        -0.5000 
     75 CA         -1.0076  -26.1517  -46.2812 C.3       13 UNK         0.1400 
     76 CB          0.3960  -25.8191  -46.8179 C.3       13 UNK        -0.1800 
     77 C          -2.0685  -26.0858  -47.4031 C.2       13 UNK         0.5000 
     78 O          -1.8029  -26.5470  -48.5155 O.2       13 UNK        -0.5000 
     79 N          -3.2334  -25.4788  -47.1178 N.am      14 UNK        -0.5000 
     80 CA         -4.3728  -25.2488  -48.0163 C.3       14 UNK         0.1400 
     81 CB         -5.0400  -26.5871  -48.3971 C.3       14 UNK        -0.1800 
     82 C          -4.0197  -24.3962  -49.2534 C.2       14 UNK         0.5000 
     83 O          -4.6542  -24.5415  -50.2990 O.2       14 UNK        -0.5000 
     84 N          -2.9810  -23.5568  -49.1299 N.am      15 UNK        -0.5000 
     85 CA         -2.3448  -22.7600  -50.1799 C.3       15 UNK         0.1400 
     86 CB         -3.2491  -21.5824  -50.5819 C.3       15 UNK        -0.1800 
     87 C          -1.8772  -23.6169  -51.3740 C.2       15 UNK         0.5000 
     88 O          -2.0326  -23.2064  -52.5254 O.2       15 UNK        -0.5000 
     89 N          -1.3463  -24.8124  -51.0713 N.am      16 UNK        -0.5000 
     90 CA         -0.9280  -25.8519  -52.0181 C.3       16 UNK         0.1400 
     91 CB          0.2874  -25.3825  -52.8462 C.3       16 UNK        -0.1800 
     92 C          -2.1041  -26.3566  -52.8825 C.2       16 UNK         0.5000 
     93 O          -1.9550  -26.5329  -54.0918 O.2       16 UNK        -0.5000 
     94 N          -3.2587  -26.5536  -52.2275 N.am      17 UNK        -0.5000 
     95 CA         -4.5695  -26.8745  -52.8019 C.3       17 UNK         0.1400 
     96 CB         -4.5579  -28.2479  -53.5061 C.3       17 UNK        -0.1800 
     97 C          -5.0991  -25.7271  -53.6875 C.2       17 UNK         0.5000 
     98 O          -5.4947  -25.9524  -54.8329 O.2       17 UNK        -0.5000 
     99 N          -5.0869  -24.5139  -53.1160 N.am      18 UNK        -0.5000 
    100 CA        -5.5191  -23.2393  -53.6978 C.3       18 UNK         0.1400 
    101 CB        -7.0541  -23.2053  -53.8417 C.3       18 UNK        -0.1800 
    102 C         -4.7758  -22.8772  -55.0025 C.2       18 UNK         0.5000 
    103 O         -5.4053  -22.4768  -55.9847 O.2       18 UNK        -0.5000 
    104 N         -3.4480  -23.0444  -54.9897 N.am      19 UNK        -0.5000 
    105 CA        -2.5574  -22.7651  -56.1157 C.3       19 UNK         0.1400 
    106 CB        -1.7490  -24.0294  -56.4430 C.3       19 UNK        -0.1800 
    107 C         -1.6136  -21.5901  -55.8136 C.2       19 UNK         0.5000 
    108 O         -1.3455  -20.7879  -56.7089 O.2       19 UNK        -0.5000 
    109 N         -1.1257  -21.4992  -54.5688 N.am      20 UNK        -0.5000 
    110 CA        -0.2159  -20.4460  -54.1101 C.3       20 UNK         0.1400 
    111 CB         0.5871  -20.9759  -52.9110 C.3       20 UNK        -0.1800 
    112 C         -0.9541  -19.1503  -53.7242 C.2       20 UNK         0.5000 
    113 O         -0.3463  -18.0795  -53.7246 O.2       20 UNK        -0.5000 
    114 N         -2.2424  -19.2778  -53.3961 N.am      21 UNK        -0.5000 
    115 CA        -3.1593  -18.2369  -52.9494 C.3       21 UNK         0.1400 
    116 CB        -2.7867  -17.7616  -51.5287 C.3       21 UNK        -0.1800 
    117 C         -4.5802  -18.8233  -52.9968 C.2       21 UNK         0.5000 
    118 O         -4.7560  -19.9708  -53.4126 O.2       21 UNK        -0.5000 
    119 N         -5.5672  -18.0425  -52.5495 N.am      22 UNK        -0.5000 
    120 CA        -6.9828  -18.4339  -52.4267 C.3       22 UNK         0.1400 
    121 C         -7.3086  -19.5004  -51.3350 C.2       22 UNK         0.5000 
    122 N         -6.3520  -19.9748  -50.5488 N.am      22 UNK        -0.7600 
    123 O         -8.4551  -19.9226  -51.2123 O.2       22 UNK        -0.5000 
    124 C124       -7.9321  -17.1999  -52.3576 C.3       23 UNK        -0.0398 
    125 S125       -7.2803  -15.7130  -51.5125 S.3       23 UNK        -0.2404 
    126 C126       -7.3601  -16.1547  -49.7453 C.3       23 UNK        -0.0205 
    127 H127        2.0460   -9.7855  -52.6560 H         1 UNK         0.0600 
    128 H128        2.4314   -8.8158  -51.2315 H         1 UNK         0.0600 
    129 H129        0.9051   -8.5650  -52.0852 H         1 UNK         0.0600 
    130 H130        1.4086  -11.8448  -52.1355 H         1 UNK         0.3000 
    131 H131        0.5221  -13.5977  -51.2229 H         1 UNK         0.0600 
    132 H132       -1.3416  -12.1214  -49.3309 H         1 UNK         0.0800 
    133 H133       -1.5806  -11.9486  -51.0402 H         1 UNK         0.0800 
    134 H134       -1.9470  -14.4580  -48.0274 H         1 UNK         0.0800 
    135 H135       -3.2508  -13.3827  -48.4785 H         1 UNK         0.0800 
    136 H136       -5.2886  -14.3801  -49.7104 H         1 UNK         0.1150 
    137 H137       -6.3662  -18.3090  -48.3804 H         1 UNK         0.1150 
    138 H138       -2.4513  -16.7690  -47.5607 H         1 UNK         0.1150 
    139 H139       -4.5928  -19.7878  -47.5601 H         1 UNK         0.0800 
    140 H140       -2.9674  -19.1819  -47.2898 H         1 UNK         0.0800 
    141 H141       -5.0393  -20.7690  -44.3100 H         1 UNK         0.0800 
    142 H142       -3.5469  -20.1777  -43.6493 H         1 UNK         0.0800 
    143 H143       -3.7823  -21.5769  -46.3617 H         1 UNK         0.0600 
    144 H144       -1.5794  -20.1622  -45.3023 H         1 UNK         0.3000 
    145 H145        0.9972  -22.0747  -46.9870 H         1 UNK         0.0600 
    146 H146        1.5385  -19.7487  -47.6733 H         1 UNK         0.0600 
    147 H147        0.1462  -20.3632  -48.5518 H         1 UNK         0.0600 
    148 H148       -0.0833  -19.2190  -47.2408 H         1 UNK         0.0600 
    149 H149        1.1780  -19.9202  -45.1239 H         1 UNK         0.3000 
    150 H150        1.3423  -21.9477  -42.1674 H         1 UNK         0.0600 
    151 H151        3.6668  -21.9252  -43.0350 H         1 UNK         0.0600 
    152 H152        3.4320  -20.6249  -41.8756 H         1 UNK         0.0600 
    153 H153        3.4701  -20.2731  -43.6018 H         1 UNK         0.0600 
    154 H154        1.4921  -19.1334  -42.5011 H         1 UNK         0.3000 
    155 H155       -2.0327  -18.4671  -42.5046 H         1 UNK         0.0600 
    156 H156       -1.3665  -18.6429  -40.1225 H         1 UNK         0.0600 
    157 H157       -1.2839  -16.9737  -40.6632 H         1 UNK         0.0600 
    158 H158        0.1940  -17.9153  -40.4708 H         1 UNK         0.0600 
    159 H159        0.2850  -16.7916  -42.7233 H         1 UNK         0.3000 
    160 H160        0.4202  -16.7617  -46.3061 H         1 UNK         0.0600 
    161 H161       -0.4126  -14.6923  -44.1967 H         1 UNK         0.0600 
    162 H162       -1.3408  -15.1302  -45.6277 H         1 UNK         0.0600 
    163 H163        0.2150  -14.3302  -45.7999 H         1 UNK         0.0600 
    164 H164        1.9855  -15.3923  -44.3906 H         1 UNK         0.3000 
    165 H165        4.4044  -17.9596  -43.7280 H         1 UNK         0.0600 
    166 H166        5.9285  -16.1666  -44.4340 H         1 UNK         0.0600 
    167 H167        5.0917  -16.7775  -45.8537 H         1 UNK         0.0600 
    168 H168        4.5979  -15.2475  -45.1324 H         1 UNK         0.0600 
    169 H169        4.1283  -15.2876  -42.7791 H         1 UNK         0.3000 
    170 H170        2.0039  -15.9790  -39.9731 H         1 UNK         0.0600 
    171 H171        4.4328  -16.2230  -39.3331 H         1 UNK         0.0600 
    172 H172        4.8469  -14.8734  -40.3852 H         1 UNK         0.0600 
    173 H173        3.8289  -14.6147  -38.9710 H         1 UNK         0.0600 
    174 H174        2.4260  -14.3566  -42.2950 H         1 UNK         0.3000 
    175 H175        0.3908  -12.6966  -42.3344 H         1 UNK         0.0600 
    176 H176        1.3748  -10.5362  -40.4025 H         1 UNK         0.0600 
    177 H177        0.2536  -10.2906  -41.7420 H         1 UNK         0.0600 
    178 H178       -0.2145  -11.2931  -40.3811 H         1 UNK         0.0600 
    179 H179        2.6255  -10.9018  -42.4862 H         1 UNK         0.3000 
    180 H180        3.6394  -10.7750  -44.5990 H         1 UNK         0.0600 
    181 H181        5.4877  -13.0494  -43.6659 H         1 UNK         0.0600 
    182 H182        5.1764  -11.5617  -42.7806 H         1 UNK         0.0600 
    183 H183        6.0161  -11.4996  -44.3202 H         1 UNK         0.0600 
    184 H184        4.7702  -13.0425  -45.9877 H         1 UNK         0.3000 
    185 H185        4.3849  -12.5500  -48.5388 H         1 UNK         0.0600 
    186 H186        3.7405  -15.0236  -48.8818 H         1 UNK         0.0600 
    187 H187        2.8788  -14.9327  -47.3468 H         1 UNK         0.0600 
    188 H188        4.6176  -14.6634  -47.4128 H         1 UNK         0.0600 
    189 H189        2.7891  -12.1821  -49.9986 H         1 UNK         0.3000 
    190 H190       -1.7764  -22.3598  -43.5066 H         1 UNK         0.3000 
    191 H191       -3.2555  -24.6199  -42.6390 H         1 UNK         0.0600 
    192 H192       -0.2653  -24.0180  -42.3523 H         1 UNK         0.0600 
    193 H193       -1.5348  -23.4653  -41.2622 H         1 UNK         0.0600 
    194 H194       -1.1768  -25.1801  -41.3993 H         1 UNK         0.0600 
    195 H195       -1.0993  -24.2573  -45.3629 H         1 UNK         0.3000 
    196 H196       -0.9935  -27.1790  -45.9127 H         1 UNK         0.0600 
    197 H197        1.1397  -25.8546  -46.0216 H         1 UNK         0.0600 
    198 H198        0.4328  -24.8243  -47.2626 H         1 UNK         0.0600 
    199 H199        0.7063  -26.5329  -47.5818 H         1 UNK         0.0600 
    200 H200       -3.3438  -25.0819  -46.1919 H         1 UNK         0.3000 
    201 H201       -5.0989  -24.6665  -47.4480 H         1 UNK         0.0600 
    202 H202       -5.9679  -26.4213  -48.9456 H         1 UNK         0.0600 
    203 H203       -5.2903  -27.1681  -47.5096 H         1 UNK         0.0600 
    204 H204       -4.3936  -27.1989  -49.0270 H         1 UNK         0.0600 
    205 H205       -2.5098  -23.5052  -48.2286 H         1 UNK         0.3000 
    206 H206       -1.4372  -22.3404  -49.7445 H         1 UNK         0.0600 
    207 H207       -4.1894  -21.9225  -51.0127 H         1 UNK         0.0600 
    208 H208       -2.7561  -20.9509  -51.3182 H         1 UNK         0.0600 
    209 H209       -3.4807  -20.9567  -49.7203 H         1 UNK         0.0600 
    210 H210       -1.3187  -25.0867  -50.0959 H         1 UNK         0.3000 
    211 H211       -0.6067  -26.7035  -51.4164 H         1 UNK         0.0600 
    212 H212        1.1056  -25.0685  -52.1983 H         1 UNK         0.0600 
    213 H213        0.6649  -26.1880  -53.4770 H         1 UNK         0.0600 
    214 H214        0.0404  -24.5457  -53.4991 H         1 UNK         0.0600 
    215 H215       -3.2694  -26.3354  -51.2408 H         1 UNK         0.3000 
    216 H216       -5.2585  -26.9495  -51.9590 H         1 UNK         0.0600 
    217 H217       -5.5648  -28.5344  -53.8115 H         1 UNK         0.0600 
    218 H218       -3.9367  -28.2447  -54.4019 H         1 UNK         0.0600 
    219 H219       -4.1859  -29.0280  -52.8420 H         1 UNK         0.0600 
    220 H220       -4.7743  -24.4605  -52.1485 H         1 UNK         0.3000 
    221 H221       -5.2482  -22.4748  -52.9718 H         1 UNK         0.0600 
    222 H222       -7.3927  -22.2184  -54.1597 H         1 UNK         0.0600 
    223 H223       -7.4085  -23.9288  -54.5763 H         1 UNK         0.0600 
    224 H224       -7.5425  -23.4222  -52.8916 H         1 UNK         0.0600 
    225 H225       -3.0082  -23.3429  -54.1233 H         1 UNK         0.3000 
    226 H226       -3.1334  -22.4994  -57.0043 H         1 UNK         0.0600 
    227 H227       -2.4068  -24.8641  -56.6866 H         1 UNK         0.0600 
    228 H228       -1.0958  -23.8658  -57.3009 H         1 UNK         0.0600 
    229 H229       -1.1221  -24.3351  -55.6053 H         1 UNK         0.0600 
    230 H230       -1.4063  -22.1859  -53.8722 H         1 UNK         0.3000 
    231 H231        0.4866  -20.2066  -54.9113 H         1 UNK         0.0600 
    232 H232        1.3307  -20.2465  -52.5874 H         1 UNK         0.0600 
    233 H233        1.1191  -21.8930  -53.1647 H         1 UNK         0.0600 
    234 H234       -0.0567  -21.1867  -52.0566 H         1 UNK         0.0600 
    235 H235       -2.6863  -20.1827  -53.4980 H         1 UNK         0.3000 
    236 H236       -3.1110  -17.3981  -53.6460 H         1 UNK         0.0600 
    237 H237       -1.7702  -17.3708  -51.4882 H         1 UNK         0.0600 
    238 H238       -3.4421  -16.9563  -51.1975 H         1 UNK         0.0600 
    239 H239       -2.8621  -18.5651  -50.7962 H         1 UNK         0.0600 
    240 H240       -5.3524  -17.1176  -52.2038 H         1 UNK         0.3000 
    241 H241       -7.2289  -18.9499  -53.3570 H         1 UNK         0.0600 
    242 H242       -6.5830  -20.6783  -49.8670 H         1 UNK         0.3800 
    243 H243       -5.4063  -19.6495  -50.6483 H         1 UNK         0.3800 
    244 H244       -8.9075  -17.4494  -51.9363 H         1 UNK         0.0800 
    245 H245       -8.1488  -16.8856  -53.3793 H         1 UNK         0.0800 
    246 H246       -7.9690  -17.0495  -49.6087 H         1 UNK         0.0800 
    247 H247       -7.8705  -15.3540  -49.2086 H         1 UNK         0.0800 
@<TRIPOS>BOND
     1    1    2 1    
     2    1  127 1    
     3    1  128 1    
     4    1  129 1    
     5    2    3 2    
     6    2    4 am   BACKBONE|DICT|INTERRES
     7    4    5 1    
     8    4  130 1    
     9    5    6 1    
    10    5   65 1    
    11    5  131 1    
    12    6    7 1    
    13    6  132 1    
    14    6  133 1    
    15    7    8 1    
    16    8    9 1    
    17    8  134 1    
    18    8  135 1    
    19    9   10 ar   
    20    9   14 ar   
    21   10   11 ar   
    22   10  136 1    
    23   11   12 ar   
    24   11  126 1    
    25   12   13 ar   
    26   12  137 1    
    27   13   14 ar   
    28   13   15 1    
    29   14  138 1    
    30   15   16 1    
    31   15  139 1    
    32   15  140 1    
    33   16   17 1    
    34   17   18 1    
    35   17  141 1    
    36   17  142 1    
    37   18   19 1    
    38   18   67 1    
    39   18  143 1    
    40   19   20 am   BACKBONE|DICT|INTERRES
    41   19  144 1    
    42   20   21 2    
    43   20   22 1    
    44   22   23 1    
    45   22   24 1    
    46   22  145 1    
    47   23  146 1    
    48   23  147 1    
    49   23  148 1    
    50   24   25 am   BACKBONE|DICT|INTERRES
    51   24  149 1    
    52   25   26 2    
    53   25   27 1    
    54   27   28 1    
    55   27   29 1    
    56   27  150 1    
    57   28  151 1    
    58   28  152 1    
    59   28  153 1    
    60   29   30 am   BACKBONE|DICT|INTERRES
    61   29  154 1    
    62   30   31 2    
    63   30   32 1    
    64   32   33 1    
    65   32   34 1    
    66   32  155 1    
    67   33  156 1    
    68   33  157 1    
    69   33  158 1    
    70   34   35 am   BACKBONE|DICT|INTERRES
    71   34  159 1    
    72   35   36 2    
    73   35   37 1    
    74   37   38 1    
    75   37   39 1    
    76   37  160 1    
    77   38  161 1    
    78   38  162 1    
    79   38  163 1    
    80   39   40 am   BACKBONE|DICT|INTERRES
    81   39  164 1    
    82   40   41 2    
    83   40   42 1    
    84   42   43 1    
    85   42   44 1    
    86   42  165 1    
    87   43  166 1    
    88   43  167 1    
    89   43  168 1    
    90   44   45 am   BACKBONE|DICT|INTERRES
    91   44  169 1    
    92   45   46 2    
    93   45   47 1    
    94   47   48 1    
    95   47   49 1    
    96   47  170 1    
    97   48  171 1    
    98   48  172 1    
    99   48  173 1    
   100   49   50 am   BACKBONE|DICT|INTERRES
   101   49  174 1    
   102   50   51 2    
   103   50   52 1    
   104   52   53 1    
   105   52   54 1    
   106   52  175 1    
   107   53  176 1    
   108   53  177 1    
   109   53  178 1    
   110   54   55 am   BACKBONE|DICT|INTERRES
   111   54  179 1    
   112   55   56 2    
   113   55   57 1    
   114   57   58 1    
   115   57   59 1    
   116   57  180 1    
   117   58  181 1    
   118   58  182 1    
   119   58  183 1    
   120   59   60 am   BACKBONE|DICT|INTERRES
   121   59  184 1    
   122   60   61 2    
   123   60   62 1    
   124   62   63 1    
   125   62   64 1    
   126   62  185 1    
   127   63  186 1    
   128   63  187 1    
   129   63  188 1    
   130   64   65 am   BACKBONE|DICT|INTERRES
   131   64  189 1    
   132   65   66 2    
   133   67   68 2    
   134   67   69 am   BACKBONE|DICT|INTERRES
   135   69   70 1    
   136   69  190 1    
   137   70   71 1    
   138   70   72 1    
   139   70  191 1    
   140   71  192 1    
   141   71  193 1    
   142   71  194 1    
   143   72   73 2    
   144   72   74 am   BACKBONE|DICT|INTERRES
   145   74   75 1    
   146   74  195 1    
   147   75   76 1    
   148   75   77 1    
   149   75  196 1    
   150   76  197 1    
   151   76  198 1    
   152   76  199 1    
   153   77   78 2    
   154   77   79 am   BACKBONE|DICT|INTERRES
   155   79   80 1    
   156   79  200 1    
   157   80   81 1    
   158   80   82 1    
   159   80  201 1    
   160   81  202 1    
   161   81  203 1    
   162   81  204 1    
   163   82   83 2    
   164   82   84 am   BACKBONE|DICT|INTERRES
   165   84   85 1    
   166   84  205 1    
   167   85   86 1    
   168   85   87 1    
   169   85  206 1    
   170   86  207 1    
   171   86  208 1    
   172   86  209 1    
   173   87   88 2    
   174   87   89 am   BACKBONE|DICT|INTERRES
   175   89   90 1    
   176   89  210 1    
   177   90   91 1    
   178   90   92 1    
   179   90  211 1    
   180   91  212 1    
   181   91  213 1    
   182   91  214 1    
   183   92   93 2    
   184   92   94 am   BACKBONE|DICT|INTERRES
   185   94   95 1    
   186   94  215 1    
   187   95   96 1    
   188   95   97 1    
   189   95  216 1    
   190   96  217 1    
   191   96  218 1    
   192   96  219 1    
   193   97   98 2    
   194   97   99 am   BACKBONE|DICT|INTERRES
   195   99  100 1    
   196   99  220 1    
   197  100  101 1    
   198  100  102 1    
   199  100  221 1    
   200  101  222 1    
   201  101  223 1    
   202  101  224 1    
   203  102  103 2    
   204  102  104 am   BACKBONE|DICT|INTERRES
   205  104  105 1    
   206  104  225 1    
   207  105  106 1    
   208  105  107 1    
   209  105  226 1    
   210  106  227 1    
   211  106  228 1    
   212  106  229 1    
   213  107  108 2    
   214  107  109 am   BACKBONE|DICT|INTERRES
   215  109  110 1    
   216  109  230 1    
   217  110  111 1    
   218  110  112 1    
   219  110  231 1    
   220  111  232 1    
   221  111  233 1    
   222  111  234 1    
   223  112  113 2    
   224  112  114 am   BACKBONE|DICT|INTERRES
   225  114  115 1    
   226  114  235 1    
   227  115  116 1    
   228  115  117 1    
   229  115  236 1    
   230  116  237 1    
   231  116  238 1    
   232  116  239 1    
   233  117  118 2    
   234  117  119 am   BACKBONE|DICT|INTERRES
   235  119  120 1    
   236  119  240 1    
   237  120  121 1    
   238  120  124 1    
   239  120  241 1    
   240  121  122 am   BACKBONE|DICT|INTERRES
   241  121  123 2    
   242  122  242 1    
   243  122  243 1    
   244  124  125 1    
   245  124  244 1    
   246  124  245 1    
   247  125  126 1    
   248  126  246 1    
   249  126  247 1    
@<TRIPOS>SUBSTRUCTURE
     1 UNK         1 GROUP             0       ****    0 ROOT    
