@<TRIPOS>MOLECULE
3R540
247   249    1
SMALL
USER_CHARGES


@<TRIPOS>ATOM
      1 CA          2.7811  -10.3185  -49.2297 C.3       0 UNK        -0.1800 
      2 C           1.6578  -11.2637  -49.6279 C.2       0 UNK         0.5000 
      3 O           1.1647  -11.1935  -50.7537 O.2       0 UNK        -0.5000 
      4 N           1.2404  -12.1327  -48.6993 N.am      1 UNK        -0.5000 
      5 CA          0.1907  -13.1486  -48.8227 C.3       1 UNK         0.1400 
      6 C6          0.4585  -14.1843  -49.9475 C.3       23 UNK        -0.0398 
      7 S7         -0.4035  -15.7652  -49.6663 S.3       23 UNK        -0.2404 
      8 C8          0.8062  -16.6146  -48.6038 C.3       23 UNK        -0.0205 
      9 C9          0.3082  -17.9973  -48.2262 C.ar      23 UNK        -0.0193 
     10 C10        -0.6025  -18.1524  -47.1783 C.ar      23 UNK        -0.1150 
     11 C11        -1.1179  -19.4132  -46.8650 C.ar      23 UNK        -0.0193 
     12 C12        -0.6993  -20.5270  -47.5999 C.ar      23 UNK        -0.1150 
     13 C13         0.2330  -20.3866  -48.6343 C.ar      23 UNK        -0.0193 
     14 C14         0.7342  -19.1191  -48.9414 C.ar      23 UNK        -0.1150 
     15 C15         0.6602  -21.5914  -49.4604 C.3       23 UNK        -0.0205 
     16 S16         2.3336  -22.1847  -49.0546 S.3       23 UNK        -0.2404 
     17 C17         2.2176  -22.5655  -47.2753 C.3       23 UNK        -0.0398 
     18 CA          1.8105  -24.0301  -46.9829 C.3       11 UNK         0.1400 
     19 N           2.3589  -24.4771  -45.7021 N.am      11 UNK        -0.5000 
     20 C           2.6431  -25.7428  -45.3744 C.2       10 UNK         0.5000 
     21 O           2.5114  -26.6940  -46.1444 O.2       10 UNK        -0.5000 
     22 CA          3.1540  -25.9865  -43.9398 C.3       10 UNK         0.1400 
     23 CB          4.6886  -25.9294  -43.9005 C.3       10 UNK        -0.1800 
     24 N           2.6147  -25.0313  -42.9671 N.am      10 UNK        -0.5000 
     25 C           1.3465  -25.0352  -42.5346 C.2       9 UNK         0.5000 
     26 O           0.5102  -25.8674  -42.8872 O.2       9 UNK        -0.5000 
     27 CA          0.9297  -23.9061  -41.5685 C.3       9 UNK         0.1400 
     28 CB          1.2255  -24.3100  -40.1162 C.3       9 UNK        -0.1800 
     29 N           1.5142  -22.5821  -41.8256 N.am      9 UNK        -0.5000 
     30 C           1.5142  -21.9317  -42.9982 C.2       8 UNK         0.5000 
     31 O           1.1881  -22.4496  -44.0652 O.2       8 UNK        -0.5000 
     32 CA          1.9051  -20.4395  -42.9581 C.3       8 UNK         0.1400 
     33 CB          1.8240  -19.7709  -44.3456 C.3       8 UNK        -0.1800 
     34 N           1.1256  -19.6514  -41.9944 N.am      8 UNK        -0.5000 
     35 C          -0.2081  -19.6369  -41.8208 C.2       7 UNK         0.5000 
     36 O          -1.0036  -20.3872  -42.3851 O.2       7 UNK        -0.5000 
     37 CA         -0.7455  -18.5542  -40.8675 C.3       7 UNK         0.1400 
     38 CB         -0.5115  -18.9484  -39.4005 C.3       7 UNK        -0.1800 
     39 N          -0.1545  -17.2374  -41.1260 N.am      7 UNK        -0.5000 
     40 C          -0.3335  -16.5422  -42.2576 C.2       6 UNK         0.5000 
     41 O          -1.0360  -16.9251  -43.1977 O.2       6 UNK        -0.5000 
     42 CA          0.3978  -15.1964  -42.3620 C.3       6 UNK         0.1400 
     43 CB          1.8881  -15.3972  -42.6876 C.3       6 UNK        -0.1800 
     44 N          -0.2343  -14.4266  -43.4260 N.am      6 UNK        -0.5000 
     45 C          -0.3499  -13.0986  -43.4810 C.2       5 UNK         0.5000 
     46 O           0.1178  -12.3288  -42.6377 O.2       5 UNK        -0.5000 
     47 CA         -1.1701  -12.5567  -44.6667 C.3       5 UNK         0.1400 
     48 CB         -2.6762  -12.6662  -44.3796 C.3       5 UNK        -0.1800 
     49 N          -0.8539  -11.1650  -44.9867 N.am      5 UNK        -0.5000 
     50 C           0.2928  -10.7529  -45.5360 C.2       4 UNK         0.5000 
     51 O           1.2004  -11.5096  -45.8891 O.2       4 UNK        -0.5000 
     52 CA          0.4024   -9.2492  -45.8123 C.3       4 UNK         0.1400 
     53 CB          1.8526   -8.7364  -45.7077 C.3       4 UNK        -0.1800 
     54 N          -0.1318   -9.0016  -47.1479 N.am      4 UNK        -0.5000 
     55 C          -0.5713   -7.8213  -47.6005 C.2       3 UNK         0.5000 
     56 O          -0.5953   -6.7972  -46.9167 O.2       3 UNK        -0.5000 
     57 CA         -1.0577   -7.7593  -49.0617 C.3       3 UNK         0.1400 
     58 CB          0.0092   -7.1088  -49.9565 C.3       3 UNK        -0.1800 
     59 N          -1.3943   -9.0732  -49.6143 N.am      3 UNK        -0.5000 
     60 C          -2.5920   -9.6637  -49.4939 C.2       2 UNK         0.5000 
     61 O          -3.5427   -9.1704  -48.8870 O.2       2 UNK        -0.5000 
     62 CA         -2.7431  -11.0452  -50.1552 C.3       2 UNK         0.1400 
     63 CB         -3.0674  -10.9045  -51.6499 C.3       2 UNK        -0.1800 
     64 N          -1.5282  -11.8430  -49.9978 N.am      2 UNK        -0.5000 
     65 C          -1.2110  -12.5105  -48.8829 C.2       1 UNK         0.5000 
     66 O          -1.9562  -12.5933  -47.9080 O.2       1 UNK        -0.5000 
     67 C           0.2786  -24.2007  -46.9998 C.2       11 UNK         0.5000 
     68 O          -0.2877  -24.5852  -48.0234 O.2       11 UNK        -0.5000 
     69 N          -0.3672  -23.9473  -45.8522 N.am      12 UNK        -0.5000 
     70 CA         -1.8109  -24.0484  -45.6205 C.3       12 UNK         0.1400 
     71 CB         -2.1250  -23.5386  -44.2071 C.3       12 UNK        -0.1800 
     72 C          -2.3987  -25.4590  -45.8315 C.2       12 UNK         0.5000 
     73 O          -3.6114  -25.5880  -45.9961 O.2       12 UNK        -0.5000 
     74 N          -1.5365  -26.4845  -45.8593 N.am      13 UNK        -0.5000 
     75 CA         -1.8672  -27.8453  -46.2814 C.3       13 UNK         0.1400 
     76 CB         -0.6725  -28.7623  -45.9795 C.3       13 UNK        -0.1800 
     77 C          -2.2574  -27.9339  -47.7732 C.2       13 UNK         0.5000 
     78 O          -3.0587  -28.7969  -48.1335 O.2       13 UNK        -0.5000 
     79 N          -1.7014  -27.0392  -48.6030 N.am      14 UNK        -0.5000 
     80 CA         -2.0563  -26.8669  -50.0094 C.3       14 UNK         0.1400 
     81 CB         -0.7835  -26.6207  -50.8363 C.3       14 UNK        -0.1800 
     82 C          -3.0468  -25.7031  -50.1670 C.2       14 UNK         0.5000 
     83 O          -4.1002  -25.8887  -50.7776 O.2       14 UNK        -0.5000 
     84 N          -2.6951  -24.5342  -49.6047 N.am      15 UNK        -0.5000 
     85 CA         -3.4609  -23.2819  -49.5996 C.3       15 UNK         0.1400 
     86 CB         -4.6317  -23.3796  -48.5984 C.3       15 UNK        -0.1800 
     87 C          -3.9017  -22.8574  -51.0166 C.2       15 UNK         0.5000 
     88 O          -3.0687  -22.3984  -51.7994 O.2       15 UNK        -0.5000 
     89 N          -5.1859  -23.0542  -51.3425 N.am      16 UNK        -0.5000 
     90 CA         -5.7767  -22.7905  -52.6550 C.3       16 UNK         0.1400 
     91 CB         -7.2892  -23.0453  -52.5851 C.3       16 UNK        -0.1800 
     92 C          -5.1428  -23.6090  -53.7975 C.2       16 UNK         0.5000 
     93 O          -5.0870  -23.1171  -54.9242 O.2       16 UNK        -0.5000 
     94 N          -4.6211  -24.8074  -53.4915 N.am      17 UNK        -0.5000 
     95 CA         -3.8805  -25.6477  -54.4390 C.3       17 UNK         0.1400 
     96 CB         -3.7549  -27.0719  -53.8771 C.3       17 UNK        -0.1800 
     97 C          -2.4919  -25.0772  -54.7959 C.2       17 UNK         0.5000 
     98 O          -1.9564  -25.4134  -55.8522 O.2       17 UNK        -0.5000 
     99 N          -1.9507  -24.2060  -53.9327 N.am      18 UNK        -0.5000 
    100 CA        -0.7316  -23.4301  -54.1665 C.3       18 UNK         0.1400 
    101 CB         0.0611  -23.3521  -52.8497 C.3       18 UNK        -0.1800 
    102 C         -1.0412  -22.0210  -54.7191 C.2       18 UNK         0.5000 
    103 O         -0.1139  -21.2292  -54.8911 O.2       18 UNK        -0.5000 
    104 N         -2.3274  -21.7285  -54.9781 N.am      19 UNK        -0.5000 
    105 CA        -2.8862  -20.4532  -55.4424 C.3       19 UNK         0.1400 
    106 CB        -2.3908  -20.1194  -56.8652 C.3       19 UNK        -0.1800 
    107 C         -2.6822  -19.2955  -54.4410 C.2       19 UNK         0.5000 
    108 O         -2.5455  -18.1404  -54.8496 O.2       19 UNK        -0.5000 
    109 N         -2.6597  -19.6255  -53.1437 N.am      20 UNK        -0.5000 
    110 CA        -2.4851  -18.6778  -52.0472 C.3       20 UNK         0.1400 
    111 CB        -2.1504  -19.4741  -50.7826 C.3       20 UNK        -0.1800 
    112 C         -3.7450  -17.8427  -51.7787 C.2       20 UNK         0.5000 
    113 O         -4.8526  -18.2524  -52.1370 O.2       20 UNK        -0.5000 
    114 N         -3.5641  -16.7472  -51.0279 N.am      21 UNK        -0.5000 
    115 CA        -4.6483  -15.9600  -50.4292 C.3       21 UNK         0.1400 
    116 CB        -4.0541  -14.7069  -49.7706 C.3       21 UNK        -0.1800 
    117 C         -5.4864  -16.7665  -49.4121 C.2       21 UNK         0.5000 
    118 O         -6.6596  -16.4540  -49.2069 O.2       21 UNK        -0.5000 
    119 N         -4.8792  -17.8125  -48.8344 N.am      22 UNK        -0.5000 
    120 CA        -5.5433  -18.8518  -48.0339 C.3       22 UNK         0.1400 
    121 C         -6.4659  -19.8057  -48.8527 C.2       22 UNK         0.5000 
    122 N         -6.4427  -19.8060  -50.1814 N.am      22 UNK        -0.7600 
    123 O         -7.2300  -20.5645  -48.2639 O.2       22 UNK        -0.5000 
    124 C124       -4.5203  -19.6670  -47.1986 C.3       23 UNK        -0.0398 
    125 S125       -3.6458  -18.6308  -45.9789 S.3       23 UNK        -0.2404 
    126 C126       -2.1046  -19.5676  -45.7156 C.3       23 UNK        -0.0205 
    127 H127        3.5227  -10.2578  -50.0262 H         1 UNK         0.0600 
    128 H128        3.2861  -10.6567  -48.3245 H         1 UNK         0.0600 
    129 H129        2.3891   -9.3186  -49.0490 H         1 UNK         0.0600 
    130 H130        1.6278  -12.0609  -47.7624 H         1 UNK         0.3000 
    131 H131        0.2363  -13.6833  -47.8726 H         1 UNK         0.0600 
    132 H132        0.1751  -13.7977  -50.9275 H         1 UNK         0.0800 
    133 H133        1.5274  -14.3907  -50.0166 H         1 UNK         0.0800 
    134 H134        1.7638  -16.6861  -49.1221 H         1 UNK         0.0800 
    135 H135        0.9832  -16.0288  -47.7008 H         1 UNK         0.0800 
    136 H136       -0.9292  -17.2879  -46.6173 H         1 UNK         0.1150 
    137 H137       -1.0958  -21.5034  -47.3650 H         1 UNK         0.1150 
    138 H138        1.4361  -19.0048  -49.7555 H         1 UNK         0.1150 
    139 H139       -0.0605  -22.4022  -49.3642 H         1 UNK         0.0800 
    140 H140        0.6542  -21.3179  -50.5158 H         1 UNK         0.0800 
    141 H141        1.5766  -21.8506  -46.7592 H         1 UNK         0.0800 
    142 H142        3.2163  -22.3814  -46.8766 H         1 UNK         0.0800 
    143 H143        2.2236  -24.6688  -47.7669 H         1 UNK         0.0600 
    144 H144        2.4013  -23.7721  -44.9756 H         1 UNK         0.3000 
    145 H145        2.8438  -26.9914  -43.6452 H         1 UNK         0.0600 
    146 H146        5.1239  -26.6470  -44.5973 H         1 UNK         0.0600 
    147 H147        5.0670  -26.1724  -42.9074 H         1 UNK         0.0600 
    148 H148        5.0625  -24.9410  -44.1707 H         1 UNK         0.0600 
    149 H149        3.2387  -24.3127  -42.6305 H         1 UNK         0.3000 
    150 H150       -0.1509  -23.7895  -41.6659 H         1 UNK         0.0600 
    151 H151        0.7841  -25.2796  -39.8810 H         1 UNK         0.0600 
    152 H152        0.8105  -23.5880  -39.4127 H         1 UNK         0.0600 
    153 H153        2.2977  -24.3833  -39.9303 H         1 UNK         0.0600 
    154 H154        1.8020  -22.0651  -41.0076 H         1 UNK         0.3000 
    155 H155        2.9449  -20.4002  -42.6310 H         1 UNK         0.0600 
    156 H156        2.4821  -20.2652  -45.0606 H         1 UNK         0.0600 
    157 H157        2.1239  -18.7239  -44.2998 H         1 UNK         0.0600 
    158 H158        0.8122  -19.8087  -44.7487 H         1 UNK         0.0600 
    159 H159        1.6619  -18.9897  -41.4522 H         1 UNK         0.3000 
    160 H160       -1.8230  -18.4761  -41.0287 H         1 UNK         0.0600 
    161 H161        0.5504  -19.0040  -39.1586 H         1 UNK         0.0600 
    162 H162       -0.9488  -19.9243  -39.1851 H         1 UNK         0.0600 
    163 H163       -0.9728  -18.2307  -38.7219 H         1 UNK         0.0600 
    164 H164        0.4309  -16.8525  -40.3987 H         1 UNK         0.3000 
    165 H165        0.2920  -14.6711  -41.4104 H         1 UNK         0.0600 
    166 H166        2.4043  -14.4411  -42.7773 H         1 UNK         0.0600 
    167 H167        2.3901  -15.9639  -41.9028 H         1 UNK         0.0600 
    168 H168        2.0241  -15.9397  -43.6242 H         1 UNK         0.0600 
    169 H169       -0.7166  -15.0052  -44.1033 H         1 UNK         0.3000 
    170 H170       -0.9387  -13.1688  -45.5404 H         1 UNK         0.0600 
    171 H171       -2.9670  -12.0634  -43.5183 H         1 UNK         0.0600 
    172 H172       -3.2638  -12.3359  -45.2367 H         1 UNK         0.0600 
    173 H173       -2.9638  -13.6976  -44.1714 H         1 UNK         0.0600 
    174 H174       -1.5502  -10.4800  -44.7331 H         1 UNK         0.3000 
    175 H175       -0.2047   -8.7206  -45.0740 H         1 UNK         0.0600 
    176 H176        2.4985   -9.1881  -46.4602 H         1 UNK         0.0600 
    177 H177        1.9016   -7.6549  -45.8330 H         1 UNK         0.0600 
    178 H178        2.2761   -8.9682  -44.7298 H         1 UNK         0.0600 
    179 H179       -0.1965   -9.8076  -47.7519 H         1 UNK         0.3000 
    180 H180       -1.9444   -7.1220  -49.0826 H         1 UNK         0.0600 
    181 H181       -0.3571   -6.9818  -50.9754 H         1 UNK         0.0600 
    182 H182        0.9203   -7.7051  -50.0011 H         1 UNK         0.0600 
    183 H183        0.2818   -6.1197  -49.5859 H         1 UNK         0.0600 
    184 H184       -0.6736   -9.5420  -50.1450 H         1 UNK         0.3000 
    185 H185       -3.5779  -11.5605  -49.6749 H         1 UNK         0.0600 
    186 H186       -3.2291  -11.8796  -52.1098 H         1 UNK         0.0600 
    187 H187       -3.9767  -10.3207  -51.7983 H         1 UNK         0.0600 
    188 H188       -2.2638  -10.4064  -52.1938 H         1 UNK         0.0600 
    189 H189       -0.8200  -11.7595  -50.7186 H         1 UNK         0.3000 
    190 H190        0.1796  -23.5726  -45.0797 H         1 UNK         0.3000 
    191 H191       -2.2963  -23.3841  -46.3361 H         1 UNK         0.0600 
    192 H192       -1.7053  -24.1954  -43.4456 H         1 UNK         0.0600 
    193 H193       -3.2015  -23.4886  -44.0397 H         1 UNK         0.0600 
    194 H194       -1.7238  -22.5380  -44.0456 H         1 UNK         0.0600 
    195 H195       -0.5634  -26.2897  -45.6732 H         1 UNK         0.3000 
    196 H196       -2.7212  -28.1853  -45.6920 H         1 UNK         0.0600 
    197 H197       -0.4244  -28.7508  -44.9179 H         1 UNK         0.0600 
    198 H198        0.2167  -28.4598  -46.5345 H         1 UNK         0.0600 
    199 H199       -0.8943  -29.7952  -46.2509 H         1 UNK         0.0600 
    200 H200       -1.0826  -26.3345  -48.2151 H         1 UNK         0.3000 
    201 H201       -2.5344  -27.7704  -50.3936 H         1 UNK         0.0600 
    202 H202       -0.1114  -27.4771  -50.7824 H         1 UNK         0.0600 
    203 H203       -0.2330  -25.7456  -50.4897 H         1 UNK         0.0600 
    204 H204       -1.0228  -26.4616  -51.8883 H         1 UNK         0.0600 
    205 H205       -1.7942  -24.4945  -49.1352 H         1 UNK         0.3000 
    206 H206       -2.7854  -22.5017  -49.2458 H         1 UNK         0.0600 
    207 H207       -4.2677  -23.4994  -47.5802 H         1 UNK         0.0600 
    208 H208       -5.2387  -22.4754  -48.6092 H         1 UNK         0.0600 
    209 H209       -5.2881  -24.2243  -48.8099 H         1 UNK         0.0600 
    210 H210       -5.7910  -23.4761  -50.6533 H         1 UNK         0.3000 
    211 H211       -5.6160  -21.7340  -52.8812 H         1 UNK         0.0600 
    212 H212       -7.7670  -22.8250  -53.5407 H         1 UNK         0.0600 
    213 H213       -7.7633  -22.4145  -51.8331 H         1 UNK         0.0600 
    214 H214       -7.5101  -24.0848  -52.3392 H         1 UNK         0.0600 
    215 H215       -4.6685  -25.1378  -52.5314 H         1 UNK         0.3000 
    216 H216       -4.4585  -25.7027  -55.3639 H         1 UNK         0.0600 
    217 H217       -3.1375  -27.1010  -52.9804 H         1 UNK         0.0600 
    218 H218       -4.7314  -27.4864  -53.6265 H         1 UNK         0.0600 
    219 H219       -3.2965  -27.7387  -54.6085 H         1 UNK         0.0600 
    220 H220       -2.4759  -23.9455  -53.1063 H         1 UNK         0.3000 
    221 H221       -0.1043  -23.9325  -54.9055 H         1 UNK         0.0600 
    222 H222       -0.5118  -22.8673  -52.0599 H         1 UNK         0.0600 
    223 H223        0.3391  -24.3456  -52.4999 H         1 UNK         0.0600 
    224 H224        0.9856  -22.7876  -52.9767 H         1 UNK         0.0600 
    225 H225       -3.0142  -22.4536  -54.8162 H         1 UNK         0.3000 
    226 H226       -3.9649  -20.6035  -55.5022 H         1 UNK         0.0600 
    227 H227       -2.5588  -20.9534  -57.5465 H         1 UNK         0.0600 
    228 H228       -2.9221  -19.2584  -57.2722 H         1 UNK         0.0600 
    229 H229       -1.3268  -19.8822  -56.8798 H         1 UNK         0.0600 
    230 H230       -2.7933  -20.5951  -52.8802 H         1 UNK         0.3000 
    231 H231       -1.6528  -18.0115  -52.2842 H         1 UNK         0.0600 
    232 H232       -1.8660  -18.8090  -49.9681 H         1 UNK         0.0600 
    233 H233       -1.3222  -20.1558  -50.9639 H         1 UNK         0.0600 
    234 H234       -2.9993  -20.0633  -50.4358 H         1 UNK         0.0600 
    235 H235       -2.6246  -16.4868  -50.7585 H         1 UNK         0.3000 
    236 H236       -5.3171  -15.6437  -51.2322 H         1 UNK         0.0600 
    237 H237       -3.3820  -14.9633  -48.9506 H         1 UNK         0.0600 
    238 H238       -3.4936  -14.1116  -50.4913 H         1 UNK         0.0600 
    239 H239       -4.8387  -14.0688  -49.3625 H         1 UNK         0.0600 
    240 H240       -3.9029  -17.9647  -49.0328 H         1 UNK         0.3000 
    241 H241       -6.2060  -18.3410  -47.3326 H         1 UNK         0.0600 
    242 H242       -7.0693  -20.4213  -50.6720 H         1 UNK         0.3800 
    243 H243       -5.8536  -19.1744  -50.7129 H         1 UNK         0.3800 
    244 H244       -5.0170  -20.4669  -46.6462 H         1 UNK         0.0800 
    245 H245       -3.7950  -20.1506  -47.8546 H         1 UNK         0.0800 
    246 H246       -2.3420  -20.6168  -45.5356 H         1 UNK         0.0800 
    247 H247       -1.6314  -19.2016  -44.8036 H         1 UNK         0.0800 
@<TRIPOS>BOND
     1    1    2 1    
     2    1  127 1    
     3    1  128 1    
     4    1  129 1    
     5    2    3 2    
     6    2    4 am   BACKBONE|DICT|INTERRES
     7    4    5 1    
     8    4  130 1    
     9    5    6 1    
    10    5   65 1    
    11    5  131 1    
    12    6    7 1    
    13    6  132 1    
    14    6  133 1    
    15    7    8 1    
    16    8    9 1    
    17    8  134 1    
    18    8  135 1    
    19    9   10 ar   
    20    9   14 ar   
    21   10   11 ar   
    22   10  136 1    
    23   11   12 ar   
    24   11  126 1    
    25   12   13 ar   
    26   12  137 1    
    27   13   14 ar   
    28   13   15 1    
    29   14  138 1    
    30   15   16 1    
    31   15  139 1    
    32   15  140 1    
    33   16   17 1    
    34   17   18 1    
    35   17  141 1    
    36   17  142 1    
    37   18   19 1    
    38   18   67 1    
    39   18  143 1    
    40   19   20 am   BACKBONE|DICT|INTERRES
    41   19  144 1    
    42   20   21 2    
    43   20   22 1    
    44   22   23 1    
    45   22   24 1    
    46   22  145 1    
    47   23  146 1    
    48   23  147 1    
    49   23  148 1    
    50   24   25 am   BACKBONE|DICT|INTERRES
    51   24  149 1    
    52   25   26 2    
    53   25   27 1    
    54   27   28 1    
    55   27   29 1    
    56   27  150 1    
    57   28  151 1    
    58   28  152 1    
    59   28  153 1    
    60   29   30 am   BACKBONE|DICT|INTERRES
    61   29  154 1    
    62   30   31 2    
    63   30   32 1    
    64   32   33 1    
    65   32   34 1    
    66   32  155 1    
    67   33  156 1    
    68   33  157 1    
    69   33  158 1    
    70   34   35 am   BACKBONE|DICT|INTERRES
    71   34  159 1    
    72   35   36 2    
    73   35   37 1    
    74   37   38 1    
    75   37   39 1    
    76   37  160 1    
    77   38  161 1    
    78   38  162 1    
    79   38  163 1    
    80   39   40 am   BACKBONE|DICT|INTERRES
    81   39  164 1    
    82   40   41 2    
    83   40   42 1    
    84   42   43 1    
    85   42   44 1    
    86   42  165 1    
    87   43  166 1    
    88   43  167 1    
    89   43  168 1    
    90   44   45 am   BACKBONE|DICT|INTERRES
    91   44  169 1    
    92   45   46 2    
    93   45   47 1    
    94   47   48 1    
    95   47   49 1    
    96   47  170 1    
    97   48  171 1    
    98   48  172 1    
    99   48  173 1    
   100   49   50 am   BACKBONE|DICT|INTERRES
   101   49  174 1    
   102   50   51 2    
   103   50   52 1    
   104   52   53 1    
   105   52   54 1    
   106   52  175 1    
   107   53  176 1    
   108   53  177 1    
   109   53  178 1    
   110   54   55 am   BACKBONE|DICT|INTERRES
   111   54  179 1    
   112   55   56 2    
   113   55   57 1    
   114   57   58 1    
   115   57   59 1    
   116   57  180 1    
   117   58  181 1    
   118   58  182 1    
   119   58  183 1    
   120   59   60 am   BACKBONE|DICT|INTERRES
   121   59  184 1    
   122   60   61 2    
   123   60   62 1    
   124   62   63 1    
   125   62   64 1    
   126   62  185 1    
   127   63  186 1    
   128   63  187 1    
   129   63  188 1    
   130   64   65 am   BACKBONE|DICT|INTERRES
   131   64  189 1    
   132   65   66 2    
   133   67   68 2    
   134   67   69 am   BACKBONE|DICT|INTERRES
   135   69   70 1    
   136   69  190 1    
   137   70   71 1    
   138   70   72 1    
   139   70  191 1    
   140   71  192 1    
   141   71  193 1    
   142   71  194 1    
   143   72   73 2    
   144   72   74 am   BACKBONE|DICT|INTERRES
   145   74   75 1    
   146   74  195 1    
   147   75   76 1    
   148   75   77 1    
   149   75  196 1    
   150   76  197 1    
   151   76  198 1    
   152   76  199 1    
   153   77   78 2    
   154   77   79 am   BACKBONE|DICT|INTERRES
   155   79   80 1    
   156   79  200 1    
   157   80   81 1    
   158   80   82 1    
   159   80  201 1    
   160   81  202 1    
   161   81  203 1    
   162   81  204 1    
   163   82   83 2    
   164   82   84 am   BACKBONE|DICT|INTERRES
   165   84   85 1    
   166   84  205 1    
   167   85   86 1    
   168   85   87 1    
   169   85  206 1    
   170   86  207 1    
   171   86  208 1    
   172   86  209 1    
   173   87   88 2    
   174   87   89 am   BACKBONE|DICT|INTERRES
   175   89   90 1    
   176   89  210 1    
   177   90   91 1    
   178   90   92 1    
   179   90  211 1    
   180   91  212 1    
   181   91  213 1    
   182   91  214 1    
   183   92   93 2    
   184   92   94 am   BACKBONE|DICT|INTERRES
   185   94   95 1    
   186   94  215 1    
   187   95   96 1    
   188   95   97 1    
   189   95  216 1    
   190   96  217 1    
   191   96  218 1    
   192   96  219 1    
   193   97   98 2    
   194   97   99 am   BACKBONE|DICT|INTERRES
   195   99  100 1    
   196   99  220 1    
   197  100  101 1    
   198  100  102 1    
   199  100  221 1    
   200  101  222 1    
   201  101  223 1    
   202  101  224 1    
   203  102  103 2    
   204  102  104 am   BACKBONE|DICT|INTERRES
   205  104  105 1    
   206  104  225 1    
   207  105  106 1    
   208  105  107 1    
   209  105  226 1    
   210  106  227 1    
   211  106  228 1    
   212  106  229 1    
   213  107  108 2    
   214  107  109 am   BACKBONE|DICT|INTERRES
   215  109  110 1    
   216  109  230 1    
   217  110  111 1    
   218  110  112 1    
   219  110  231 1    
   220  111  232 1    
   221  111  233 1    
   222  111  234 1    
   223  112  113 2    
   224  112  114 am   BACKBONE|DICT|INTERRES
   225  114  115 1    
   226  114  235 1    
   227  115  116 1    
   228  115  117 1    
   229  115  236 1    
   230  116  237 1    
   231  116  238 1    
   232  116  239 1    
   233  117  118 2    
   234  117  119 am   BACKBONE|DICT|INTERRES
   235  119  120 1    
   236  119  240 1    
   237  120  121 1    
   238  120  124 1    
   239  120  241 1    
   240  121  122 am   BACKBONE|DICT|INTERRES
   241  121  123 2    
   242  122  242 1    
   243  122  243 1    
   244  124  125 1    
   245  124  244 1    
   246  124  245 1    
   247  125  126 1    
   248  126  246 1    
   249  126  247 1    
@<TRIPOS>SUBSTRUCTURE
     1 UNK         1 GROUP             0       ****    0 ROOT    
