@<TRIPOS>MOLECULE
3R540
247   249    1
SMALL
USER_CHARGES


@<TRIPOS>ATOM
      1 CA         -3.2536   -8.0979  -42.7695 C.3       0 UNK        -0.1800 
      2 C          -2.3874   -8.9006  -43.7290 C.2       0 UNK         0.5000 
      3 O          -1.6962   -8.3168  -44.5624 O.2       0 UNK        -0.5000 
      4 N          -2.4098  -10.2354  -43.6060 N.am      1 UNK        -0.5000 
      5 CA         -1.6633  -11.1918  -44.4377 C.3       1 UNK         0.1400 
      6 C6         -2.0303  -12.6474  -44.0442 C.3       23 UNK        -0.0398 
      7 S7         -1.4099  -13.9900  -45.1183 S.3       23 UNK        -0.2404 
      8 C8         -1.8092  -13.3913  -46.7885 C.3       23 UNK        -0.0205 
      9 C9         -1.8281  -14.5354  -47.7876 C.ar      23 UNK        -0.0193 
     10 C10        -0.7050  -14.8198  -48.5721 C.ar      23 UNK        -0.1150 
     11 C11        -0.7345  -15.8696  -49.4970 C.ar      23 UNK        -0.0193 
     12 C12        -1.8999  -16.6314  -49.6296 C.ar      23 UNK        -0.1150 
     13 C13        -3.0131  -16.3786  -48.8270 C.ar      23 UNK        -0.0193 
     14 C14        -2.9788  -15.3171  -47.9207 C.ar      23 UNK        -0.1150 
     15 C15        -4.2347  -17.2789  -48.9157 C.3       23 UNK        -0.0205 
     16 S16        -4.4673  -18.2868  -47.4124 S.3       23 UNK        -0.2404 
     17 C17        -2.8338  -19.0761  -47.1665 C.3       23 UNK        -0.0398 
     18 CA         -2.5096  -20.2065  -48.1712 C.3       11 UNK         0.1400 
     19 N          -1.1189  -20.6520  -48.0690 N.am      11 UNK        -0.5000 
     20 C          -0.5248  -21.5294  -48.8906 C.2       10 UNK         0.5000 
     21 O          -1.0603  -21.9742  -49.9066 O.2       10 UNK        -0.5000 
     22 CA          0.8746  -22.0294  -48.4893 C.3       10 UNK         0.1400 
     23 CB          1.9782  -21.1463  -49.0816 C.3       10 UNK        -0.1800 
     24 N           1.0238  -22.0833  -47.0354 N.am      10 UNK        -0.5000 
     25 C           0.6960  -23.1418  -46.2815 C.2       9 UNK         0.5000 
     26 O           0.3105  -24.2154  -46.7420 O.2       9 UNK        -0.5000 
     27 CA          0.8103  -22.9796  -44.7528 C.3       9 UNK         0.1400 
     28 CB          2.1762  -23.4813  -44.2610 C.3       9 UNK        -0.1800 
     29 N           0.6148  -21.6029  -44.2942 N.am      9 UNK        -0.5000 
     30 C          -0.5475  -20.9387  -44.3503 C.2       8 UNK         0.5000 
     31 O          -1.5908  -21.4223  -44.7906 O.2       8 UNK        -0.5000 
     32 CA         -0.5233  -19.4679  -43.8887 C.3       8 UNK         0.1400 
     33 CB         -0.7482  -19.3731  -42.3729 C.3       8 UNK        -0.1800 
     34 N           0.7069  -18.7506  -44.2395 N.am      8 UNK        -0.5000 
     35 C           1.1965  -18.5993  -45.4772 C.2       7 UNK         0.5000 
     36 O           0.6848  -19.1179  -46.4702 O.2       7 UNK        -0.5000 
     37 CA          2.4663  -17.7359  -45.6141 C.3       7 UNK         0.1400 
     38 CB          2.9339  -17.5837  -47.0715 C.3       7 UNK        -0.1800 
     39 N           2.2763  -16.3989  -45.0598 N.am      7 UNK        -0.5000 
     40 C           2.3573  -16.0455  -43.7739 C.2       6 UNK         0.5000 
     41 O           2.5435  -16.8584  -42.8661 O.2       6 UNK        -0.5000 
     42 CA          2.2228  -14.5357  -43.4664 C.3       6 UNK         0.1400 
     43 CB          2.5290  -14.2022  -41.9953 C.3       6 UNK        -0.1800 
     44 N           3.0701  -13.7001  -44.3275 N.am      6 UNK        -0.5000 
     45 C           2.8084  -13.3963  -45.6048 C.2       5 UNK         0.5000 
     46 O           1.8359  -13.8335  -46.2223 O.2       5 UNK        -0.5000 
     47 CA          3.7965  -12.4794  -46.3318 C.3       5 UNK         0.1400 
     48 CB          4.5779  -13.2967  -47.3823 C.3       5 UNK        -0.1800 
     49 N           2.9955  -11.4186  -46.9337 N.am      5 UNK        -0.5000 
     50 C           3.3858  -10.4418  -47.7591 C.2       4 UNK         0.5000 
     51 O           4.5411  -10.2748  -48.1506 O.2       4 UNK        -0.5000 
     52 CA          2.2882   -9.4516  -48.1777 C.3       4 UNK         0.1400 
     53 CB          1.1044  -10.1597  -48.8614 C.3       4 UNK        -0.1800 
     54 N           1.8167   -8.7408  -46.9932 N.am      4 UNK        -0.5000 
     55 C           2.3194   -7.5781  -46.5550 C.2       3 UNK         0.5000 
     56 O           3.1337   -6.9018  -47.1850 O.2       3 UNK        -0.5000 
     57 CA          1.8527   -7.0931  -45.1679 C.3       3 UNK         0.1400 
     58 CB          0.6803   -6.1104  -45.3052 C.3       3 UNK        -0.1800 
     59 N           1.4697   -8.1969  -44.2834 N.am      3 UNK        -0.5000 
     60 C           2.3424   -9.0690  -43.7536 C.2       2 UNK         0.5000 
     61 O           3.5623   -8.9733  -43.8906 O.2       2 UNK        -0.5000 
     62 CA          1.7791  -10.2607  -42.9522 C.3       2 UNK         0.1400 
     63 CB          1.9538  -10.0241  -41.4445 C.3       2 UNK        -0.1800 
     64 N           0.3746  -10.5773  -43.2177 N.am      2 UNK        -0.5000 
     65 C          -0.1386  -10.9460  -44.4003 C.2       1 UNK         0.5000 
     66 O           0.5214  -11.0199  -45.4376 O.2       1 UNK        -0.5000 
     67 C          -3.4803  -21.3984  -48.0527 C.2       11 UNK         0.5000 
     68 O          -4.3002  -21.5965  -48.9474 O.2       11 UNK        -0.5000 
     69 N          -3.3160  -22.2073  -46.9992 N.am      12 UNK        -0.5000 
     70 CA         -4.1107  -23.4044  -46.7261 C.3       12 UNK         0.1400 
     71 CB         -4.4275  -23.4483  -45.2210 C.3       12 UNK        -0.1800 
     72 C          -3.4130  -24.6928  -47.2107 C.2       12 UNK         0.5000 
     73 O          -3.5769  -25.7423  -46.5845 O.2       12 UNK        -0.5000 
     74 N          -2.6549  -24.6104  -48.3139 N.am      13 UNK        -0.5000 
     75 CA         -1.9027  -25.7206  -48.9063 C.3       13 UNK         0.1400 
     76 CB         -1.1502  -25.2276  -50.1485 C.3       13 UNK        -0.1800 
     77 C          -2.7748  -26.9441  -49.2473 C.2       13 UNK         0.5000 
     78 O          -3.8535  -26.7903  -49.8270 O.2       13 UNK        -0.5000 
     79 N          -2.2848  -28.1296  -48.8550 N.am      14 UNK        -0.5000 
     80 CA         -2.9347  -29.4412  -48.9665 C.3       14 UNK         0.1400 
     81 CB         -3.0420  -29.8696  -50.4451 C.3       14 UNK        -0.1800 
     82 C          -4.2870  -29.4993  -48.2237 C.2       14 UNK         0.5000 
     83 O          -5.2535  -30.0494  -48.7493 O.2       14 UNK        -0.5000 
     84 N          -4.3458  -28.8816  -47.0327 N.am      15 UNK        -0.5000 
     85 CA         -5.5520  -28.6688  -46.2175 C.3       15 UNK         0.1400 
     86 CB         -6.0908  -30.0039  -45.6623 C.3       15 UNK        -0.1800 
     87 C          -6.6194  -27.8460  -46.9732 C.2       15 UNK         0.5000 
     88 O          -7.8104  -28.1562  -46.9229 O.2       15 UNK        -0.5000 
     89 N          -6.1334  -26.8257  -47.6913 N.am      16 UNK        -0.5000 
     90 CA         -6.8394  -25.9098  -48.5882 C.3       16 UNK         0.1400 
     91 CB         -7.9144  -25.1029  -47.8326 C.3       16 UNK        -0.1800 
     92 C          -7.3756  -26.5550  -49.8852 C.2       16 UNK         0.5000 
     93 O          -8.1151  -25.8941  -50.6155 O.2       16 UNK        -0.5000 
     94 N          -6.9745  -27.7969  -50.1982 N.am      17 UNK        -0.5000 
     95 CA         -7.3090  -28.4625  -51.4624 C.3       17 UNK         0.1400 
     96 CB         -7.1174  -29.9794  -51.3217 C.3       17 UNK        -0.1800 
     97 C          -6.4905  -27.9270  -52.6544 C.2       17 UNK         0.5000 
     98 O          -6.9303  -28.0670  -53.7962 O.2       17 UNK        -0.5000 
     99 N          -5.3311  -27.3190  -52.3741 N.am      18 UNK        -0.5000 
    100 CA        -4.4366  -26.6941  -53.3468 C.3       18 UNK         0.1400 
    101 CB        -3.1870  -27.5779  -53.5181 C.3       18 UNK        -0.1800 
    102 C         -4.0960  -25.2660  -52.8843 C.2       18 UNK         0.5000 
    103 O         -2.9488  -24.8382  -53.0125 O.2       18 UNK        -0.5000 
    104 N         -5.1000  -24.5795  -52.3167 N.am      19 UNK        -0.5000 
    105 CA        -5.0058  -23.2797  -51.6509 C.3       19 UNK         0.1400 
    106 CB        -6.4140  -22.8464  -51.2109 C.3       19 UNK        -0.1800 
    107 C         -4.3548  -22.1591  -52.4847 C.2       19 UNK         0.5000 
    108 O         -4.4709  -22.1470  -53.7128 O.2       19 UNK        -0.5000 
    109 N         -3.7301  -21.2152  -51.7680 N.am      20 UNK        -0.5000 
    110 CA        -3.0090  -20.0424  -52.2706 C.3       20 UNK         0.1400 
    111 CB        -3.9811  -19.0339  -52.9158 C.3       20 UNK        -0.1800 
    112 C         -1.8206  -20.4158  -53.1783 C.2       20 UNK         0.5000 
    113 O         -1.6306  -19.8130  -54.2365 O.2       20 UNK        -0.5000 
    114 N         -1.0164  -21.3901  -52.7295 N.am      21 UNK        -0.5000 
    115 CA         0.1734  -21.8895  -53.4275 C.3       21 UNK         0.1400 
    116 CB         0.7080  -23.1242  -52.6863 C.3       21 UNK        -0.1800 
    117 C          1.2804  -20.8274  -53.5954 C.2       21 UNK         0.5000 
    118 O          2.0609  -20.9023  -54.5448 O.2       21 UNK        -0.5000 
    119 N          1.3008  -19.8454  -52.6877 N.am      22 UNK        -0.5000 
    120 CA         2.1134  -18.6220  -52.7505 C.3       22 UNK         0.1400 
    121 C          1.5707  -17.5287  -53.7207 C.2       22 UNK         0.5000 
    122 N          0.4145  -17.6923  -54.3540 N.am      22 UNK        -0.7600 
    123 O          2.2246  -16.5081  -53.9168 O.2       22 UNK        -0.5000 
    124 C124        2.3954  -18.0541  -51.3320 C.3       23 UNK        -0.0398 
    125 S125        0.9176  -17.9543  -50.2628 S.3       23 UNK        -0.2404 
    126 C126        0.4871  -16.1877  -50.3503 C.3       23 UNK        -0.0205 
    127 H127       -2.6330   -7.4219  -42.1813 H         1 UNK         0.0600 
    128 H128       -3.8024   -8.7418  -42.0819 H         1 UNK         0.0600 
    129 H129       -3.9756   -7.5013  -43.3270 H         1 UNK         0.0600 
    130 H130       -3.0007  -10.6437  -42.8955 H         1 UNK         0.3000 
    131 H131       -1.9886  -11.0124  -45.4633 H         1 UNK         0.0600 
    132 H132       -3.1163  -12.7495  -44.0217 H         1 UNK         0.0800 
    133 H133       -1.6963  -12.8573  -43.0266 H         1 UNK         0.0800 
    134 H134       -1.0772  -12.6401  -47.0891 H         1 UNK         0.0800 
    135 H135       -2.7837  -12.9007  -46.7835 H         1 UNK         0.0800 
    136 H136        0.1912  -14.2260  -48.4557 H         1 UNK         0.1150 
    137 H137       -1.9245  -17.4463  -50.3380 H         1 UNK         0.1150 
    138 H138       -3.8399  -15.1171  -47.2982 H         1 UNK         0.1150 
    139 H139       -5.1226  -16.6642  -49.0699 H         1 UNK         0.0800 
    140 H140       -4.1697  -17.9399  -49.7810 H         1 UNK         0.0800 
    141 H141       -2.8123  -19.4619  -46.1480 H         1 UNK         0.0800 
    142 H142       -2.0588  -18.3092  -47.2008 H         1 UNK         0.0800 
    143 H143       -2.6237  -19.7911  -49.1712 H         1 UNK         0.0600 
    144 H144       -0.5663  -20.2507  -47.3169 H         1 UNK         0.3000 
    145 H145        1.0038  -23.0294  -48.9048 H         1 UNK         0.0600 
    146 H146        2.9661  -21.5528  -48.8654 H         1 UNK         0.0600 
    147 H147        1.8861  -21.0749  -50.1651 H         1 UNK         0.0600 
    148 H148        1.9381  -20.1369  -48.6775 H         1 UNK         0.0600 
    149 H149        1.2817  -21.2185  -46.5788 H         1 UNK         0.3000 
    150 H150        0.0345  -23.6002  -44.2992 H         1 UNK         0.0600 
    151 H151        2.3441  -24.5159  -44.5632 H         1 UNK         0.0600 
    152 H152        2.2409  -23.4477  -43.1732 H         1 UNK         0.0600 
    153 H153        2.9943  -22.8842  -44.6659 H         1 UNK         0.0600 
    154 H154        1.4236  -21.1250  -43.9248 H         1 UNK         0.3000 
    155 H155       -1.3480  -18.9533  -44.3836 H         1 UNK         0.0600 
    156 H156        0.0688  -19.8322  -41.8150 H         1 UNK         0.0600 
    157 H157       -1.6704  -19.8782  -42.0820 H         1 UNK         0.0600 
    158 H158       -0.8322  -18.3348  -42.0512 H         1 UNK         0.0600 
    159 H159        1.1969  -18.2808  -43.4855 H         1 UNK         0.3000 
    160 H160        3.2613  -18.2390  -45.0600 H         1 UNK         0.0600 
    161 H161        2.1726  -17.1015  -47.6856 H         1 UNK         0.0600 
    162 H162        3.1595  -18.5523  -47.5165 H         1 UNK         0.0600 
    163 H163        3.8410  -16.9824  -47.1345 H         1 UNK         0.0600 
    164 H164        2.0592  -15.6600  -45.7236 H         1 UNK         0.3000 
    165 H165        1.1802  -14.2696  -43.6485 H         1 UNK         0.0600 
    166 H166        2.3693  -13.1449  -41.7873 H         1 UNK         0.0600 
    167 H167        1.8780  -14.7616  -41.3222 H         1 UNK         0.0600 
    168 H168        3.5597  -14.4446  -41.7340 H         1 UNK         0.0600 
    169 H169        3.9191  -13.3514  -43.9067 H         1 UNK         0.3000 
    170 H170        4.4882  -12.0338  -45.6149 H         1 UNK         0.0600 
    171 H171        5.0470  -14.1698  -46.9267 H         1 UNK         0.0600 
    172 H172        3.9247  -13.6553  -48.1790 H         1 UNK         0.0600 
    173 H173        5.3765  -12.7132  -47.8389 H         1 UNK         0.0600 
    174 H174        2.0202  -11.4418  -46.6431 H         1 UNK         0.3000 
    175 H175        2.7171   -8.7498  -48.8962 H         1 UNK         0.0600 
    176 H176        0.5893  -10.8485  -48.1911 H         1 UNK         0.0600 
    177 H177        0.3710   -9.4361  -49.2174 H         1 UNK         0.0600 
    178 H178        1.4410  -10.7332  -49.7259 H         1 UNK         0.0600 
    179 H179        1.1925   -9.2564  -46.3837 H         1 UNK         0.3000 
    180 H180        2.6858   -6.5605  -44.7044 H         1 UNK         0.0600 
    181 H181        0.3307   -5.7697  -44.3305 H         1 UNK         0.0600 
    182 H182       -0.1638   -6.5609  -45.8279 H         1 UNK         0.0600 
    183 H183        0.9791   -5.2274  -45.8714 H         1 UNK         0.0600 
    184 H184        0.4764   -8.3474  -44.1527 H         1 UNK         0.3000 
    185 H185        2.3685  -11.1350  -43.2320 H         1 UNK         0.0600 
    186 H186        1.6401  -10.8938  -40.8670 H         1 UNK         0.0600 
    187 H187        2.9986   -9.8321  -41.1964 H         1 UNK         0.0600 
    188 H188        1.3725   -9.1666  -41.1035 H         1 UNK         0.0600 
    189 H189       -0.2559  -10.4964  -42.4334 H         1 UNK         0.3000 
    190 H190       -2.6029  -21.9809  -46.3095 H         1 UNK         0.3000 
    191 H191       -5.0624  -23.3451  -47.2582 H         1 UNK         0.0600 
    192 H192       -5.0944  -24.2775  -44.9814 H         1 UNK         0.0600 
    193 H193       -4.9223  -22.5329  -44.8961 H         1 UNK         0.0600 
    194 H194       -3.5218  -23.5682  -44.6249 H         1 UNK         0.0600 
    195 H195       -2.5686  -23.7158  -48.7739 H         1 UNK         0.3000 
    196 H196       -1.1608  -26.0329  -48.1690 H         1 UNK         0.0600 
    197 H197       -1.7840  -24.6037  -50.7762 H         1 UNK         0.0600 
    198 H198       -0.2816  -24.6363  -49.8676 H         1 UNK         0.0600 
    199 H199       -0.7881  -26.0554  -50.7598 H         1 UNK         0.0600 
    200 H200       -1.3903  -28.1378  -48.3847 H         1 UNK         0.3000 
    201 H201       -2.2812  -30.1552  -48.4635 H         1 UNK         0.0600 
    202 H202       -3.7388  -29.2417  -50.9990 H         1 UNK         0.0600 
    203 H203       -3.3944  -30.8981  -50.5294 H         1 UNK         0.0600 
    204 H204       -2.0744  -29.8165  -50.9437 H         1 UNK         0.0600 
    205 H205       -3.5123  -28.4154  -46.7006 H         1 UNK         0.3000 
    206 H206       -5.2443  -28.0583  -45.3672 H         1 UNK         0.0600 
    207 H207       -5.3124  -30.5531  -45.1329 H         1 UNK         0.0600 
    208 H208       -6.9035  -29.8316  -44.9558 H         1 UNK         0.0600 
    209 H209       -6.4779  -30.6480  -46.4523 H         1 UNK         0.0600 
    210 H210       -5.1304  -26.6842  -47.6461 H         1 UNK         0.3000 
    211 H211       -6.0791  -25.2009  -48.9178 H         1 UNK         0.0600 
    212 H212       -8.3161  -24.3039  -48.4567 H         1 UNK         0.0600 
    213 H213       -7.5013  -24.6360  -46.9384 H         1 UNK         0.0600 
    214 H214       -8.7531  -25.7295  -47.5289 H         1 UNK         0.0600 
    215 H215       -6.3666  -28.3002  -49.5635 H         1 UNK         0.3000 
    216 H216       -8.3642  -28.2806  -51.6773 H         1 UNK         0.0600 
    217 H217       -6.0649  -30.2460  -51.2256 H         1 UNK         0.0600 
    218 H218       -7.5033  -30.5011  -52.1982 H         1 UNK         0.0600 
    219 H219       -7.6460  -30.3688  -50.4514 H         1 UNK         0.0600 
    220 H220       -5.0418  -27.2258  -51.4039 H         1 UNK         0.3000 
    221 H221       -4.9286  -26.5990  -54.3167 H         1 UNK         0.0600 
    222 H222       -3.4577  -28.5921  -53.8119 H         1 UNK         0.0600 
    223 H223       -2.6112  -27.6383  -52.5937 H         1 UNK         0.0600 
    224 H224       -2.5284  -27.1804  -54.2911 H         1 UNK         0.0600 
    225 H225       -6.0058  -25.0238  -52.2861 H         1 UNK         0.3000 
    226 H226       -4.3928  -23.4405  -50.7625 H         1 UNK         0.0600 
    227 H227       -7.0977  -22.7859  -52.0584 H         1 UNK         0.0600 
    228 H228       -6.8368  -23.5388  -50.4864 H         1 UNK         0.0600 
    229 H229       -6.3964  -21.8648  -50.7353 H         1 UNK         0.0600 
    230 H230       -3.7510  -21.3205  -50.7574 H         1 UNK         0.3000 
    231 H231       -2.5688  -19.5534  -51.4033 H         1 UNK         0.0600 
    232 H232       -4.4251  -19.4264  -53.8310 H         1 UNK         0.0600 
    233 H233       -3.4670  -18.1071  -53.1733 H         1 UNK         0.0600 
    234 H234       -4.7913  -18.7758  -52.2340 H         1 UNK         0.0600 
    235 H235       -1.2114  -21.8006  -51.8199 H         1 UNK         0.3000 
    236 H236       -0.1357  -22.1995  -54.4277 H         1 UNK         0.0600 
    237 H237       -0.0438  -23.9129  -52.6478 H         1 UNK         0.0600 
    238 H238        1.5839  -23.5352  -53.1898 H         1 UNK         0.0600 
    239 H239        0.9975  -22.8871  -51.6625 H         1 UNK         0.0600 
    240 H240        0.6161  -19.8661  -51.9465 H         1 UNK         0.3000 
    241 H241        3.0819  -18.9024  -53.1687 H         1 UNK         0.0600 
    242 H242        0.0972  -16.9703  -54.9808 H         1 UNK         0.3800 
    243 H243       -0.1503  -18.5268  -54.2369 H         1 UNK         0.3800 
    244 H244        2.8926  -17.0836  -51.3765 H         1 UNK         0.0800 
    245 H245        3.1031  -18.7123  -50.8267 H         1 UNK         0.0800 
    246 H246        0.2807  -15.9123  -51.3852 H         1 UNK         0.0800 
    247 H247        1.3457  -15.5969  -50.0272 H         1 UNK         0.0800 
@<TRIPOS>BOND
     1    1    2 1    
     2    1  127 1    
     3    1  128 1    
     4    1  129 1    
     5    2    3 2    
     6    2    4 am   BACKBONE|DICT|INTERRES
     7    4    5 1    
     8    4  130 1    
     9    5    6 1    
    10    5   65 1    
    11    5  131 1    
    12    6    7 1    
    13    6  132 1    
    14    6  133 1    
    15    7    8 1    
    16    8    9 1    
    17    8  134 1    
    18    8  135 1    
    19    9   10 ar   
    20    9   14 ar   
    21   10   11 ar   
    22   10  136 1    
    23   11   12 ar   
    24   11  126 1    
    25   12   13 ar   
    26   12  137 1    
    27   13   14 ar   
    28   13   15 1    
    29   14  138 1    
    30   15   16 1    
    31   15  139 1    
    32   15  140 1    
    33   16   17 1    
    34   17   18 1    
    35   17  141 1    
    36   17  142 1    
    37   18   19 1    
    38   18   67 1    
    39   18  143 1    
    40   19   20 am   BACKBONE|DICT|INTERRES
    41   19  144 1    
    42   20   21 2    
    43   20   22 1    
    44   22   23 1    
    45   22   24 1    
    46   22  145 1    
    47   23  146 1    
    48   23  147 1    
    49   23  148 1    
    50   24   25 am   BACKBONE|DICT|INTERRES
    51   24  149 1    
    52   25   26 2    
    53   25   27 1    
    54   27   28 1    
    55   27   29 1    
    56   27  150 1    
    57   28  151 1    
    58   28  152 1    
    59   28  153 1    
    60   29   30 am   BACKBONE|DICT|INTERRES
    61   29  154 1    
    62   30   31 2    
    63   30   32 1    
    64   32   33 1    
    65   32   34 1    
    66   32  155 1    
    67   33  156 1    
    68   33  157 1    
    69   33  158 1    
    70   34   35 am   BACKBONE|DICT|INTERRES
    71   34  159 1    
    72   35   36 2    
    73   35   37 1    
    74   37   38 1    
    75   37   39 1    
    76   37  160 1    
    77   38  161 1    
    78   38  162 1    
    79   38  163 1    
    80   39   40 am   BACKBONE|DICT|INTERRES
    81   39  164 1    
    82   40   41 2    
    83   40   42 1    
    84   42   43 1    
    85   42   44 1    
    86   42  165 1    
    87   43  166 1    
    88   43  167 1    
    89   43  168 1    
    90   44   45 am   BACKBONE|DICT|INTERRES
    91   44  169 1    
    92   45   46 2    
    93   45   47 1    
    94   47   48 1    
    95   47   49 1    
    96   47  170 1    
    97   48  171 1    
    98   48  172 1    
    99   48  173 1    
   100   49   50 am   BACKBONE|DICT|INTERRES
   101   49  174 1    
   102   50   51 2    
   103   50   52 1    
   104   52   53 1    
   105   52   54 1    
   106   52  175 1    
   107   53  176 1    
   108   53  177 1    
   109   53  178 1    
   110   54   55 am   BACKBONE|DICT|INTERRES
   111   54  179 1    
   112   55   56 2    
   113   55   57 1    
   114   57   58 1    
   115   57   59 1    
   116   57  180 1    
   117   58  181 1    
   118   58  182 1    
   119   58  183 1    
   120   59   60 am   BACKBONE|DICT|INTERRES
   121   59  184 1    
   122   60   61 2    
   123   60   62 1    
   124   62   63 1    
   125   62   64 1    
   126   62  185 1    
   127   63  186 1    
   128   63  187 1    
   129   63  188 1    
   130   64   65 am   BACKBONE|DICT|INTERRES
   131   64  189 1    
   132   65   66 2    
   133   67   68 2    
   134   67   69 am   BACKBONE|DICT|INTERRES
   135   69   70 1    
   136   69  190 1    
   137   70   71 1    
   138   70   72 1    
   139   70  191 1    
   140   71  192 1    
   141   71  193 1    
   142   71  194 1    
   143   72   73 2    
   144   72   74 am   BACKBONE|DICT|INTERRES
   145   74   75 1    
   146   74  195 1    
   147   75   76 1    
   148   75   77 1    
   149   75  196 1    
   150   76  197 1    
   151   76  198 1    
   152   76  199 1    
   153   77   78 2    
   154   77   79 am   BACKBONE|DICT|INTERRES
   155   79   80 1    
   156   79  200 1    
   157   80   81 1    
   158   80   82 1    
   159   80  201 1    
   160   81  202 1    
   161   81  203 1    
   162   81  204 1    
   163   82   83 2    
   164   82   84 am   BACKBONE|DICT|INTERRES
   165   84   85 1    
   166   84  205 1    
   167   85   86 1    
   168   85   87 1    
   169   85  206 1    
   170   86  207 1    
   171   86  208 1    
   172   86  209 1    
   173   87   88 2    
   174   87   89 am   BACKBONE|DICT|INTERRES
   175   89   90 1    
   176   89  210 1    
   177   90   91 1    
   178   90   92 1    
   179   90  211 1    
   180   91  212 1    
   181   91  213 1    
   182   91  214 1    
   183   92   93 2    
   184   92   94 am   BACKBONE|DICT|INTERRES
   185   94   95 1    
   186   94  215 1    
   187   95   96 1    
   188   95   97 1    
   189   95  216 1    
   190   96  217 1    
   191   96  218 1    
   192   96  219 1    
   193   97   98 2    
   194   97   99 am   BACKBONE|DICT|INTERRES
   195   99  100 1    
   196   99  220 1    
   197  100  101 1    
   198  100  102 1    
   199  100  221 1    
   200  101  222 1    
   201  101  223 1    
   202  101  224 1    
   203  102  103 2    
   204  102  104 am   BACKBONE|DICT|INTERRES
   205  104  105 1    
   206  104  225 1    
   207  105  106 1    
   208  105  107 1    
   209  105  226 1    
   210  106  227 1    
   211  106  228 1    
   212  106  229 1    
   213  107  108 2    
   214  107  109 am   BACKBONE|DICT|INTERRES
   215  109  110 1    
   216  109  230 1    
   217  110  111 1    
   218  110  112 1    
   219  110  231 1    
   220  111  232 1    
   221  111  233 1    
   222  111  234 1    
   223  112  113 2    
   224  112  114 am   BACKBONE|DICT|INTERRES
   225  114  115 1    
   226  114  235 1    
   227  115  116 1    
   228  115  117 1    
   229  115  236 1    
   230  116  237 1    
   231  116  238 1    
   232  116  239 1    
   233  117  118 2    
   234  117  119 am   BACKBONE|DICT|INTERRES
   235  119  120 1    
   236  119  240 1    
   237  120  121 1    
   238  120  124 1    
   239  120  241 1    
   240  121  122 am   BACKBONE|DICT|INTERRES
   241  121  123 2    
   242  122  242 1    
   243  122  243 1    
   244  124  125 1    
   245  124  244 1    
   246  124  245 1    
   247  125  126 1    
   248  126  246 1    
   249  126  247 1    
@<TRIPOS>SUBSTRUCTURE
     1 UNK         1 GROUP             0       ****    0 ROOT    
