@<TRIPOS>MOLECULE
3R540
247   249    1
SMALL
USER_CHARGES


@<TRIPOS>ATOM
      1 CA         -2.1781  -17.7758  -48.4285 C.3       0 UNK        -0.1800 
      2 C          -1.5202  -16.4229  -48.6439 C.2       0 UNK         0.5000 
      3 O          -2.2113  -15.4324  -48.8829 O.2       0 UNK        -0.5000 
      4 N          -0.1840  -16.3910  -48.5821 N.am      1 UNK        -0.5000 
      5 CA          0.6324  -15.1869  -48.7533 C.3       1 UNK         0.1400 
      6 C6          2.1102  -15.5442  -49.0851 C.3       23 UNK        -0.0398 
      7 S7          2.6125  -14.8286  -50.6869 S.3       23 UNK        -0.2404 
      8 C8          2.7927  -16.3086  -51.7449 C.3       23 UNK        -0.0205 
      9 C9          1.5493  -17.1927  -51.8312 C.ar      23 UNK        -0.0193 
     10 C10         0.2717  -16.6440  -51.9920 C.ar      23 UNK        -0.1150 
     11 C11        -0.8538  -17.4702  -52.0734 C.ar      23 UNK        -0.0193 
     12 C12        -0.6947  -18.8565  -52.0140 C.ar      23 UNK        -0.1150 
     13 C13         0.5756  -19.4208  -51.8812 C.ar      23 UNK        -0.0193 
     14 C14         1.6908  -18.5838  -51.7838 C.ar      23 UNK        -0.1150 
     15 C15         0.7470  -20.9334  -51.8704 C.3       23 UNK        -0.0205 
     16 S16         1.0164  -21.5857  -50.1941 S.3       23 UNK        -0.2404 
     17 C17        -0.6001  -21.2563  -49.4200 C.3       23 UNK        -0.0398 
     18 CA         -0.8184  -22.0899  -48.1361 C.3       11 UNK         0.1400 
     19 N           0.2160  -21.8337  -47.1314 N.am      11 UNK        -0.5000 
     20 C           0.3907  -22.5101  -45.9914 C.2       10 UNK         0.5000 
     21 O          -0.3449  -23.4251  -45.6239 O.2       10 UNK        -0.5000 
     22 CA          1.5504  -22.0614  -45.0892 C.3       10 UNK         0.1400 
     23 CB          2.9095  -22.5287  -45.6408 C.3       10 UNK        -0.1800 
     24 N           1.5473  -20.6242  -44.8018 N.am      10 UNK        -0.5000 
     25 C           1.7705  -19.5786  -45.6121 C.2       9 UNK         0.5000 
     26 O           1.9843  -19.6659  -46.8215 O.2       9 UNK        -0.5000 
     27 CA          1.7268  -18.1901  -44.9503 C.3       9 UNK         0.1400 
     28 CB          0.3029  -17.6205  -45.0192 C.3       9 UNK        -0.1800 
     29 N           2.1546  -18.2203  -43.5521 N.am      9 UNK        -0.5000 
     30 C           3.3975  -18.4916  -43.1279 C.2       8 UNK         0.5000 
     31 O           4.3586  -18.6675  -43.8770 O.2       8 UNK        -0.5000 
     32 CA          3.5835  -18.6206  -41.6063 C.3       8 UNK         0.1400 
     33 CB          3.7934  -17.2434  -40.9591 C.3       8 UNK        -0.1800 
     34 N           2.4401  -19.2877  -40.9813 N.am      8 UNK        -0.5000 
     35 C           2.2014  -20.6055  -41.0544 C.2       7 UNK         0.5000 
     36 O           2.9545  -21.4091  -41.6038 O.2       7 UNK        -0.5000 
     37 CA          0.8869  -21.1086  -40.4302 C.3       7 UNK         0.1400 
     38 CB          1.0902  -21.4588  -38.9487 C.3       7 UNK        -0.1800 
     39 N          -0.1995  -20.1360  -40.5506 N.am      7 UNK        -0.5000 
     40 C          -0.8299  -19.8445  -41.6958 C.2       6 UNK         0.5000 
     41 O          -0.5882  -20.3908  -42.7729 O.2       6 UNK        -0.5000 
     42 CA         -1.8926  -18.7341  -41.6291 C.3       6 UNK         0.1400 
     43 CB         -3.2643  -19.3260  -41.2734 C.3       6 UNK        -0.1800 
     44 N          -1.5611  -17.6503  -40.6986 N.am      6 UNK        -0.5000 
     45 C          -0.5230  -16.8196  -40.8586 C.2       5 UNK         0.5000 
     46 O           0.3220  -16.9437  -41.7485 O.2       5 UNK        -0.5000 
     47 CA         -0.3929  -15.6616  -39.8653 C.3       5 UNK         0.1400 
     48 CB          0.6344  -15.9832  -38.7664 C.3       5 UNK        -0.1800 
     49 N           0.0146  -14.4840  -40.6225 N.am      5 UNK        -0.5000 
     50 C          -0.1798  -13.2115  -40.2605 C.2       4 UNK         0.5000 
     51 O          -0.6604  -12.8868  -39.1731 O.2       4 UNK        -0.5000 
     52 CA          0.1637  -12.1167  -41.2961 C.3       4 UNK         0.1400 
     53 CB          0.7964  -10.8662  -40.6493 C.3       4 UNK        -0.1800 
     54 N           0.9506  -12.5825  -42.4476 N.am      4 UNK        -0.5000 
     55 C           2.2363  -12.9680  -42.4705 C.2       3 UNK         0.5000 
     56 O           2.9591  -13.0078  -41.4749 O.2       3 UNK        -0.5000 
     57 CA          2.8129  -13.4035  -43.8339 C.3       3 UNK         0.1400 
     58 CB          3.1055  -14.9089  -43.8292 C.3       3 UNK        -0.1800 
     59 N           1.9179  -13.1141  -44.9569 N.am      3 UNK        -0.5000 
     60 C           1.8580  -11.9589  -45.6277 C.2       2 UNK         0.5000 
     61 O           2.5840  -10.9952  -45.3773 O.2       2 UNK        -0.5000 
     62 CA          0.8081  -11.8753  -46.7620 C.3       2 UNK         0.1400 
     63 CB          0.8657  -10.5382  -47.5233 C.3       2 UNK        -0.1800 
     64 N           0.8978  -12.9688  -47.7372 N.am      2 UNK        -0.5000 
     65 C           0.5177  -14.2379  -47.5390 C.2       1 UNK         0.5000 
     66 O           0.1133  -14.6592  -46.4522 O.2       1 UNK        -0.5000 
     67 C          -2.2409  -21.8619  -47.5891 C.2       11 UNK         0.5000 
     68 O          -3.1751  -22.5115  -48.0571 O.2       11 UNK        -0.5000 
     69 N          -2.3813  -20.9592  -46.6089 N.am      12 UNK        -0.5000 
     70 CA         -3.6339  -20.6965  -45.9040 C.3       12 UNK         0.1400 
     71 CB         -3.5141  -19.3774  -45.1293 C.3       12 UNK        -0.1800 
     72 C          -4.0092  -21.8527  -44.9613 C.2       12 UNK         0.5000 
     73 O          -5.1523  -22.3074  -44.9869 O.2       12 UNK        -0.5000 
     74 N          -3.0324  -22.3282  -44.1739 N.am      13 UNK        -0.5000 
     75 CA         -3.1869  -23.4545  -43.2497 C.3       13 UNK         0.1400 
     76 CB         -1.9699  -23.5224  -42.3143 C.3       13 UNK        -0.1800 
     77 C          -3.3975  -24.7969  -43.9745 C.2       13 UNK         0.5000 
     78 O          -4.2133  -25.6066  -43.5329 O.2       13 UNK        -0.5000 
     79 N          -2.6797  -24.9946  -45.0882 N.am      14 UNK        -0.5000 
     80 CA         -2.7894  -26.1673  -45.9586 C.3       14 UNK         0.1400 
     81 CB         -1.5372  -26.2358  -46.8477 C.3       14 UNK        -0.1800 
     82 C          -4.0586  -26.1707  -46.8352 C.2       14 UNK         0.5000 
     83 O          -4.3886  -27.2119  -47.4033 O.2       14 UNK        -0.5000 
     84 N          -4.7158  -25.0071  -46.9614 N.am      15 UNK        -0.5000 
     85 CA         -5.8622  -24.7059  -47.8298 C.3       15 UNK         0.1400 
     86 CB         -7.0905  -25.5636  -47.4635 C.3       15 UNK        -0.1800 
     87 C          -5.5262  -24.7553  -49.3375 C.2       15 UNK         0.5000 
     88 O          -6.4316  -24.8046  -50.1716 O.2       15 UNK        -0.5000 
     89 N          -4.2288  -24.6886  -49.6654 N.am      16 UNK        -0.5000 
     90 CA         -3.6923  -24.5999  -51.0224 C.3       16 UNK         0.1400 
     91 CB         -2.1831  -24.8806  -50.9853 C.3       16 UNK        -0.1800 
     92 C          -3.9663  -23.2337  -51.6741 C.2       16 UNK         0.5000 
     93 O          -4.0121  -23.1502  -52.9001 O.2       16 UNK        -0.5000 
     94 N          -4.1864  -22.1968  -50.8517 N.am      17 UNK        -0.5000 
     95 CA         -4.5173  -20.8261  -51.2542 C.3       17 UNK         0.1400 
     96 CB         -4.6779  -19.9720  -49.9884 C.3       17 UNK        -0.1800 
     97 C          -5.7723  -20.6996  -52.1432 C.2       17 UNK         0.5000 
     98 O          -5.8805  -19.7357  -52.8997 O.2       17 UNK        -0.5000 
     99 N          -6.6869  -21.6746  -52.0489 N.am      18 UNK        -0.5000 
    100 CA        -7.8788  -21.7791  -52.8895 C.3       18 UNK         0.1400 
    101 CB        -8.8738  -22.7350  -52.2131 C.3       18 UNK        -0.1800 
    102 C         -7.5732  -22.2515  -54.3264 C.2       18 UNK         0.5000 
    103 O         -8.3581  -21.9598  -55.2298 O.2       18 UNK        -0.5000 
    104 N         -6.4643  -22.9808  -54.5123 N.am      19 UNK        -0.5000 
    105 CA        -6.0403  -23.5499  -55.7928 C.3       19 UNK         0.1400 
    106 CB        -5.6277  -25.0134  -55.5674 C.3       19 UNK        -0.1800 
    107 C         -4.8781  -22.7629  -56.4234 C.2       19 UNK         0.5000 
    108 O         -4.7804  -22.7138  -57.6506 O.2       19 UNK        -0.5000 
    109 N         -4.0099  -22.1844  -55.5831 N.am      20 UNK        -0.5000 
    110 CA        -2.8281  -21.4151  -55.9693 C.3       20 UNK         0.1400 
    111 CB        -2.0440  -21.0543  -54.6977 C.3       20 UNK        -0.1800 
    112 C         -3.1607  -20.1373  -56.7631 C.2       20 UNK         0.5000 
    113 O         -4.1979  -19.5121  -56.5315 O.2       20 UNK        -0.5000 
    114 N         -2.2419  -19.7548  -57.6593 N.am      21 UNK        -0.5000 
    115 CA        -2.3065  -18.5099  -58.4298 C.3       21 UNK         0.1400 
    116 CB        -1.4152  -18.6470  -59.6742 C.3       21 UNK        -0.1800 
    117 C         -1.8922  -17.2749  -57.6043 C.2       21 UNK         0.5000 
    118 O         -2.2894  -16.1611  -57.9479 O.2       21 UNK        -0.5000 
    119 N         -1.1033  -17.4975  -56.5426 N.am      22 UNK        -0.5000 
    120 CA        -0.6160  -16.4923  -55.5786 C.3       22 UNK         0.1400 
    121 C          0.4167  -15.4743  -56.1544 C.2       22 UNK         0.5000 
    122 N          1.0270  -15.7303  -57.3053 N.am      22 UNK        -0.7600 
    123 O          0.6977  -14.4497  -55.5386 O.2       22 UNK        -0.5000 
    124 C124       -1.7612  -15.7950  -54.7883 C.3       23 UNK        -0.0398 
    125 S125       -2.8567  -16.9777  -53.9282 S.3       23 UNK        -0.2404 
    126 C126       -2.2445  -16.8710  -52.2187 C.3       23 UNK        -0.0205 
    127 H127       -3.1996  -17.6545  -48.0686 H         1 UNK         0.0600 
    128 H128       -2.2090  -18.3191  -49.3711 H         1 UNK         0.0600 
    129 H129       -1.6280  -18.3724  -47.7019 H         1 UNK         0.0600 
    130 H130        0.3232  -17.2392  -48.3808 H         1 UNK         0.3000 
    131 H131        0.1950  -14.6442  -49.5945 H         1 UNK         0.0600 
    132 H132        2.2643  -16.6240  -49.1158 H         1 UNK         0.0800 
    133 H133        2.8072  -15.1859  -48.3247 H         1 UNK         0.0800 
    134 H134        3.6440  -16.8848  -51.3790 H         1 UNK         0.0800 
    135 H135        3.0533  -15.9841  -52.7531 H         1 UNK         0.0800 
    136 H136        0.1526  -15.5714  -52.0458 H         1 UNK         0.1150 
    137 H137       -1.5612  -19.4959  -52.0852 H         1 UNK         0.1150 
    138 H138        2.6732  -19.0224  -51.6779 H         1 UNK         0.1150 
    139 H139       -0.1184  -21.4254  -52.3162 H         1 UNK         0.0800 
    140 H140        1.6012  -21.2026  -52.4932 H         1 UNK         0.0800 
    141 H141       -0.6570  -20.1894  -49.2024 H         1 UNK         0.0800 
    142 H142       -1.3817  -21.4692  -50.1516 H         1 UNK         0.0800 
    143 H143       -0.7494  -23.1462  -48.4011 H         1 UNK         0.0600 
    144 H144        0.8756  -21.0860  -47.3342 H         1 UNK         0.3000 
    145 H145        1.4039  -22.5506  -44.1247 H         1 UNK         0.0600 
    146 H146        3.7199  -22.2584  -44.9636 H         1 UNK         0.0600 
    147 H147        2.9289  -23.6130  -45.7562 H         1 UNK         0.0600 
    148 H148        3.1289  -22.0940  -46.6164 H         1 UNK         0.0600 
    149 H149        1.2725  -20.3987  -43.8535 H         1 UNK         0.3000 
    150 H150        2.3968  -17.5284  -45.5026 H         1 UNK         0.0600 
    151 H151        0.2484  -16.6297  -44.5688 H         1 UNK         0.0600 
    152 H152       -0.4126  -18.2590  -44.5029 H         1 UNK         0.0600 
    153 H153       -0.0299  -17.5249  -46.0508 H         1 UNK         0.0600 
    154 H154        1.4449  -17.9968  -42.8599 H         1 UNK         0.3000 
    155 H155        4.4782  -19.2199  -41.4244 H         1 UNK         0.0600 
    156 H156        3.9216  -17.3285  -39.8800 H         1 UNK         0.0600 
    157 H157        2.9539  -16.5737  -41.1469 H         1 UNK         0.0600 
    158 H158        4.6891  -16.7629  -41.3543 H         1 UNK         0.0600 
    159 H159        1.7508  -18.6936  -40.5458 H         1 UNK         0.3000 
    160 H160        0.5952  -22.0188  -40.9589 H         1 UNK         0.0600 
    161 H161        1.3673  -20.5829  -38.3608 H         1 UNK         0.0600 
    162 H162        1.8819  -22.1995  -38.8281 H         1 UNK         0.0600 
    163 H163        0.1831  -21.8812  -38.5160 H         1 UNK         0.0600 
    164 H164       -0.4698  -19.6431  -39.7123 H         1 UNK         0.3000 
    165 H165       -1.9624  -18.2883  -42.6218 H         1 UNK         0.0600 
    166 H166       -3.2748  -19.7425  -40.2654 H         1 UNK         0.0600 
    167 H167       -4.0475  -18.5702  -41.3337 H         1 UNK         0.0600 
    168 H168       -3.5356  -20.1279  -41.9618 H         1 UNK         0.0600 
    169 H169       -2.2079  -17.4928  -39.9390 H         1 UNK         0.3000 
    170 H170       -1.3681  -15.4774  -39.4096 H         1 UNK         0.0600 
    171 H171        0.3620  -16.8918  -38.2281 H         1 UNK         0.0600 
    172 H172        1.6328  -16.1292  -39.1779 H         1 UNK         0.0600 
    173 H173        0.6928  -15.1783  -38.0337 H         1 UNK         0.0600 
    174 H174        0.3986  -14.6877  -41.5358 H         1 UNK         0.3000 
    175 H175       -0.7959  -11.8063  -41.7118 H         1 UNK         0.0600 
    176 H176        1.0220  -10.1059  -41.3970 H         1 UNK         0.0600 
    177 H177        0.1174  -10.4145  -39.9252 H         1 UNK         0.0600 
    178 H178        1.7199  -11.1038  -40.1210 H         1 UNK         0.0600 
    179 H179        0.4524  -12.6112  -43.3256 H         1 UNK         0.3000 
    180 H180        3.7561  -12.8730  -43.9798 H         1 UNK         0.0600 
    181 H181        2.2080  -15.4819  -43.5985 H         1 UNK         0.0600 
    182 H182        3.4852  -15.2462  -44.7938 H         1 UNK         0.0600 
    183 H183        3.8583  -15.1565  -43.0810 H         1 UNK         0.0600 
    184 H184        1.2887  -13.8567  -45.2539 H         1 UNK         0.3000 
    185 H185       -0.1709  -11.9332  -46.2818 H         1 UNK         0.0600 
    186 H186        0.0724  -10.4737  -48.2683 H         1 UNK         0.0600 
    187 H187        0.7377   -9.6933  -46.8453 H         1 UNK         0.0600 
    188 H188        1.8195  -10.4081  -48.0361 H         1 UNK         0.0600 
    189 H189        1.2622  -12.7137  -48.6442 H         1 UNK         0.3000 
    190 H190       -1.5568  -20.4871  -46.2710 H         1 UNK         0.3000 
    191 H191       -4.4338  -20.5887  -46.6401 H         1 UNK         0.0600 
    192 H192       -4.4075  -19.1860  -44.5334 H         1 UNK         0.0600 
    193 H193       -2.6620  -19.3971  -44.4533 H         1 UNK         0.0600 
    194 H194       -3.3861  -18.5307  -45.8021 H         1 UNK         0.0600 
    195 H195       -2.1146  -21.9082  -44.2194 H         1 UNK         0.3000 
    196 H196       -4.0723  -23.2703  -42.6374 H         1 UNK         0.0600 
    197 H197       -2.0299  -24.3883  -41.6538 H         1 UNK         0.0600 
    198 H198       -1.9150  -22.6388  -41.6796 H         1 UNK         0.0600 
    199 H199       -1.0348  -23.5963  -42.8707 H         1 UNK         0.0600 
    200 H200       -1.9694  -24.3097  -45.3374 H         1 UNK         0.3000 
    201 H201       -2.8169  -27.0627  -45.3343 H         1 UNK         0.0600 
    202 H202       -0.6290  -26.2857  -46.2466 H         1 UNK         0.0600 
    203 H203       -1.4591  -25.3647  -47.4989 H         1 UNK         0.0600 
    204 H204       -1.5540  -27.1214  -47.4842 H         1 UNK         0.0600 
    205 H205       -4.3489  -24.2132  -46.4540 H         1 UNK         0.3000 
    206 H206       -6.1185  -23.6662  -47.6210 H         1 UNK         0.0600 
    207 H207       -7.3032  -25.5108  -46.3957 H         1 UNK         0.0600 
    208 H208       -7.9805  -25.2144  -47.9881 H         1 UNK         0.0600 
    209 H209       -6.9494  -26.6117  -47.7277 H         1 UNK         0.0600 
    210 H210       -3.5716  -24.5572  -48.9093 H         1 UNK         0.3000 
    211 H211       -4.1738  -25.3648  -51.6350 H         1 UNK         0.0600 
    212 H212       -1.6476  -24.1341  -50.3991 H         1 UNK         0.0600 
    213 H213       -1.7604  -24.8707  -51.9909 H         1 UNK         0.0600 
    214 H214       -1.9738  -25.8600  -50.5545 H         1 UNK         0.0600 
    215 H215       -4.1015  -22.3640  -49.8546 H         1 UNK         0.3000 
    216 H216       -3.6736  -20.4410  -51.8273 H         1 UNK         0.0600 
    217 H217       -4.8416  -18.9232  -50.2398 H         1 UNK         0.0600 
    218 H218       -3.7886  -20.0228  -49.3634 H         1 UNK         0.0600 
    219 H219       -5.5242  -20.3037  -49.3856 H         1 UNK         0.0600 
    220 H220       -6.5231  -22.4308  -51.3990 H         1 UNK         0.3000 
    221 H221       -8.3448  -20.7938  -52.9570 H         1 UNK         0.0600 
    222 H222       -8.4565  -23.7369  -52.1020 H         1 UNK         0.0600 
    223 H223       -9.1537  -22.3769  -51.2222 H         1 UNK         0.0600 
    224 H224       -9.7908  -22.8234  -52.7971 H         1 UNK         0.0600 
    225 H225       -5.8394  -23.1310  -53.7289 H         1 UNK         0.3000 
    226 H226       -6.8680  -23.5419  -56.5050 H         1 UNK         0.0600 
    227 H227       -5.3147  -25.4800  -56.5023 H         1 UNK         0.0600 
    228 H228       -4.7972  -25.0951  -54.8647 H         1 UNK         0.0600 
    229 H229       -6.4580  -25.5997  -55.1736 H         1 UNK         0.0600 
    230 H230       -4.1351  -22.3338  -54.5871 H         1 UNK         0.3000 
    231 H231       -2.2058  -22.0613  -56.5916 H         1 UNK         0.0600 
    232 H232       -1.1236  -20.5198  -54.9356 H         1 UNK         0.0600 
    233 H233       -1.7657  -21.9471  -54.1377 H         1 UNK         0.0600 
    234 H234       -2.6337  -20.4144  -54.0407 H         1 UNK         0.0600 
    235 H235       -1.4245  -20.3305  -57.8034 H         1 UNK         0.3000 
    236 H236       -3.3348  -18.3548  -58.7637 H         1 UNK         0.0600 
    237 H237       -0.3712  -18.8155  -59.4074 H         1 UNK         0.0600 
    238 H238       -1.7400  -19.4772  -60.3018 H         1 UNK         0.0600 
    239 H239       -1.4565  -17.7445  -60.2855 H         1 UNK         0.0600 
    240 H240       -0.8298  -18.4490  -56.3516 H         1 UNK         0.3000 
    241 H241       -0.0366  -17.0645  -54.8541 H         1 UNK         0.0600 
    242 H242        1.7005  -15.0730  -57.6665 H         1 UNK         0.3800 
    243 H243        0.8173  -16.5689  -57.8221 H         1 UNK         0.3800 
    244 H244       -2.3724  -15.1897  -55.4584 H         1 UNK         0.0800 
    245 H245       -1.3555  -15.0992  -54.0528 H         1 UNK         0.0800 
    246 H246       -2.2570  -15.8322  -51.8848 H         1 UNK         0.0800 
    247 H247       -2.9387  -17.4048  -51.5685 H         1 UNK         0.0800 
@<TRIPOS>BOND
     1    1    2 1    
     2    1  127 1    
     3    1  128 1    
     4    1  129 1    
     5    2    3 2    
     6    2    4 am   BACKBONE|DICT|INTERRES
     7    4    5 1    
     8    4  130 1    
     9    5    6 1    
    10    5   65 1    
    11    5  131 1    
    12    6    7 1    
    13    6  132 1    
    14    6  133 1    
    15    7    8 1    
    16    8    9 1    
    17    8  134 1    
    18    8  135 1    
    19    9   10 ar   
    20    9   14 ar   
    21   10   11 ar   
    22   10  136 1    
    23   11   12 ar   
    24   11  126 1    
    25   12   13 ar   
    26   12  137 1    
    27   13   14 ar   
    28   13   15 1    
    29   14  138 1    
    30   15   16 1    
    31   15  139 1    
    32   15  140 1    
    33   16   17 1    
    34   17   18 1    
    35   17  141 1    
    36   17  142 1    
    37   18   19 1    
    38   18   67 1    
    39   18  143 1    
    40   19   20 am   BACKBONE|DICT|INTERRES
    41   19  144 1    
    42   20   21 2    
    43   20   22 1    
    44   22   23 1    
    45   22   24 1    
    46   22  145 1    
    47   23  146 1    
    48   23  147 1    
    49   23  148 1    
    50   24   25 am   BACKBONE|DICT|INTERRES
    51   24  149 1    
    52   25   26 2    
    53   25   27 1    
    54   27   28 1    
    55   27   29 1    
    56   27  150 1    
    57   28  151 1    
    58   28  152 1    
    59   28  153 1    
    60   29   30 am   BACKBONE|DICT|INTERRES
    61   29  154 1    
    62   30   31 2    
    63   30   32 1    
    64   32   33 1    
    65   32   34 1    
    66   32  155 1    
    67   33  156 1    
    68   33  157 1    
    69   33  158 1    
    70   34   35 am   BACKBONE|DICT|INTERRES
    71   34  159 1    
    72   35   36 2    
    73   35   37 1    
    74   37   38 1    
    75   37   39 1    
    76   37  160 1    
    77   38  161 1    
    78   38  162 1    
    79   38  163 1    
    80   39   40 am   BACKBONE|DICT|INTERRES
    81   39  164 1    
    82   40   41 2    
    83   40   42 1    
    84   42   43 1    
    85   42   44 1    
    86   42  165 1    
    87   43  166 1    
    88   43  167 1    
    89   43  168 1    
    90   44   45 am   BACKBONE|DICT|INTERRES
    91   44  169 1    
    92   45   46 2    
    93   45   47 1    
    94   47   48 1    
    95   47   49 1    
    96   47  170 1    
    97   48  171 1    
    98   48  172 1    
    99   48  173 1    
   100   49   50 am   BACKBONE|DICT|INTERRES
   101   49  174 1    
   102   50   51 2    
   103   50   52 1    
   104   52   53 1    
   105   52   54 1    
   106   52  175 1    
   107   53  176 1    
   108   53  177 1    
   109   53  178 1    
   110   54   55 am   BACKBONE|DICT|INTERRES
   111   54  179 1    
   112   55   56 2    
   113   55   57 1    
   114   57   58 1    
   115   57   59 1    
   116   57  180 1    
   117   58  181 1    
   118   58  182 1    
   119   58  183 1    
   120   59   60 am   BACKBONE|DICT|INTERRES
   121   59  184 1    
   122   60   61 2    
   123   60   62 1    
   124   62   63 1    
   125   62   64 1    
   126   62  185 1    
   127   63  186 1    
   128   63  187 1    
   129   63  188 1    
   130   64   65 am   BACKBONE|DICT|INTERRES
   131   64  189 1    
   132   65   66 2    
   133   67   68 2    
   134   67   69 am   BACKBONE|DICT|INTERRES
   135   69   70 1    
   136   69  190 1    
   137   70   71 1    
   138   70   72 1    
   139   70  191 1    
   140   71  192 1    
   141   71  193 1    
   142   71  194 1    
   143   72   73 2    
   144   72   74 am   BACKBONE|DICT|INTERRES
   145   74   75 1    
   146   74  195 1    
   147   75   76 1    
   148   75   77 1    
   149   75  196 1    
   150   76  197 1    
   151   76  198 1    
   152   76  199 1    
   153   77   78 2    
   154   77   79 am   BACKBONE|DICT|INTERRES
   155   79   80 1    
   156   79  200 1    
   157   80   81 1    
   158   80   82 1    
   159   80  201 1    
   160   81  202 1    
   161   81  203 1    
   162   81  204 1    
   163   82   83 2    
   164   82   84 am   BACKBONE|DICT|INTERRES
   165   84   85 1    
   166   84  205 1    
   167   85   86 1    
   168   85   87 1    
   169   85  206 1    
   170   86  207 1    
   171   86  208 1    
   172   86  209 1    
   173   87   88 2    
   174   87   89 am   BACKBONE|DICT|INTERRES
   175   89   90 1    
   176   89  210 1    
   177   90   91 1    
   178   90   92 1    
   179   90  211 1    
   180   91  212 1    
   181   91  213 1    
   182   91  214 1    
   183   92   93 2    
   184   92   94 am   BACKBONE|DICT|INTERRES
   185   94   95 1    
   186   94  215 1    
   187   95   96 1    
   188   95   97 1    
   189   95  216 1    
   190   96  217 1    
   191   96  218 1    
   192   96  219 1    
   193   97   98 2    
   194   97   99 am   BACKBONE|DICT|INTERRES
   195   99  100 1    
   196   99  220 1    
   197  100  101 1    
   198  100  102 1    
   199  100  221 1    
   200  101  222 1    
   201  101  223 1    
   202  101  224 1    
   203  102  103 2    
   204  102  104 am   BACKBONE|DICT|INTERRES
   205  104  105 1    
   206  104  225 1    
   207  105  106 1    
   208  105  107 1    
   209  105  226 1    
   210  106  227 1    
   211  106  228 1    
   212  106  229 1    
   213  107  108 2    
   214  107  109 am   BACKBONE|DICT|INTERRES
   215  109  110 1    
   216  109  230 1    
   217  110  111 1    
   218  110  112 1    
   219  110  231 1    
   220  111  232 1    
   221  111  233 1    
   222  111  234 1    
   223  112  113 2    
   224  112  114 am   BACKBONE|DICT|INTERRES
   225  114  115 1    
   226  114  235 1    
   227  115  116 1    
   228  115  117 1    
   229  115  236 1    
   230  116  237 1    
   231  116  238 1    
   232  116  239 1    
   233  117  118 2    
   234  117  119 am   BACKBONE|DICT|INTERRES
   235  119  120 1    
   236  119  240 1    
   237  120  121 1    
   238  120  124 1    
   239  120  241 1    
   240  121  122 am   BACKBONE|DICT|INTERRES
   241  121  123 2    
   242  122  242 1    
   243  122  243 1    
   244  124  125 1    
   245  124  244 1    
   246  124  245 1    
   247  125  126 1    
   248  126  246 1    
   249  126  247 1    
@<TRIPOS>SUBSTRUCTURE
     1 UNK         1 GROUP             0       ****    0 ROOT    
