@<TRIPOS>MOLECULE
3R540
247   249    1
SMALL
USER_CHARGES


@<TRIPOS>ATOM
      1 CA         -6.9959  -16.5552  -45.7640 C.3       0 UNK        -0.1800 
      2 C          -6.2545  -15.2340  -45.8881 C.2       0 UNK         0.5000 
      3 O          -6.8403  -14.1799  -45.6428 O.2       0 UNK        -0.5000 
      4 N          -4.9669  -15.2846  -46.2451 N.am      1 UNK        -0.5000 
      5 CA         -4.0811  -14.1275  -46.3969 C.3       1 UNK         0.1400 
      6 C6         -3.2470  -14.1852  -47.7055 C.3       23 UNK        -0.0398 
      7 S7         -4.2249  -14.4496  -49.2279 S.3       23 UNK        -0.2404 
      8 C8         -3.9641  -16.2265  -49.5550 C.3       23 UNK        -0.0205 
      9 C9         -2.6338  -16.5208  -50.2363 C.ar      23 UNK        -0.0193 
     10 C10        -2.5584  -16.6368  -51.6266 C.ar      23 UNK        -0.1150 
     11 C11        -1.3430  -16.9379  -52.2502 C.ar      23 UNK        -0.0193 
     12 C12        -0.1951  -17.1236  -51.4711 C.ar      23 UNK        -0.1150 
     13 C13        -0.2542  -17.0031  -50.0782 C.ar      23 UNK        -0.0193 
     14 C14        -1.4788  -16.7096  -49.4758 C.ar      23 UNK        -0.1150 
     15 C15         1.0076  -17.1323  -49.2297 C.3       23 UNK        -0.0205 
     16 S16         1.0402  -18.6351  -48.1936 S.3       23 UNK        -0.2404 
     17 C17         0.0206  -18.1557  -46.7539 C.3       23 UNK        -0.0398 
     18 CA         -1.2939  -18.9672  -46.6984 C.3       11 UNK         0.1400 
     19 N          -1.0286  -20.3692  -46.3696 N.am      11 UNK        -0.5000 
     20 C          -1.9225  -21.3640  -46.3866 C.2       10 UNK         0.5000 
     21 O          -3.1030  -21.2131  -46.6992 O.2       10 UNK        -0.5000 
     22 CA         -1.4204  -22.7408  -45.9166 C.3       10 UNK         0.1400 
     23 CB         -0.8550  -23.5319  -47.1054 C.3       10 UNK        -0.1800 
     24 N          -0.3986  -22.6760  -44.8657 N.am      10 UNK        -0.5000 
     25 C          -0.4942  -22.0427  -43.6892 C.2       9 UNK         0.5000 
     26 O          -1.4710  -21.3694  -43.3602 O.2       9 UNK        -0.5000 
     27 CA          0.7063  -22.1379  -42.7269 C.3       9 UNK         0.1400 
     28 CB          0.5917  -23.3815  -41.8265 C.3       9 UNK        -0.1800 
     29 N           2.0333  -22.0585  -43.3552 N.am      9 UNK        -0.5000 
     30 C           2.6388  -22.9206  -44.1893 C.2       8 UNK         0.5000 
     31 O           2.0985  -23.9286  -44.6457 O.2       8 UNK        -0.5000 
     32 CA          4.0945  -22.6039  -44.5948 C.3       8 UNK         0.1400 
     33 CB          4.1211  -21.9038  -45.9627 C.3       8 UNK        -0.1800 
     34 N           4.8046  -21.7702  -43.6219 N.am      8 UNK        -0.5000 
     35 C           5.0920  -22.1256  -42.3613 C.2       7 UNK         0.5000 
     36 O           4.9139  -23.2615  -41.9197 O.2       7 UNK        -0.5000 
     37 CA          5.6432  -21.0314  -41.4202 C.3       7 UNK         0.1400 
     38 CB          7.1353  -21.2704  -41.1395 C.3       7 UNK        -0.1800 
     39 N           5.4697  -19.6441  -41.8745 N.am      7 UNK        -0.5000 
     40 C           4.3150  -19.0329  -42.1751 C.2       6 UNK         0.5000 
     41 O           3.2215  -19.6067  -42.1878 O.2       6 UNK        -0.5000 
     42 CA          4.4013  -17.5420  -42.5503 C.3       6 UNK         0.1400 
     43 CB          5.6149  -17.2125  -43.4444 C.3       6 UNK        -0.1800 
     44 N           3.1731  -17.1570  -43.2363 N.am      6 UNK        -0.5000 
     45 C           2.6173  -15.9428  -43.2310 C.2       5 UNK         0.5000 
     46 O           3.0746  -14.9769  -42.6144 O.2       5 UNK        -0.5000 
     47 CA          1.3182  -15.8136  -44.0476 C.3       5 UNK         0.1400 
     48 CB          0.1323  -16.4602  -43.3146 C.3       5 UNK        -0.1800 
     49 N           0.9759  -14.4306  -44.3666 N.am      5 UNK        -0.5000 
     50 C           1.6196  -13.6621  -45.2550 C.2       4 UNK         0.5000 
     51 O           2.5982  -14.0446  -45.8985 O.2       4 UNK        -0.5000 
     52 CA          1.0696  -12.2423  -45.4971 C.3       4 UNK         0.1400 
     53 CB          0.5837  -12.0994  -46.9498 C.3       4 UNK        -0.1800 
     54 N          -0.0487  -11.9196  -44.6081 N.am      4 UNK        -0.5000 
     55 C          -0.0008  -11.0704  -43.5729 C.2       3 UNK         0.5000 
     56 O           1.0115  -10.4501  -43.2454 O.2       3 UNK        -0.5000 
     57 CA         -1.3008  -10.8648  -42.7651 C.3       3 UNK         0.1400 
     58 CB         -2.0073   -9.5749  -43.2101 C.3       3 UNK        -0.1800 
     59 N          -2.2450  -11.9795  -42.8733 N.am      3 UNK        -0.5000 
     60 C          -2.0626  -13.1887  -42.3266 C.2       2 UNK         0.5000 
     61 O          -1.0958  -13.4775  -41.6224 O.2       2 UNK        -0.5000 
     62 CA         -3.1063  -14.2749  -42.6577 C.3       2 UNK         0.1400 
     63 CB         -4.1681  -14.3651  -41.5525 C.3       2 UNK        -0.1800 
     64 N          -3.7783  -14.1266  -43.9549 N.am      2 UNK        -0.5000 
     65 C          -3.1734  -14.0561  -45.1505 C.2       1 UNK         0.5000 
     66 O          -1.9517  -13.9758  -45.2792 O.2       1 UNK        -0.5000 
     67 C          -2.3325  -18.3041  -45.7688 C.2       11 UNK         0.5000 
     68 O          -3.0481  -17.4109  -46.2211 O.2       11 UNK        -0.5000 
     69 N          -2.4412  -18.7662  -44.5145 N.am      12 UNK        -0.5000 
     70 CA         -3.4592  -18.3029  -43.5691 C.3       12 UNK         0.1400 
     71 CB         -2.9672  -18.5375  -42.1330 C.3       12 UNK        -0.1800 
     72 C          -4.8316  -18.9685  -43.7955 C.2       12 UNK         0.5000 
     73 O          -5.8325  -18.4440  -43.3082 O.2       12 UNK        -0.5000 
     74 N          -4.8640  -20.0930  -44.5247 N.am      13 UNK        -0.5000 
     75 CA         -6.0853  -20.8020  -44.9097 C.3       13 UNK         0.1400 
     76 CB         -5.8240  -22.3166  -44.8649 C.3       13 UNK        -0.1800 
     77 C          -6.5783  -20.3887  -46.3088 C.2       13 UNK         0.5000 
     78 O          -7.7850  -20.4290  -46.5489 O.2       13 UNK        -0.5000 
     79 N          -5.6428  -20.0118  -47.1968 N.am      14 UNK        -0.5000 
     80 CA         -5.8356  -19.7136  -48.6220 C.3       14 UNK         0.1400 
     81 CB         -6.7095  -18.4586  -48.8276 C.3       14 UNK        -0.1800 
     82 C          -6.3517  -20.9470  -49.3907 C.2       14 UNK         0.5000 
     83 O          -7.3458  -20.8670  -50.1159 O.2       14 UNK        -0.5000 
     84 N          -5.6766  -22.0809  -49.1787 N.am      15 UNK        -0.5000 
     85 CA         -5.9907  -23.3751  -49.7687 C.3       15 UNK         0.1400 
     86 CB         -6.9754  -24.1190  -48.8482 C.3       15 UNK        -0.1800 
     87 C          -4.6933  -24.1720  -49.9599 C.2       15 UNK         0.5000 
     88 O          -3.6430  -23.7656  -49.4544 O.2       15 UNK        -0.5000 
     89 N          -4.7996  -25.3033  -50.6717 N.am      16 UNK        -0.5000 
     90 CA         -3.7267  -26.2540  -50.9798 C.3       16 UNK         0.1400 
     91 CB         -3.2765  -26.9957  -49.7001 C.3       16 UNK        -0.1800 
     92 C          -2.5802  -25.5714  -51.7506 C.2       16 UNK         0.5000 
     93 O          -2.7818  -25.1857  -52.9038 O.2       16 UNK        -0.5000 
     94 N          -1.4183  -25.4035  -51.1032 N.am      17 UNK        -0.5000 
     95 CA         -0.2614  -24.6808  -51.6320 C.3       17 UNK         0.1400 
     96 CB          0.9022  -24.7705  -50.6340 C.3       17 UNK        -0.1800 
     97 C          -0.5859  -23.2137  -51.9618 C.2       17 UNK         0.5000 
     98 O          -0.2233  -22.7423  -53.0392 O.2       17 UNK        -0.5000 
     99 N          -1.3543  -22.5506  -51.0863 N.am      18 UNK        -0.5000 
    100 CA        -1.8549  -21.1842  -51.2609 C.3       18 UNK         0.1400 
    101 CB        -2.0931  -20.5635  -49.8819 C.3       18 UNK        -0.1800 
    102 C         -3.1086  -21.1375  -52.1585 C.2       18 UNK         0.5000 
    103 O         -4.0877  -20.4586  -51.8466 O.2       18 UNK        -0.5000 
    104 N         -3.0310  -21.8690  -53.2693 N.am      19 UNK        -0.5000 
    105 CA        -3.9838  -21.9315  -54.3633 C.3       19 UNK         0.1400 
    106 CB        -5.2267  -22.7533  -53.9745 C.3       19 UNK        -0.1800 
    107 C         -3.2541  -22.5248  -55.5747 C.2       19 UNK         0.5000 
    108 O         -3.2811  -21.9302  -56.6517 O.2       19 UNK        -0.5000 
    109 N         -2.5699  -23.6601  -55.3630 N.am      20 UNK        -0.5000 
    110 CA        -1.7950  -24.3700  -56.3812 C.3       20 UNK         0.1400 
    111 CB        -1.3980  -25.7537  -55.8446 C.3       20 UNK        -0.1800 
    112 C         -0.5494  -23.6003  -56.8579 C.2       20 UNK         0.5000 
    113 O         -0.2939  -23.5536  -58.0619 O.2       20 UNK        -0.5000 
    114 N          0.2005  -23.0036  -55.9195 N.am      21 UNK        -0.5000 
    115 CA         1.4291  -22.2561  -56.2101 C.3       21 UNK         0.1400 
    116 CB         2.3155  -22.2304  -54.9546 C.3       21 UNK        -0.1800 
    117 C          1.1621  -20.8226  -56.7080 C.2       21 UNK         0.5000 
    118 O          2.0791  -20.1831  -57.2251 O.2       21 UNK        -0.5000 
    119 N         -0.0738  -20.3394  -56.5357 N.am      22 UNK        -0.5000 
    120 CA        -0.5158  -18.9857  -56.9057 C.3       22 UNK         0.1400 
    121 C         -0.7310  -18.7692  -58.4331 C.2       22 UNK         0.5000 
    122 N         -0.7172  -19.8046  -59.2645 N.am      22 UNK        -0.7600 
    123 O         -0.9067  -17.6365  -58.8735 O.2       22 UNK        -0.5000 
    124 C124       -1.7752  -18.5562  -56.1105 C.3       23 UNK        -0.0398 
    125 S125       -1.5910  -18.7540  -54.3048 S.3       23 UNK        -0.2404 
    126 C126       -1.2759  -17.0487  -53.7657 C.3       23 UNK        -0.0205 
    127 H127       -6.3301  -17.4022  -45.9239 H         1 UNK         0.0600 
    128 H128       -7.8004  -16.6078  -46.4972 H         1 UNK         0.0600 
    129 H129       -7.4322  -16.6509  -44.7699 H         1 UNK         0.0600 
    130 H130       -4.4990  -16.1809  -46.3551 H         1 UNK         0.3000 
    131 H131       -4.6632  -13.2044  -46.4214 H         1 UNK         0.0600 
    132 H132       -2.4876  -14.9560  -47.6255 H         1 UNK         0.0800 
    133 H133       -2.6990  -13.2502  -47.8319 H         1 UNK         0.0800 
    134 H134       -4.0374  -16.7885  -48.6240 H         1 UNK         0.0800 
    135 H135       -4.7798  -16.5820  -50.1858 H         1 UNK         0.0800 
    136 H136       -3.4480  -16.4989  -52.2250 H         1 UNK         0.1150 
    137 H137        0.7459  -17.3489  -51.9531 H         1 UNK         0.1150 
    138 H138       -1.5344  -16.6320  -48.4057 H         1 UNK         0.1150 
    139 H139        1.8863  -17.1522  -49.8759 H         1 UNK         0.0800 
    140 H140        1.1218  -16.2461  -48.6036 H         1 UNK         0.0800 
    141 H141       -0.1616  -17.0804  -46.7735 H         1 UNK         0.0800 
    142 H142        0.6057  -18.3361  -45.8516 H         1 UNK         0.0800 
    143 H143       -1.7483  -18.9481  -47.6883 H         1 UNK         0.0600 
    144 H144       -0.0808  -20.5949  -46.1073 H         1 UNK         0.3000 
    145 H145       -2.2779  -23.2823  -45.5129 H         1 UNK         0.0600 
    146 H146       -0.5793  -24.5447  -46.8112 H         1 UNK         0.0600 
    147 H147       -1.5892  -23.6162  -47.9053 H         1 UNK         0.0600 
    148 H148        0.0306  -23.0507  -47.5226 H         1 UNK         0.0600 
    149 H149        0.4480  -23.2194  -45.0176 H         1 UNK         0.3000 
    150 H150        0.6461  -21.2628  -42.0776 H         1 UNK         0.0600 
    151 H151       -0.3503  -23.3780  -41.2767 H         1 UNK         0.0600 
    152 H152        1.3969  -23.4104  -41.0922 H         1 UNK         0.0600 
    153 H153        0.6290  -24.3070  -42.4017 H         1 UNK         0.0600 
    154 H154        2.5724  -21.2486  -43.0615 H         1 UNK         0.3000 
    155 H155        4.6272  -23.5531  -44.6805 H         1 UNK         0.0600 
    156 H156        3.6157  -20.9376  -45.9314 H         1 UNK         0.0600 
    157 H157        3.6237  -22.5092  -46.7218 H         1 UNK         0.0600 
    158 H158        5.1439  -21.7376  -46.3014 H         1 UNK         0.0600 
    159 H159        4.9989  -20.8195  -43.8976 H         1 UNK         0.3000 
    160 H160        5.1007  -21.1293  -40.4778 H         1 UNK         0.0600 
    161 H161        7.7370  -21.1501  -42.0413 H         1 UNK         0.0600 
    162 H162        7.3083  -22.2791  -40.7619 H         1 UNK         0.0600 
    163 H163        7.5127  -20.5771  -40.3876 H         1 UNK         0.0600 
    164 H164        6.3160  -19.0949  -41.9162 H         1 UNK         0.3000 
    165 H165        4.4828  -16.9840  -41.6153 H         1 UNK         0.0600 
    166 H166        5.6106  -16.1638  -43.7426 H         1 UNK         0.0600 
    167 H167        6.5574  -17.3865  -42.9248 H         1 UNK         0.0600 
    168 H168        5.6184  -17.8145  -44.3540 H         1 UNK         0.0600 
    169 H169        2.6886  -17.9268  -43.6772 H         1 UNK         0.3000 
    170 H170        1.4718  -16.3365  -44.9922 H         1 UNK         0.0600 
    171 H171       -0.0450  -15.9897  -42.3469 H         1 UNK         0.0600 
    172 H172       -0.7824  -16.3765  -43.9012 H         1 UNK         0.0600 
    173 H173        0.3064  -17.5219  -43.1359 H         1 UNK         0.0600 
    174 H174        0.1963  -14.0300  -43.8667 H         1 UNK         0.3000 
    175 H175        1.8955  -11.5451  -45.3432 H         1 UNK         0.0600 
    176 H176       -0.2137  -12.8076  -47.1780 H         1 UNK         0.0600 
    177 H177        0.2059  -11.0951  -47.1422 H         1 UNK         0.0600 
    178 H178        1.3952  -12.2807  -47.6557 H         1 UNK         0.0600 
    179 H179       -0.9067  -12.4320  -44.7902 H         1 UNK         0.3000 
    180 H180       -1.0203  -10.7551  -41.7154 H         1 UNK         0.0600 
    181 H181       -2.8877   -9.3757  -42.5988 H         1 UNK         0.0600 
    182 H182       -2.3256   -9.6296  -44.2520 H         1 UNK         0.0600 
    183 H183       -1.3453   -8.7133  -43.1141 H         1 UNK         0.0600 
    184 H184       -3.0660  -11.8287  -43.4409 H         1 UNK         0.3000 
    185 H185       -2.5716  -15.2254  -42.6826 H         1 UNK         0.0600 
    186 H186       -4.8354  -15.2121  -41.7150 H         1 UNK         0.0600 
    187 H187       -3.7051  -14.5024  -40.5743 H         1 UNK         0.0600 
    188 H188       -4.7760  -13.4608  -41.5049 H         1 UNK         0.0600 
    189 H189       -4.7873  -14.1767  -43.9436 H         1 UNK         0.3000 
    190 H190       -1.8747  -19.5525  -44.2133 H         1 UNK         0.3000 
    191 H191       -3.5980  -17.2278  -43.7003 H         1 UNK         0.0600 
    192 H192       -3.6739  -18.1299  -41.4090 H         1 UNK         0.0600 
    193 H193       -2.0081  -18.0510  -41.9575 H         1 UNK         0.0600 
    194 H194       -2.8515  -19.5991  -41.9140 H         1 UNK         0.0600 
    195 H195       -3.9983  -20.4537  -44.9038 H         1 UNK         0.3000 
    196 H196       -6.8826  -20.5803  -44.1971 H         1 UNK         0.0600 
    197 H197       -5.0608  -22.6210  -45.5814 H         1 UNK         0.0600 
    198 H198       -5.4973  -22.6308  -43.8736 H         1 UNK         0.0600 
    199 H199       -6.7313  -22.8743  -45.1006 H         1 UNK         0.0600 
    200 H200       -4.6750  -20.1236  -46.9125 H         1 UNK         0.3000 
    201 H201       -4.8478  -19.4909  -49.0279 H         1 UNK         0.0600 
    202 H202       -7.7257  -18.5998  -48.4597 H         1 UNK         0.0600 
    203 H203       -6.7801  -18.2057  -49.8860 H         1 UNK         0.0600 
    204 H204       -6.2854  -17.5948  -48.3200 H         1 UNK         0.0600 
    205 H205       -4.8359  -22.0705  -48.6137 H         1 UNK         0.3000 
    206 H206       -6.4409  -23.2323  -50.7534 H         1 UNK         0.0600 
    207 H207       -7.2547  -25.0878  -49.2633 H         1 UNK         0.0600 
    208 H208       -6.5448  -24.2942  -47.8613 H         1 UNK         0.0600 
    209 H209       -7.8952  -23.5494  -48.7130 H         1 UNK         0.0600 
    210 H210       -5.6999  -25.5345  -51.0670 H         1 UNK         0.3000 
    211 H211       -4.1499  -26.9956  -51.6588 H         1 UNK         0.0600 
    212 H212       -2.5072  -27.7357  -49.9244 H         1 UNK         0.0600 
    213 H213       -4.1126  -27.5317  -49.2510 H         1 UNK         0.0600 
    214 H214       -2.8790  -26.3196  -48.9423 H         1 UNK         0.0600 
    215 H215       -1.3514  -25.7340  -50.1520 H         1 UNK         0.3000 
    216 H216        0.0437  -25.1707  -52.5589 H         1 UNK         0.0600 
    217 H217        0.6463  -24.3229  -49.6732 H         1 UNK         0.0600 
    218 H218        1.7825  -24.2505  -51.0144 H         1 UNK         0.0600 
    219 H219        1.1899  -25.8067  -50.4556 H         1 UNK         0.0600 
    220 H220       -1.7405  -23.0616  -50.3015 H         1 UNK         0.3000 
    221 H221       -1.0861  -20.5880  -51.7574 H         1 UNK         0.0600 
    222 H222       -1.1802  -20.5901  -49.2885 H         1 UNK         0.0600 
    223 H223       -2.8718  -21.0942  -49.3364 H         1 UNK         0.0600 
    224 H224       -2.3976  -19.5205  -49.9702 H         1 UNK         0.0600 
    225 H225       -2.1528  -22.3498  -53.4304 H         1 UNK         0.3000 
    226 H226       -4.2915  -20.9146  -54.6160 H         1 UNK         0.0600 
    227 H227       -4.9639  -23.7636  -53.6608 H         1 UNK         0.0600 
    228 H228       -5.7715  -22.2825  -53.1561 H         1 UNK         0.0600 
    229 H229       -5.9153  -22.8377  -54.8158 H         1 UNK         0.0600 
    230 H230       -2.6414  -24.1194  -54.4572 H         1 UNK         0.3000 
    231 H231       -2.4426  -24.5186  -57.2480 H         1 UNK         0.0600 
    232 H232       -0.7728  -25.6760  -54.9544 H         1 UNK         0.0600 
    233 H233       -0.8390  -26.3185  -56.5918 H         1 UNK         0.0600 
    234 H234       -2.2779  -26.3420  -55.5835 H         1 UNK         0.0600 
    235 H235       -0.0692  -23.0568  -54.9413 H         1 UNK         0.3000 
    236 H236        1.9793  -22.7790  -56.9954 H         1 UNK         0.0600 
    237 H237        2.4827  -23.2346  -54.5646 H         1 UNK         0.0600 
    238 H238        3.2928  -21.8010  -55.1780 H         1 UNK         0.0600 
    239 H239        1.8718  -21.6292  -54.1604 H         1 UNK         0.0600 
    240 H240       -0.7684  -20.9357  -56.1118 H         1 UNK         0.3000 
    241 H241        0.2858  -18.3004  -56.6236 H         1 UNK         0.0600 
    242 H242       -0.8533  -19.6523  -60.2516 H         1 UNK         0.3800 
    243 H243       -0.5784  -20.7402  -58.9147 H         1 UNK         0.3800 
    244 H244       -2.6344  -19.1533  -56.4208 H         1 UNK         0.0800 
    245 H245       -2.0349  -17.5200  -56.3333 H         1 UNK         0.0800 
    246 H246       -2.0097  -16.3783  -54.2157 H         1 UNK         0.0800 
    247 H247       -0.2979  -16.7279  -54.1276 H         1 UNK         0.0800 
@<TRIPOS>BOND
     1    1    2 1    
     2    1  127 1    
     3    1  128 1    
     4    1  129 1    
     5    2    3 2    
     6    2    4 am   BACKBONE|DICT|INTERRES
     7    4    5 1    
     8    4  130 1    
     9    5    6 1    
    10    5   65 1    
    11    5  131 1    
    12    6    7 1    
    13    6  132 1    
    14    6  133 1    
    15    7    8 1    
    16    8    9 1    
    17    8  134 1    
    18    8  135 1    
    19    9   10 ar   
    20    9   14 ar   
    21   10   11 ar   
    22   10  136 1    
    23   11   12 ar   
    24   11  126 1    
    25   12   13 ar   
    26   12  137 1    
    27   13   14 ar   
    28   13   15 1    
    29   14  138 1    
    30   15   16 1    
    31   15  139 1    
    32   15  140 1    
    33   16   17 1    
    34   17   18 1    
    35   17  141 1    
    36   17  142 1    
    37   18   19 1    
    38   18   67 1    
    39   18  143 1    
    40   19   20 am   BACKBONE|DICT|INTERRES
    41   19  144 1    
    42   20   21 2    
    43   20   22 1    
    44   22   23 1    
    45   22   24 1    
    46   22  145 1    
    47   23  146 1    
    48   23  147 1    
    49   23  148 1    
    50   24   25 am   BACKBONE|DICT|INTERRES
    51   24  149 1    
    52   25   26 2    
    53   25   27 1    
    54   27   28 1    
    55   27   29 1    
    56   27  150 1    
    57   28  151 1    
    58   28  152 1    
    59   28  153 1    
    60   29   30 am   BACKBONE|DICT|INTERRES
    61   29  154 1    
    62   30   31 2    
    63   30   32 1    
    64   32   33 1    
    65   32   34 1    
    66   32  155 1    
    67   33  156 1    
    68   33  157 1    
    69   33  158 1    
    70   34   35 am   BACKBONE|DICT|INTERRES
    71   34  159 1    
    72   35   36 2    
    73   35   37 1    
    74   37   38 1    
    75   37   39 1    
    76   37  160 1    
    77   38  161 1    
    78   38  162 1    
    79   38  163 1    
    80   39   40 am   BACKBONE|DICT|INTERRES
    81   39  164 1    
    82   40   41 2    
    83   40   42 1    
    84   42   43 1    
    85   42   44 1    
    86   42  165 1    
    87   43  166 1    
    88   43  167 1    
    89   43  168 1    
    90   44   45 am   BACKBONE|DICT|INTERRES
    91   44  169 1    
    92   45   46 2    
    93   45   47 1    
    94   47   48 1    
    95   47   49 1    
    96   47  170 1    
    97   48  171 1    
    98   48  172 1    
    99   48  173 1    
   100   49   50 am   BACKBONE|DICT|INTERRES
   101   49  174 1    
   102   50   51 2    
   103   50   52 1    
   104   52   53 1    
   105   52   54 1    
   106   52  175 1    
   107   53  176 1    
   108   53  177 1    
   109   53  178 1    
   110   54   55 am   BACKBONE|DICT|INTERRES
   111   54  179 1    
   112   55   56 2    
   113   55   57 1    
   114   57   58 1    
   115   57   59 1    
   116   57  180 1    
   117   58  181 1    
   118   58  182 1    
   119   58  183 1    
   120   59   60 am   BACKBONE|DICT|INTERRES
   121   59  184 1    
   122   60   61 2    
   123   60   62 1    
   124   62   63 1    
   125   62   64 1    
   126   62  185 1    
   127   63  186 1    
   128   63  187 1    
   129   63  188 1    
   130   64   65 am   BACKBONE|DICT|INTERRES
   131   64  189 1    
   132   65   66 2    
   133   67   68 2    
   134   67   69 am   BACKBONE|DICT|INTERRES
   135   69   70 1    
   136   69  190 1    
   137   70   71 1    
   138   70   72 1    
   139   70  191 1    
   140   71  192 1    
   141   71  193 1    
   142   71  194 1    
   143   72   73 2    
   144   72   74 am   BACKBONE|DICT|INTERRES
   145   74   75 1    
   146   74  195 1    
   147   75   76 1    
   148   75   77 1    
   149   75  196 1    
   150   76  197 1    
   151   76  198 1    
   152   76  199 1    
   153   77   78 2    
   154   77   79 am   BACKBONE|DICT|INTERRES
   155   79   80 1    
   156   79  200 1    
   157   80   81 1    
   158   80   82 1    
   159   80  201 1    
   160   81  202 1    
   161   81  203 1    
   162   81  204 1    
   163   82   83 2    
   164   82   84 am   BACKBONE|DICT|INTERRES
   165   84   85 1    
   166   84  205 1    
   167   85   86 1    
   168   85   87 1    
   169   85  206 1    
   170   86  207 1    
   171   86  208 1    
   172   86  209 1    
   173   87   88 2    
   174   87   89 am   BACKBONE|DICT|INTERRES
   175   89   90 1    
   176   89  210 1    
   177   90   91 1    
   178   90   92 1    
   179   90  211 1    
   180   91  212 1    
   181   91  213 1    
   182   91  214 1    
   183   92   93 2    
   184   92   94 am   BACKBONE|DICT|INTERRES
   185   94   95 1    
   186   94  215 1    
   187   95   96 1    
   188   95   97 1    
   189   95  216 1    
   190   96  217 1    
   191   96  218 1    
   192   96  219 1    
   193   97   98 2    
   194   97   99 am   BACKBONE|DICT|INTERRES
   195   99  100 1    
   196   99  220 1    
   197  100  101 1    
   198  100  102 1    
   199  100  221 1    
   200  101  222 1    
   201  101  223 1    
   202  101  224 1    
   203  102  103 2    
   204  102  104 am   BACKBONE|DICT|INTERRES
   205  104  105 1    
   206  104  225 1    
   207  105  106 1    
   208  105  107 1    
   209  105  226 1    
   210  106  227 1    
   211  106  228 1    
   212  106  229 1    
   213  107  108 2    
   214  107  109 am   BACKBONE|DICT|INTERRES
   215  109  110 1    
   216  109  230 1    
   217  110  111 1    
   218  110  112 1    
   219  110  231 1    
   220  111  232 1    
   221  111  233 1    
   222  111  234 1    
   223  112  113 2    
   224  112  114 am   BACKBONE|DICT|INTERRES
   225  114  115 1    
   226  114  235 1    
   227  115  116 1    
   228  115  117 1    
   229  115  236 1    
   230  116  237 1    
   231  116  238 1    
   232  116  239 1    
   233  117  118 2    
   234  117  119 am   BACKBONE|DICT|INTERRES
   235  119  120 1    
   236  119  240 1    
   237  120  121 1    
   238  120  124 1    
   239  120  241 1    
   240  121  122 am   BACKBONE|DICT|INTERRES
   241  121  123 2    
   242  122  242 1    
   243  122  243 1    
   244  124  125 1    
   245  124  244 1    
   246  124  245 1    
   247  125  126 1    
   248  126  246 1    
   249  126  247 1    
@<TRIPOS>SUBSTRUCTURE
     1 UNK         1 GROUP             0       ****    0 ROOT    
