@<TRIPOS>MOLECULE
3R540
247   249    1
SMALL
USER_CHARGES


@<TRIPOS>ATOM
      1 CA          1.8185   -9.2473  -46.1471 C.3       0 UNK        -0.1800 
      2 C           1.0180  -10.4201  -45.6019 C.2       0 UNK         0.5000 
      3 O           1.1148  -10.7263  -44.4141 O.2       0 UNK        -0.5000 
      4 N           0.2108  -11.0635  -46.4570 N.am      1 UNK        -0.5000 
      5 CA         -0.5882  -12.2615  -46.1520 C.3       1 UNK         0.1400 
      6 C6         -1.3088  -12.8204  -47.4051 C.3       23 UNK        -0.0398 
      7 S7         -0.1596  -13.1917  -48.7725 S.3       23 UNK        -0.2404 
      8 C8          0.0495  -14.9897  -48.6069 C.3       23 UNK        -0.0205 
      9 C9         -0.9957  -15.7718  -49.3876 C.ar      23 UNK        -0.0193 
     10 C10        -0.7593  -16.0909  -50.7259 C.ar      23 UNK        -0.1150 
     11 C11        -1.6885  -16.8234  -51.4690 C.ar      23 UNK        -0.0193 
     12 C12        -2.8768  -17.2347  -50.8493 C.ar      23 UNK        -0.1150 
     13 C13        -3.1263  -16.9279  -49.5071 C.ar      23 UNK        -0.0193 
     14 C14        -2.1792  -16.1994  -48.7799 C.ar      23 UNK        -0.1150 
     15 C15        -4.4280  -17.3672  -48.8472 C.3       23 UNK        -0.0205 
     16 S16        -4.5320  -19.1714  -48.6133 S.3       23 UNK        -0.2404 
     17 C17        -3.1561  -19.4648  -47.4577 C.3       23 UNK        -0.0398 
     18 CA         -3.0203  -20.9543  -47.0511 C.3       11 UNK         0.1400 
     19 N          -1.6278  -21.3168  -46.7544 N.am      11 UNK        -0.5000 
     20 C          -1.1769  -22.5572  -46.5112 C.2       10 UNK         0.5000 
     21 O          -1.8924  -23.5547  -46.4991 O.2       10 UNK        -0.5000 
     22 CA          0.3147  -22.7063  -46.1595 C.3       10 UNK         0.1400 
     23 CB          1.1922  -22.6455  -47.4186 C.3       10 UNK        -0.1800 
     24 N           0.7536  -21.7019  -45.1911 N.am      10 UNK        -0.5000 
     25 C           0.2963  -21.6204  -43.9325 C.2       9 UNK         0.5000 
     26 O          -0.4664  -22.4449  -43.4283 O.2       9 UNK        -0.5000 
     27 CA          0.7038  -20.3731  -43.1256 C.3       9 UNK         0.1400 
     28 CB          2.0888  -20.5511  -42.4864 C.3       9 UNK        -0.1800 
     29 N           0.6891  -19.1567  -43.9395 N.am      9 UNK        -0.5000 
     30 C          -0.4053  -18.6480  -44.5238 C.2       8 UNK         0.5000 
     31 O          -1.5365  -19.1097  -44.3814 O.2       8 UNK        -0.5000 
     32 CA         -0.1905  -17.4582  -45.4719 C.3       8 UNK         0.1400 
     33 CB         -0.1109  -16.1467  -44.6742 C.3       8 UNK        -0.1800 
     34 N           1.0040  -17.6383  -46.3049 N.am      8 UNK        -0.5000 
     35 C           1.0937  -18.5425  -47.2942 C.2       7 UNK         0.5000 
     36 O           0.1641  -19.2720  -47.6281 O.2       7 UNK        -0.5000 
     37 CA          2.4532  -18.7092  -47.9978 C.3       7 UNK         0.1400 
     38 CB          2.5656  -17.7884  -49.2201 C.3       7 UNK        -0.1800 
     39 N           3.5854  -18.4743  -47.1050 N.am      7 UNK        -0.5000 
     40 C           3.9252  -19.2784  -46.0881 C.2       6 UNK         0.5000 
     41 O           3.3532  -20.3385  -45.8348 O.2       6 UNK        -0.5000 
     42 CA          5.0459  -18.7651  -45.1630 C.3       6 UNK         0.1400 
     43 CB          6.4271  -19.1309  -45.7260 C.3       6 UNK        -0.1800 
     44 N           4.9692  -17.3142  -44.9502 N.am      6 UNK        -0.5000 
     45 C           3.9442  -16.7076  -44.3387 C.2       5 UNK         0.5000 
     46 O           2.9912  -17.3184  -43.8457 O.2       5 UNK        -0.5000 
     47 CA          3.9396  -15.1730  -44.3357 C.3       5 UNK         0.1400 
     48 CB          3.4564  -14.6331  -45.6983 C.3       5 UNK        -0.1800 
     49 N           3.0491  -14.7381  -43.2656 N.am      5 UNK        -0.5000 
     50 C           2.9193  -13.4974  -42.7910 C.2       4 UNK         0.5000 
     51 O           3.5395  -12.5227  -43.2225 O.2       4 UNK        -0.5000 
     52 CA          1.9722  -13.3312  -41.5958 C.3       4 UNK         0.1400 
     53 CB          2.7641  -13.4881  -40.2806 C.3       4 UNK        -0.1800 
     54 N           1.3327  -12.0210  -41.6776 N.am      4 UNK        -0.5000 
     55 C           0.3723  -11.5570  -40.8696 C.2       3 UNK         0.5000 
     56 O          -0.1210  -12.2017  -39.9433 O.2       3 UNK        -0.5000 
     57 CA         -0.1463  -10.1414  -41.1618 C.3       3 UNK         0.1400 
     58 CB          0.9929   -9.1176  -41.3220 C.3       3 UNK        -0.1800 
     59 N          -0.9608  -10.1663  -42.3720 N.am      3 UNK        -0.5000 
     60 C          -2.2936  -10.3090  -42.3913 C.2       2 UNK         0.5000 
     61 O          -2.9890  -10.3670  -41.3762 O.2       2 UNK        -0.5000 
     62 CA         -2.9802  -10.3909  -43.7702 C.3       2 UNK         0.1400 
     63 CB         -3.5984   -9.0343  -44.1428 C.3       2 UNK        -0.1800 
     64 N          -2.0792  -10.8076  -44.8447 N.am      2 UNK        -0.5000 
     65 C          -1.6092  -12.0515  -45.0124 C.2       1 UNK         0.5000 
     66 O          -1.9367  -13.0066  -44.3082 O.2       1 UNK        -0.5000 
     67 C          -3.9958  -21.3246  -45.9123 C.2       11 UNK         0.5000 
     68 O          -5.1211  -21.7467  -46.1801 O.2       11 UNK        -0.5000 
     69 N          -3.5371  -21.1846  -44.6615 N.am      12 UNK        -0.5000 
     70 CA         -4.2607  -21.5977  -43.4609 C.3       12 UNK         0.1400 
     71 CB         -3.5851  -20.9803  -42.2271 C.3       12 UNK        -0.1800 
     72 C          -4.3651  -23.1292  -43.3186 C.2       12 UNK         0.5000 
     73 O          -5.3624  -23.6144  -42.7827 O.2       12 UNK        -0.5000 
     74 N          -3.3483  -23.8619  -43.7950 N.am      13 UNK        -0.5000 
     75 CA         -3.3140  -25.3244  -43.7946 C.3       13 UNK         0.1400 
     76 CB         -1.8625  -25.8134  -43.9245 C.3       13 UNK        -0.1800 
     77 C          -4.2057  -25.9256  -44.8964 C.2       13 UNK         0.5000 
     78 O          -4.9437  -26.8738  -44.6240 O.2       13 UNK        -0.5000 
     79 N          -4.1437  -25.3576  -46.1063 N.am      14 UNK        -0.5000 
     80 CA         -4.9644  -25.7312  -47.2536 C.3       14 UNK         0.1400 
     81 CB         -4.3569  -26.9509  -47.9674 C.3       14 UNK        -0.1800 
     82 C          -5.0895  -24.5210  -48.1881 C.2       14 UNK         0.5000 
     83 O          -4.0881  -23.8583  -48.4579 O.2       14 UNK        -0.5000 
     84 N          -6.3153  -24.2485  -48.6523 N.am      15 UNK        -0.5000 
     85 CA         -6.6981  -23.0439  -49.3939 C.3       15 UNK         0.1400 
     86 CB         -8.1835  -23.1473  -49.7733 C.3       15 UNK        -0.1800 
     87 C          -5.8475  -22.7551  -50.6471 C.2       15 UNK         0.5000 
     88 O          -5.4542  -23.6832  -51.3580 O.2       15 UNK        -0.5000 
     89 N          -5.6190  -21.4573  -50.8927 N.am      16 UNK        -0.5000 
     90 CA         -4.8393  -20.8821  -51.9918 C.3       16 UNK         0.1400 
     91 CB         -5.5513  -21.1116  -53.3361 C.3       16 UNK        -0.1800 
     92 C          -3.3672  -21.3443  -51.9699 C.2       16 UNK         0.5000 
     93 O          -2.8581  -21.8711  -52.9629 O.2       16 UNK        -0.5000 
     94 N          -2.7373  -21.1328  -50.8039 N.am      17 UNK        -0.5000 
     95 CA         -1.3322  -21.3911  -50.4690 C.3       17 UNK         0.1400 
     96 CB         -0.4078  -20.4010  -51.2022 C.3       17 UNK        -0.1800 
     97 C          -0.9001  -22.8615  -50.6368 C.2       17 UNK         0.5000 
     98 O           0.2299  -23.1231  -51.0510 O.2       17 UNK        -0.5000 
     99 N          -1.8079  -23.7961  -50.3202 N.am      18 UNK        -0.5000 
    100 CA        -1.6866  -25.2618  -50.3377 C.3       18 UNK         0.1400 
    101 CB        -0.6493  -25.7409  -49.3061 C.3       18 UNK        -0.1800 
    102 C         -1.4405  -25.9136  -51.7147 C.2       18 UNK         0.5000 
    103 O         -1.9032  -27.0326  -51.9384 O.2       18 UNK        -0.5000 
    104 N         -0.7440  -25.2157  -52.6179 N.am      19 UNK        -0.5000 
    105 CA        -0.4617  -25.6214  -53.9953 C.3       19 UNK         0.1400 
    106 CB         0.6096  -24.6793  -54.5674 C.3       19 UNK        -0.1800 
    107 C         -1.7065  -25.6257  -54.9052 C.2       19 UNK         0.5000 
    108 O         -1.6719  -26.2672  -55.9561 O.2       19 UNK        -0.5000 
    109 N         -2.7592  -24.9126  -54.4763 N.am      20 UNK        -0.5000 
    110 CA        -4.0128  -24.5994  -55.1641 C.3       20 UNK         0.1400 
    111 CB        -4.7038  -25.8435  -55.7549 C.3       20 UNK        -0.1800 
    112 C         -3.8130  -23.4955  -56.2163 C.2       20 UNK         0.5000 
    113 O         -2.8021  -23.4712  -56.9235 O.2       20 UNK        -0.5000 
    114 N         -4.7773  -22.5656  -56.2651 N.am      21 UNK        -0.5000 
    115 CA        -4.8124  -21.3620  -57.1090 C.3       21 UNK         0.1400 
    116 CB        -5.0594  -21.7570  -58.5797 C.3       21 UNK        -0.1800 
    117 C         -3.5847  -20.4318  -56.9499 C.2       21 UNK         0.5000 
    118 O         -3.2986  -19.6481  -57.8567 O.2       21 UNK        -0.5000 
    119 N         -2.8726  -20.5472  -55.8175 N.am      22 UNK        -0.5000 
    120 CA        -1.5756  -19.9106  -55.5373 C.3       22 UNK         0.1400 
    121 C         -0.4168  -20.3950  -56.4654 C.2       22 UNK         0.5000 
    122 N         -0.5191  -21.5588  -57.0995 N.am      22 UNK        -0.7600 
    123 O          0.6072  -19.7290  -56.5916 O.2       22 UNK        -0.5000 
    124 C124       -1.6766  -18.3637  -55.4108 C.3       23 UNK        -0.0398 
    125 S125       -2.6551  -17.8681  -53.9485 S.3       23 UNK        -0.2404 
    126 C126       -1.3236  -17.1697  -52.9131 C.3       23 UNK        -0.0205 
    127 H127        1.6259   -9.0823  -47.2074 H         1 UNK         0.0600 
    128 H128        1.5621   -8.3359  -45.6072 H         1 UNK         0.0600 
    129 H129        2.8849   -9.4324  -46.0188 H         1 UNK         0.0600 
    130 H130        0.1816  -10.7648  -47.4218 H         1 UNK         0.3000 
    131 H131        0.1166  -13.0176  -45.8020 H         1 UNK         0.0600 
    132 H132       -1.8729  -13.7201  -47.1560 H         1 UNK         0.0800 
    133 H133       -2.0418  -12.1006  -47.7740 H         1 UNK         0.0800 
    134 H134        0.0379  -15.2759  -47.5580 H         1 UNK         0.0800 
    135 H135        1.0419  -15.2411  -48.9769 H         1 UNK         0.0800 
    136 H136        0.1630  -15.7717  -51.1913 H         1 UNK         0.1150 
    137 H137       -3.6119  -17.8037  -51.3968 H         1 UNK         0.1150 
    138 H138       -2.3654  -15.9638  -47.7423 H         1 UNK         0.1150 
    139 H139       -4.5601  -16.8745  -47.8827 H         1 UNK         0.0800 
    140 H140       -5.2651  -17.0459  -49.4684 H         1 UNK         0.0800 
    141 H141       -3.2512  -18.8125  -46.5877 H         1 UNK         0.0800 
    142 H142       -2.2613  -19.1374  -47.9826 H         1 UNK         0.0800 
    143 H143       -3.2970  -21.5583  -47.9139 H         1 UNK         0.0600 
    144 H144       -0.9535  -20.5573  -46.7864 H         1 UNK         0.3000 
    145 H145        0.4523  -23.6888  -45.7030 H         1 UNK         0.0600 
    146 H146        2.2480  -22.7543  -47.1700 H         1 UNK         0.0600 
    147 H147        0.9367  -23.4504  -48.1076 H         1 UNK         0.0600 
    148 H148        1.0708  -21.7076  -47.9582 H         1 UNK         0.0600 
    149 H149        1.4347  -21.0206  -45.5080 H         1 UNK         0.3000 
    150 H150       -0.0262  -20.2443  -42.3237 H         1 UNK         0.0600 
    151 H151        2.1064  -21.4246  -41.8336 H         1 UNK         0.0600 
    152 H152        2.3571  -19.6853  -41.8806 H         1 UNK         0.0600 
    153 H153        2.8675  -20.6871  -43.2365 H         1 UNK         0.0600 
    154 H154        1.5757  -18.6784  -44.0653 H         1 UNK         0.3000 
    155 H155       -1.0563  -17.3960  -46.1340 H         1 UNK         0.0600 
    156 H156        0.6612  -16.1793  -43.9079 H         1 UNK         0.0600 
    157 H157       -1.0559  -15.9488  -44.1666 H         1 UNK         0.0600 
    158 H158        0.0914  -15.2918  -45.3138 H         1 UNK         0.0600 
    159 H159        1.8301  -17.1276  -46.0367 H         1 UNK         0.3000 
    160 H160        2.5069  -19.7404  -48.3528 H         1 UNK         0.0600 
    161 H161        3.4131  -18.0726  -49.8439 H         1 UNK         0.0600 
    162 H162        2.7070  -16.7487  -48.9279 H         1 UNK         0.0600 
    163 H163        1.6717  -17.8454  -49.8436 H         1 UNK         0.0600 
    164 H164        4.1159  -17.6284  -47.2495 H         1 UNK         0.3000 
    165 H165        4.9289  -19.2577  -44.1953 H         1 UNK         0.0600 
    166 H166        7.2223  -18.8363  -45.0410 H         1 UNK         0.0600 
    167 H167        6.5130  -20.2077  -45.8779 H         1 UNK         0.0600 
    168 H168        6.6141  -18.6478  -46.6859 H         1 UNK         0.0600 
    169 H169        5.7217  -16.7578  -45.3303 H         1 UNK         0.3000 
    170 H170        4.9504  -14.8170  -44.1274 H         1 UNK         0.0600 
    171 H171        4.0886  -14.9903  -46.5118 H         1 UNK         0.0600 
    172 H172        2.4340  -14.9402  -45.9169 H         1 UNK         0.0600 
    173 H173        3.4856  -13.5439  -45.7301 H         1 UNK         0.0600 
    174 H174        2.5422  -15.5036  -42.8373 H         1 UNK         0.3000 
    175 H175        1.1955  -14.0968  -41.6503 H         1 UNK         0.0600 
    176 H176        3.4913  -12.6850  -40.1545 H         1 UNK         0.0600 
    177 H177        2.1104  -13.4878  -39.4091 H         1 UNK         0.0600 
    178 H178        3.3116  -14.4313  -40.2634 H         1 UNK         0.0600 
    179 H179        1.6387  -11.4558  -42.4653 H         1 UNK         0.3000 
    180 H180       -0.7489   -9.8249  -40.3077 H         1 UNK         0.0600 
    181 H181        1.6184   -9.3211  -42.1911 H         1 UNK         0.0600 
    182 H182        1.6405   -9.1164  -40.4443 H         1 UNK         0.0600 
    183 H183        0.5953   -8.1087  -41.4324 H         1 UNK         0.0600 
    184 H184       -0.4494  -10.2082  -43.2468 H         1 UNK         0.3000 
    185 H185       -3.7863  -11.1236  -43.6929 H         1 UNK         0.0600 
    186 H186       -4.3029   -8.7026  -43.3789 H         1 UNK         0.0600 
    187 H187       -2.8372   -8.2598  -44.2456 H         1 UNK         0.0600 
    188 H188       -4.1465   -9.0949  -45.0833 H         1 UNK         0.0600 
    189 H189       -1.7504  -10.0842  -45.4678 H         1 UNK         0.3000 
    190 H190       -2.6316  -20.7461  -44.5236 H         1 UNK         0.3000 
    191 H191       -5.2760  -21.2009  -43.5246 H         1 UNK         0.0600 
    192 H192       -2.5609  -21.3345  -42.1086 H         1 UNK         0.0600 
    193 H193       -4.1281  -21.2350  -41.3162 H         1 UNK         0.0600 
    194 H194       -3.5561  -19.8927  -42.2962 H         1 UNK         0.0600 
    195 H195       -2.5658  -23.3888  -44.2284 H         1 UNK         0.3000 
    196 H196       -3.6928  -25.6744  -42.8319 H         1 UNK         0.0600 
    197 H197       -1.4202  -25.5357  -44.8807 H         1 UNK         0.0600 
    198 H198       -1.8118  -26.8999  -43.8466 H         1 UNK         0.0600 
    199 H199       -1.2353  -25.4000  -43.1344 H         1 UNK         0.0600 
    200 H200       -3.4938  -24.5897  -46.2723 H         1 UNK         0.3000 
    201 H201       -5.9655  -25.9923  -46.9036 H         1 UNK         0.0600 
    202 H202       -4.8520  -27.1404  -48.9207 H         1 UNK         0.0600 
    203 H203       -4.4625  -27.8507  -47.3613 H         1 UNK         0.0600 
    204 H204       -3.2944  -26.8112  -48.1632 H         1 UNK         0.0600 
    205 H205       -7.0710  -24.8722  -48.4112 H         1 UNK         0.3000 
    206 H206       -6.5790  -22.2056  -48.7039 H         1 UNK         0.0600 
    207 H207       -8.8124  -23.2513  -48.8889 H         1 UNK         0.0600 
    208 H208       -8.5170  -22.2537  -50.3028 H         1 UNK         0.0600 
    209 H209       -8.3716  -24.0027  -50.4235 H         1 UNK         0.0600 
    210 H210       -5.9874  -20.7823  -50.2364 H         1 UNK         0.3000 
    211 H211       -4.8211  -19.8049  -51.8229 H         1 UNK         0.0600 
    212 H212       -5.5805  -22.1668  -53.6009 H         1 UNK         0.0600 
    213 H213       -5.0480  -20.5699  -54.1350 H         1 UNK         0.0600 
    214 H214       -6.5785  -20.7487  -53.3022 H         1 UNK         0.0600 
    215 H215       -3.2816  -20.7073  -50.0663 H         1 UNK         0.3000 
    216 H216       -1.2286  -21.1795  -49.4067 H         1 UNK         0.0600 
    217 H217       -0.4631  -20.5178  -52.2842 H         1 UNK         0.0600 
    218 H218        0.6330  -20.5364  -50.9059 H         1 UNK         0.0600 
    219 H219       -0.6729  -19.3752  -50.9532 H         1 UNK         0.0600 
    220 H220       -2.7031  -23.4758  -49.9645 H         1 UNK         0.3000 
    221 H221       -2.6629  -25.6236  -50.0179 H         1 UNK         0.0600 
    222 H222        0.3583  -25.4112  -49.5599 H         1 UNK         0.0600 
    223 H223       -0.8868  -25.3695  -48.3094 H         1 UNK         0.0600 
    224 H224       -0.6312  -26.8298  -49.2488 H         1 UNK         0.0600 
    225 H225       -0.3506  -24.3305  -52.3083 H         1 UNK         0.3000 
    226 H226       -0.0596  -26.6363  -53.9773 H         1 UNK         0.0600 
    227 H227        1.5214  -24.7082  -53.9706 H         1 UNK         0.0600 
    228 H228        0.8781  -24.9632  -55.5858 H         1 UNK         0.0600 
    229 H229        0.2597  -23.6461  -54.5967 H         1 UNK         0.0600 
    230 H230       -2.6258  -24.4070  -53.6107 H         1 UNK         0.3000 
    231 H231       -4.6652  -24.2083  -54.3824 H         1 UNK         0.0600 
    232 H232       -4.7807  -26.6420  -55.0169 H         1 UNK         0.0600 
    233 H233       -4.1736  -26.2345  -56.6235 H         1 UNK         0.0600 
    234 H234       -5.7161  -25.6022  -56.0808 H         1 UNK         0.0600 
    235 H235       -5.5712  -22.6745  -55.6502 H         1 UNK         0.3000 
    236 H236       -5.6723  -20.7800  -56.7745 H         1 UNK         0.0600 
    237 H237       -5.2348  -20.8777  -59.2005 H         1 UNK         0.0600 
    238 H238       -4.2077  -22.2913  -59.0018 H         1 UNK         0.0600 
    239 H239       -5.9366  -22.3971  -58.6741 H         1 UNK         0.0600 
    240 H240       -3.1699  -21.2180  -55.1215 H         1 UNK         0.3000 
    241 H241       -1.2804  -20.2872  -54.5582 H         1 UNK         0.0600 
    242 H242       -1.3475  -22.1397  -57.0075 H         1 UNK         0.3800 
    243 H243        0.2380  -21.8658  -57.6887 H         1 UNK         0.3800 
    244 H244       -0.6861  -17.9135  -55.3345 H         1 UNK         0.0800 
    245 H245       -2.1255  -17.9239  -56.3013 H         1 UNK         0.0800 
    246 H246       -0.4938  -17.8771  -52.8891 H         1 UNK         0.0800 
    247 H247       -0.9504  -16.2712  -53.4073 H         1 UNK         0.0800 
@<TRIPOS>BOND
     1    1    2 1    
     2    1  127 1    
     3    1  128 1    
     4    1  129 1    
     5    2    3 2    
     6    2    4 am   BACKBONE|DICT|INTERRES
     7    4    5 1    
     8    4  130 1    
     9    5    6 1    
    10    5   65 1    
    11    5  131 1    
    12    6    7 1    
    13    6  132 1    
    14    6  133 1    
    15    7    8 1    
    16    8    9 1    
    17    8  134 1    
    18    8  135 1    
    19    9   10 ar   
    20    9   14 ar   
    21   10   11 ar   
    22   10  136 1    
    23   11   12 ar   
    24   11  126 1    
    25   12   13 ar   
    26   12  137 1    
    27   13   14 ar   
    28   13   15 1    
    29   14  138 1    
    30   15   16 1    
    31   15  139 1    
    32   15  140 1    
    33   16   17 1    
    34   17   18 1    
    35   17  141 1    
    36   17  142 1    
    37   18   19 1    
    38   18   67 1    
    39   18  143 1    
    40   19   20 am   BACKBONE|DICT|INTERRES
    41   19  144 1    
    42   20   21 2    
    43   20   22 1    
    44   22   23 1    
    45   22   24 1    
    46   22  145 1    
    47   23  146 1    
    48   23  147 1    
    49   23  148 1    
    50   24   25 am   BACKBONE|DICT|INTERRES
    51   24  149 1    
    52   25   26 2    
    53   25   27 1    
    54   27   28 1    
    55   27   29 1    
    56   27  150 1    
    57   28  151 1    
    58   28  152 1    
    59   28  153 1    
    60   29   30 am   BACKBONE|DICT|INTERRES
    61   29  154 1    
    62   30   31 2    
    63   30   32 1    
    64   32   33 1    
    65   32   34 1    
    66   32  155 1    
    67   33  156 1    
    68   33  157 1    
    69   33  158 1    
    70   34   35 am   BACKBONE|DICT|INTERRES
    71   34  159 1    
    72   35   36 2    
    73   35   37 1    
    74   37   38 1    
    75   37   39 1    
    76   37  160 1    
    77   38  161 1    
    78   38  162 1    
    79   38  163 1    
    80   39   40 am   BACKBONE|DICT|INTERRES
    81   39  164 1    
    82   40   41 2    
    83   40   42 1    
    84   42   43 1    
    85   42   44 1    
    86   42  165 1    
    87   43  166 1    
    88   43  167 1    
    89   43  168 1    
    90   44   45 am   BACKBONE|DICT|INTERRES
    91   44  169 1    
    92   45   46 2    
    93   45   47 1    
    94   47   48 1    
    95   47   49 1    
    96   47  170 1    
    97   48  171 1    
    98   48  172 1    
    99   48  173 1    
   100   49   50 am   BACKBONE|DICT|INTERRES
   101   49  174 1    
   102   50   51 2    
   103   50   52 1    
   104   52   53 1    
   105   52   54 1    
   106   52  175 1    
   107   53  176 1    
   108   53  177 1    
   109   53  178 1    
   110   54   55 am   BACKBONE|DICT|INTERRES
   111   54  179 1    
   112   55   56 2    
   113   55   57 1    
   114   57   58 1    
   115   57   59 1    
   116   57  180 1    
   117   58  181 1    
   118   58  182 1    
   119   58  183 1    
   120   59   60 am   BACKBONE|DICT|INTERRES
   121   59  184 1    
   122   60   61 2    
   123   60   62 1    
   124   62   63 1    
   125   62   64 1    
   126   62  185 1    
   127   63  186 1    
   128   63  187 1    
   129   63  188 1    
   130   64   65 am   BACKBONE|DICT|INTERRES
   131   64  189 1    
   132   65   66 2    
   133   67   68 2    
   134   67   69 am   BACKBONE|DICT|INTERRES
   135   69   70 1    
   136   69  190 1    
   137   70   71 1    
   138   70   72 1    
   139   70  191 1    
   140   71  192 1    
   141   71  193 1    
   142   71  194 1    
   143   72   73 2    
   144   72   74 am   BACKBONE|DICT|INTERRES
   145   74   75 1    
   146   74  195 1    
   147   75   76 1    
   148   75   77 1    
   149   75  196 1    
   150   76  197 1    
   151   76  198 1    
   152   76  199 1    
   153   77   78 2    
   154   77   79 am   BACKBONE|DICT|INTERRES
   155   79   80 1    
   156   79  200 1    
   157   80   81 1    
   158   80   82 1    
   159   80  201 1    
   160   81  202 1    
   161   81  203 1    
   162   81  204 1    
   163   82   83 2    
   164   82   84 am   BACKBONE|DICT|INTERRES
   165   84   85 1    
   166   84  205 1    
   167   85   86 1    
   168   85   87 1    
   169   85  206 1    
   170   86  207 1    
   171   86  208 1    
   172   86  209 1    
   173   87   88 2    
   174   87   89 am   BACKBONE|DICT|INTERRES
   175   89   90 1    
   176   89  210 1    
   177   90   91 1    
   178   90   92 1    
   179   90  211 1    
   180   91  212 1    
   181   91  213 1    
   182   91  214 1    
   183   92   93 2    
   184   92   94 am   BACKBONE|DICT|INTERRES
   185   94   95 1    
   186   94  215 1    
   187   95   96 1    
   188   95   97 1    
   189   95  216 1    
   190   96  217 1    
   191   96  218 1    
   192   96  219 1    
   193   97   98 2    
   194   97   99 am   BACKBONE|DICT|INTERRES
   195   99  100 1    
   196   99  220 1    
   197  100  101 1    
   198  100  102 1    
   199  100  221 1    
   200  101  222 1    
   201  101  223 1    
   202  101  224 1    
   203  102  103 2    
   204  102  104 am   BACKBONE|DICT|INTERRES
   205  104  105 1    
   206  104  225 1    
   207  105  106 1    
   208  105  107 1    
   209  105  226 1    
   210  106  227 1    
   211  106  228 1    
   212  106  229 1    
   213  107  108 2    
   214  107  109 am   BACKBONE|DICT|INTERRES
   215  109  110 1    
   216  109  230 1    
   217  110  111 1    
   218  110  112 1    
   219  110  231 1    
   220  111  232 1    
   221  111  233 1    
   222  111  234 1    
   223  112  113 2    
   224  112  114 am   BACKBONE|DICT|INTERRES
   225  114  115 1    
   226  114  235 1    
   227  115  116 1    
   228  115  117 1    
   229  115  236 1    
   230  116  237 1    
   231  116  238 1    
   232  116  239 1    
   233  117  118 2    
   234  117  119 am   BACKBONE|DICT|INTERRES
   235  119  120 1    
   236  119  240 1    
   237  120  121 1    
   238  120  124 1    
   239  120  241 1    
   240  121  122 am   BACKBONE|DICT|INTERRES
   241  121  123 2    
   242  122  242 1    
   243  122  243 1    
   244  124  125 1    
   245  124  244 1    
   246  124  245 1    
   247  125  126 1    
   248  126  246 1    
   249  126  247 1    
@<TRIPOS>SUBSTRUCTURE
     1 UNK         1 GROUP             0       ****    0 ROOT    
