@<TRIPOS>MOLECULE
3R540
247   249    1
SMALL
USER_CHARGES


@<TRIPOS>ATOM
      1 CA          4.8061  -16.3931  -47.6697 C.3       0 UNK        -0.1800 
      2 C           4.8117  -14.8663  -47.5954 C.2       0 UNK         0.5000 
      3 O           5.3249  -14.3215  -46.6205 O.2       0 UNK        -0.5000 
      4 N           4.2615  -14.1230  -48.5648 N.am      1 UNK        -0.5000 
      5 CA          3.6187  -14.5700  -49.8056 C.3       1 UNK         0.1400 
      6 C6          4.5955  -14.5791  -51.0212 C.3       23 UNK        -0.0398 
      7 S7          5.5815  -16.1102  -51.1374 S.3       23 UNK        -0.2404 
      8 C8          4.5862  -17.1056  -52.3014 C.3       23 UNK        -0.0205 
      9 C9          3.2576  -17.5236  -51.6878 C.ar      23 UNK        -0.0193 
     10 C10         2.1092  -16.7559  -51.9003 C.ar      23 UNK        -0.1150 
     11 C11         0.9142  -17.0701  -51.2486 C.ar      23 UNK        -0.0193 
     12 C12         0.8547  -18.2034  -50.4335 C.ar      23 UNK        -0.1150 
     13 C13         1.9825  -19.0109  -50.2527 C.ar      23 UNK        -0.0193 
     14 C14         3.1846  -18.6563  -50.8730 C.ar      23 UNK        -0.1150 
     15 C15         1.9135  -20.2633  -49.3900 C.3       23 UNK        -0.0205 
     16 S16         1.5921  -19.8730  -47.6416 S.3       23 UNK        -0.2404 
     17 C17        -0.1961  -20.2111  -47.5004 C.3       23 UNK        -0.0398 
     18 CA         -0.4681  -21.5037  -46.6955 C.3       11 UNK         0.1400 
     19 N           0.0202  -21.4309  -45.3137 N.am      11 UNK        -0.5000 
     20 C           0.1407  -22.4929  -44.5029 C.2       10 UNK         0.5000 
     21 O          -0.2229  -23.6251  -44.8263 O.2       10 UNK        -0.5000 
     22 CA          0.7392  -22.2504  -43.1018 C.3       10 UNK         0.1400 
     23 CB          1.3310  -23.5300  -42.4762 C.3       10 UNK        -0.1800 
     24 N           1.7123  -21.1562  -43.0609 N.am      10 UNK        -0.5000 
     25 C           2.8665  -21.0460  -43.7390 C.2       9 UNK         0.5000 
     26 O           3.3012  -21.9105  -44.5005 O.2       9 UNK        -0.5000 
     27 CA          3.6766  -19.7521  -43.5196 C.3       9 UNK         0.1400 
     28 CB          4.0487  -19.0721  -44.8479 C.3       9 UNK        -0.1800 
     29 N           2.9360  -18.7954  -42.6940 N.am      9 UNK        -0.5000 
     30 C           3.2863  -18.4124  -41.4609 C.2       8 UNK         0.5000 
     31 O           4.3220  -18.7683  -40.8979 O.2       8 UNK        -0.5000 
     32 CA          2.3071  -17.4870  -40.7178 C.3       8 UNK         0.1400 
     33 CB          2.6391  -16.0138  -41.0013 C.3       8 UNK        -0.1800 
     34 N           0.8946  -17.7329  -41.0245 N.am      8 UNK        -0.5000 
     35 C           0.2124  -18.8322  -40.6707 C.2       7 UNK         0.5000 
     36 O           0.7386  -19.8329  -40.1854 O.2       7 UNK        -0.5000 
     37 CA         -1.3083  -18.8170  -40.8952 C.3       7 UNK         0.1400 
     38 CB         -1.9990  -17.9521  -39.8292 C.3       7 UNK        -0.1800 
     39 N          -1.6443  -18.3000  -42.2179 N.am      7 UNK        -0.5000 
     40 C          -2.0334  -19.0527  -43.2547 C.2       6 UNK         0.5000 
     41 O          -2.1755  -20.2749  -43.2126 O.2       6 UNK        -0.5000 
     42 CA         -2.2445  -18.3225  -44.5952 C.3       6 UNK         0.1400 
     43 CB         -3.6445  -17.6956  -44.6539 C.3       6 UNK        -0.1800 
     44 N          -1.2462  -17.2870  -44.8651 N.am      6 UNK        -0.5000 
     45 C           0.0858  -17.4414  -44.7972 C.2       5 UNK         0.5000 
     46 O           0.6397  -18.5194  -44.5780 O.2       5 UNK        -0.5000 
     47 CA          0.9443  -16.1675  -44.9211 C.3       5 UNK         0.1400 
     48 CB          1.3739  -15.9762  -46.3815 C.3       5 UNK        -0.1800 
     49 N           0.2809  -14.9454  -44.4521 N.am      5 UNK        -0.5000 
     50 C          -0.3340  -14.7734  -43.2696 C.2       4 UNK         0.5000 
     51 O          -0.3307  -15.6115  -42.3671 O.2       4 UNK        -0.5000 
     52 CA         -1.1579  -13.4868  -43.0792 C.3       4 UNK         0.1400 
     53 CB         -0.3669  -12.4690  -42.2448 C.3       4 UNK        -0.1800 
     54 N          -1.5928  -12.8484  -44.3242 N.am      4 UNK        -0.5000 
     55 C          -2.3009  -13.4106  -45.3159 C.2       3 UNK         0.5000 
     56 O          -2.6829  -14.5822  -45.3147 O.2       3 UNK        -0.5000 
     57 CA         -2.5982  -12.5203  -46.5374 C.3       3 UNK         0.1400 
     58 CB         -2.6303  -11.0128  -46.2035 C.3       3 UNK        -0.1800 
     59 N          -1.6878  -12.7522  -47.6627 N.am      3 UNK        -0.5000 
     60 C          -0.3477  -12.7673  -47.6630 C.2       2 UNK         0.5000 
     61 O           0.3597  -12.7605  -46.6517 O.2       2 UNK        -0.5000 
     62 CA          0.3156  -12.7212  -49.0442 C.3       2 UNK         0.1400 
     63 CB          0.4599  -11.2559  -49.5033 C.3       2 UNK        -0.1800 
     64 N           1.6200  -13.3776  -48.9866 N.am      2 UNK        -0.5000 
     65 C           2.3391  -13.7399  -50.0567 C.2       1 UNK         0.5000 
     66 O           2.0048  -13.4568  -51.2077 O.2       1 UNK        -0.5000 
     67 C          -1.9460  -21.9423  -46.8022 C.2       11 UNK         0.5000 
     68 O          -2.3319  -22.4661  -47.8468 O.2       11 UNK        -0.5000 
     69 N          -2.7381  -21.7880  -45.7282 N.am      12 UNK        -0.5000 
     70 CA         -4.1004  -22.3198  -45.6366 C.3       12 UNK         0.1400 
     71 CB         -4.7800  -21.8099  -44.3580 C.3       12 UNK        -0.1800 
     72 C          -4.1288  -23.8583  -45.6824 C.2       12 UNK         0.5000 
     73 O          -4.9490  -24.4310  -46.4015 O.2       12 UNK        -0.5000 
     74 N          -3.1973  -24.4897  -44.9518 N.am      13 UNK        -0.5000 
     75 CA         -3.0145  -25.9413  -44.9032 C.3       13 UNK         0.1400 
     76 CB         -2.1061  -26.3072  -43.7196 C.3       13 UNK        -0.1800 
     77 C          -2.4573  -26.5113  -46.2198 C.2       13 UNK         0.5000 
     78 O          -2.7562  -27.6570  -46.5573 O.2       13 UNK        -0.5000 
     79 N          -1.7199  -25.6882  -46.9784 N.am      14 UNK        -0.5000 
     80 CA         -1.2333  -25.9695  -48.3319 C.3       14 UNK         0.1400 
     81 CB         -0.0099  -25.0798  -48.6177 C.3       14 UNK        -0.1800 
     82 C          -2.3416  -25.8076  -49.3990 C.2       14 UNK         0.5000 
     83 O          -2.1081  -25.1983  -50.4447 O.2       14 UNK        -0.5000 
     84 N          -3.5341  -26.3473  -49.1066 N.am      15 UNK        -0.5000 
     85 CA         -4.7486  -26.3563  -49.9268 C.3       15 UNK         0.1400 
     86 CB         -4.5737  -27.3265  -51.1139 C.3       15 UNK        -0.1800 
     87 C          -5.1930  -24.9470  -50.3688 C.2       15 UNK         0.5000 
     88 O          -5.5015  -24.7467  -51.5436 O.2       15 UNK        -0.5000 
     89 N          -5.1832  -23.9893  -49.4281 N.am      16 UNK        -0.5000 
     90 CA         -5.4649  -22.5629  -49.6389 C.3       16 UNK         0.1400 
     91 CB         -6.9601  -22.3401  -49.9486 C.3       16 UNK        -0.1800 
     92 C          -4.5334  -21.9391  -50.6984 C.2       16 UNK         0.5000 
     93 O          -5.0030  -21.3613  -51.6804 O.2       16 UNK        -0.5000 
     94 N          -3.2219  -22.1102  -50.4868 N.am      17 UNK        -0.5000 
     95 CA         -2.1205  -21.6970  -51.3589 C.3       17 UNK         0.1400 
     96 CB         -2.0213  -20.1593  -51.3886 C.3       17 UNK        -0.1800 
     97 C          -2.2263  -22.3195  -52.7666 C.2       17 UNK         0.5000 
     98 O          -2.1332  -21.6068  -53.7657 O.2       17 UNK        -0.5000 
     99 N          -2.4715  -23.6373  -52.8143 N.am      18 UNK        -0.5000 
    100 CA        -2.7517  -24.4352  -54.0146 C.3       18 UNK         0.1400 
    101 CB        -1.4793  -24.5908  -54.8726 C.3       18 UNK        -0.1800 
    102 C         -3.9616  -23.8938  -54.8100 C.2       18 UNK         0.5000 
    103 O         -3.8894  -23.7278  -56.0290 O.2       18 UNK        -0.5000 
    104 N         -5.0436  -23.6049  -54.0753 N.am      19 UNK        -0.5000 
    105 CA        -6.3259  -23.0462  -54.5089 C.3       19 UNK         0.1400 
    106 CB        -7.0345  -23.9963  -55.4966 C.3       19 UNK        -0.1800 
    107 C         -6.2674  -21.5916  -55.0253 C.2       19 UNK         0.5000 
    108 O         -7.2530  -21.1245  -55.5994 O.2       19 UNK        -0.5000 
    109 N         -5.1518  -20.8801  -54.8038 N.am      20 UNK        -0.5000 
    110 CA        -5.0105  -19.4630  -55.1493 C.3       20 UNK         0.1400 
    111 CB        -3.5232  -19.0866  -55.2140 C.3       20 UNK        -0.1800 
    112 C         -5.7520  -18.5369  -54.1674 C.2       20 UNK         0.5000 
    113 O         -6.1978  -17.4645  -54.5774 O.2       20 UNK        -0.5000 
    114 N         -5.8626  -18.9632  -52.8981 N.am      21 UNK        -0.5000 
    115 CA        -6.5156  -18.2780  -51.7755 C.3       21 UNK         0.1400 
    116 CB        -8.0441  -18.2531  -51.9788 C.3       21 UNK        -0.1800 
    117 C         -5.9249  -16.8835  -51.4644 C.2       21 UNK         0.5000 
    118 O         -6.6422  -15.9978  -50.9959 O.2       21 UNK        -0.5000 
    119 N         -4.6256  -16.7128  -51.7375 N.am      22 UNK        -0.5000 
    120 CA        -3.8833  -15.4506  -51.5953 C.3       22 UNK         0.1400 
    121 C         -3.4635  -15.0751  -50.1435 C.2       22 UNK         0.5000 
    122 N         -3.6466  -15.9355  -49.1496 N.am      22 UNK        -0.7600 
    123 O         -2.9664  -13.9752  -49.9152 O.2       22 UNK        -0.5000 
    124 C124       -2.6940  -15.3786  -52.5895 C.3       23 UNK        -0.0398 
    125 S125       -1.5441  -16.7988  -52.5108 S.3       23 UNK        -0.2404 
    126 C126       -0.2878  -16.1476  -51.3726 C.3       23 UNK        -0.0205 
    127 H127        4.9744  -16.8128  -46.6785 H         1 UNK         0.0600 
    128 H128        5.6097  -16.7464  -48.3136 H         1 UNK         0.0600 
    129 H129        3.8631  -16.7999  -48.0293 H         1 UNK         0.0600 
    130 H130        4.2856  -13.1184  -48.4554 H         1 UNK         0.3000 
    131 H131        3.2305  -15.5769  -49.6699 H         1 UNK         0.0600 
    132 H132        4.0826  -14.4668  -51.9765 H         1 UNK         0.0800 
    133 H133        5.2769  -13.7292  -50.9640 H         1 UNK         0.0800 
    134 H134        5.1550  -17.9936  -52.5812 H         1 UNK         0.0800 
    135 H135        4.4252  -16.5460  -53.2241 H         1 UNK         0.0800 
    136 H136        2.1599  -15.8771  -52.5276 H         1 UNK         0.1150 
    137 H137       -0.0683  -18.4459  -49.9292 H         1 UNK         0.1150 
    138 H138        4.0708  -19.2544  -50.7136 H         1 UNK         0.1150 
    139 H139        1.1565  -20.9419  -49.7848 H         1 UNK         0.0800 
    140 H140        2.8566  -20.8093  -49.4420 H         1 UNK         0.0800 
    141 H141       -0.6282  -20.2853  -48.4984 H         1 UNK         0.0800 
    142 H142       -0.6696  -19.3483  -47.0359 H         1 UNK         0.0800 
    143 H143        0.1053  -22.2980  -47.1768 H         1 UNK         0.0600 
    144 H144        0.3508  -20.5253  -44.9959 H         1 UNK         0.3000 
    145 H145       -0.0933  -21.9349  -42.4719 H         1 UNK         0.0600 
    146 H146        1.7328  -23.3327  -41.4823 H         1 UNK         0.0600 
    147 H147        0.5687  -24.3026  -42.3684 H         1 UNK         0.0600 
    148 H148        2.1328  -23.9454  -43.0872 H         1 UNK         0.0600 
    149 H149        1.4776  -20.3985  -42.4359 H         1 UNK         0.3000 
    150 H150        4.6036  -20.0518  -43.0272 H         1 UNK         0.0600 
    151 H151        4.5934  -19.7518  -45.5041 H         1 UNK         0.0600 
    152 H152        4.6883  -18.2071  -44.6743 H         1 UNK         0.0600 
    153 H153        3.1673  -18.7303  -45.3888 H         1 UNK         0.0600 
    154 H154        2.0589  -18.4727  -43.0868 H         1 UNK         0.3000 
    155 H155        2.4448  -17.6610  -39.6485 H         1 UNK         0.0600 
    156 H156        3.6695  -15.7854  -40.7257 H         1 UNK         0.0600 
    157 H157        1.9943  -15.3464  -40.4291 H         1 UNK         0.0600 
    158 H158        2.5207  -15.7687  -42.0566 H         1 UNK         0.0600 
    159 H159        0.3915  -16.9534  -41.4443 H         1 UNK         0.3000 
    160 H160       -1.6721  -19.8407  -40.7821 H         1 UNK         0.0600 
    161 H161       -1.6917  -16.9073  -39.8931 H         1 UNK         0.0600 
    162 H162       -1.7615  -18.3050  -38.8247 H         1 UNK         0.0600 
    163 H163       -3.0830  -17.9880  -39.9383 H         1 UNK         0.0600 
    164 H164       -1.4813  -17.3112  -42.3704 H         1 UNK         0.3000 
    165 H165       -2.1773  -19.0644  -45.3887 H         1 UNK         0.0600 
    166 H166       -3.8447  -17.2723  -45.6384 H         1 UNK         0.0600 
    167 H167       -4.4203  -18.4345  -44.4554 H         1 UNK         0.0600 
    168 H168       -3.7572  -16.8971  -43.9193 H         1 UNK         0.0600 
    169 H169       -1.6112  -16.3555  -45.0359 H         1 UNK         0.3000 
    170 H170        1.8390  -16.3133  -44.3142 H         1 UNK         0.0600 
    171 H171        1.8771  -16.8666  -46.7594 H         1 UNK         0.0600 
    172 H172        0.5193  -15.7842  -47.0315 H         1 UNK         0.0600 
    173 H173        2.0661  -15.1410  -46.4773 H         1 UNK         0.0600 
    174 H174        0.2228  -14.1852  -45.1219 H         1 UNK         0.3000 
    175 H175       -2.0570  -13.7621  -42.5248 H         1 UNK         0.0600 
    176 H176        0.5274  -12.1295  -42.7690 H         1 UNK         0.0600 
    177 H177       -0.9728  -11.5936  -42.0103 H         1 UNK         0.0600 
    178 H178       -0.0468  -12.9039  -41.2968 H         1 UNK         0.0600 
    179 H179       -1.2887  -11.8951  -44.4576 H         1 UNK         0.3000 
    180 H180       -3.5941  -12.8018  -46.8830 H         1 UNK         0.0600 
    181 H181       -1.6431  -10.6230  -45.9528 H         1 UNK         0.0600 
    182 H182       -3.2954  -10.8077  -45.3635 H         1 UNK         0.0600 
    183 H183       -3.0011  -10.4376  -47.0520 H         1 UNK         0.0600 
    184 H184       -2.1562  -12.9016  -48.5538 H         1 UNK         0.3000 
    185 H185       -0.3160  -13.2631  -49.7511 H         1 UNK         0.0600 
    186 H186        0.8427  -11.1849  -50.5209 H         1 UNK         0.0600 
    187 H187       -0.5039  -10.7450  -49.4911 H         1 UNK         0.0600 
    188 H188        1.1344  -10.6986  -48.8522 H         1 UNK         0.0600 
    189 H189        1.9335  -13.6136  -48.0538 H         1 UNK         0.3000 
    190 H190       -2.3590  -21.3680  -44.8854 H         1 UNK         0.3000 
    191 H191       -4.6683  -21.9452  -46.4886 H         1 UNK         0.0600 
    192 H192       -4.8428  -20.7231  -44.3513 H         1 UNK         0.0600 
    193 H193       -5.7984  -22.1923  -44.2776 H         1 UNK         0.0600 
    194 H194       -4.2413  -22.1198  -43.4617 H         1 UNK         0.0600 
    195 H195       -2.5127  -23.9372  -44.4539 H         1 UNK         0.3000 
    196 H196       -3.9919  -26.3981  -44.7339 H         1 UNK         0.0600 
    197 H197       -2.0168  -27.3896  -43.6197 H         1 UNK         0.0600 
    198 H198       -2.5072  -25.9266  -42.7802 H         1 UNK         0.0600 
    199 H199       -1.0990  -25.9082  -43.8417 H         1 UNK         0.0600 
    200 H200       -1.5337  -24.7623  -46.6186 H         1 UNK         0.3000 
    201 H201       -0.9019  -27.0091  -48.3705 H         1 UNK         0.0600 
    202 H202        0.7366  -25.1619  -47.8273 H         1 UNK         0.0600 
    203 H203       -0.2885  -24.0309  -48.7119 H         1 UNK         0.0600 
    204 H204        0.4722  -25.3713  -49.5515 H         1 UNK         0.0600 
    205 H205       -3.6027  -26.8325  -48.2189 H         1 UNK         0.3000 
    206 H206       -5.5483  -26.7442  -49.2946 H         1 UNK         0.0600 
    207 H207       -4.3019  -28.3244  -50.7698 H         1 UNK         0.0600 
    208 H208       -5.4991  -27.4222  -51.6831 H         1 UNK         0.0600 
    209 H209       -3.7987  -26.9876  -51.8018 H         1 UNK         0.0600 
    210 H210       -4.9192  -24.2501  -48.4837 H         1 UNK         0.3000 
    211 H211       -5.2440  -22.0552  -48.7011 H         1 UNK         0.0600 
    212 H212       -7.2532  -22.7951  -50.8952 H         1 UNK         0.0600 
    213 H213       -7.1902  -21.2761  -50.0148 H         1 UNK         0.0600 
    214 H214       -7.5906  -22.7606  -49.1654 H         1 UNK         0.0600 
    215 H215       -2.9381  -22.5660  -49.6229 H         1 UNK         0.3000 
    216 H216       -1.2053  -22.0858  -50.9101 H         1 UNK         0.0600 
    217 H217       -1.1236  -19.8389  -51.9183 H         1 UNK         0.0600 
    218 H218       -1.9782  -19.7449  -50.3828 H         1 UNK         0.0600 
    219 H219       -2.8757  -19.7068  -51.8914 H         1 UNK         0.0600 
    220 H220       -2.5035  -24.1463  -51.9324 H         1 UNK         0.3000 
    221 H221       -3.0360  -25.4276  -53.6625 H         1 UNK         0.0600 
    222 H222       -1.1523  -23.6383  -55.2907 H         1 UNK         0.0600 
    223 H223       -0.6569  -24.9993  -54.2853 H         1 UNK         0.0600 
    224 H224       -1.6522  -25.2720  -55.7065 H         1 UNK         0.0600 
    225 H225       -5.0060  -23.8200  -53.0807 H         1 UNK         0.3000 
    226 H226       -6.9359  -23.0059  -53.6053 H         1 UNK         0.0600 
    227 H227       -6.5235  -24.0359  -56.4588 H         1 UNK         0.0600 
    228 H228       -7.0852  -25.0103  -55.0999 H         1 UNK         0.0600 
    229 H229       -8.0589  -23.6734  -55.6856 H         1 UNK         0.0600 
    230 H230       -4.3772  -21.3170  -54.3194 H         1 UNK         0.3000 
    231 H231       -5.4362  -19.3054  -56.1426 H         1 UNK         0.0600 
    232 H232       -2.9792  -19.7350  -55.9010 H         1 UNK         0.0600 
    233 H233       -3.0457  -19.1569  -54.2370 H         1 UNK         0.0600 
    234 H234       -3.3959  -18.0609  -55.5623 H         1 UNK         0.0600 
    235 H235       -5.4683  -19.8728  -52.6625 H         1 UNK         0.3000 
    236 H236       -6.3137  -18.8889  -50.8948 H         1 UNK         0.0600 
    237 H237       -8.4306  -19.2540  -52.1714 H         1 UNK         0.0600 
    238 H238       -8.5530  -17.8759  -51.0912 H         1 UNK         0.0600 
    239 H239       -8.3297  -17.6161  -52.8165 H         1 UNK         0.0600 
    240 H240       -4.1015  -17.4893  -52.1130 H         1 UNK         0.3000 
    241 H241       -4.5671  -14.6520  -51.8896 H         1 UNK         0.0600 
    242 H242       -3.3848  -15.6752  -48.2128 H         1 UNK         0.3800 
    243 H243       -4.0633  -16.8344  -49.3252 H         1 UNK         0.3800 
    244 H244       -3.0906  -15.3509  -53.6053 H         1 UNK         0.0800 
    245 H245       -2.1422  -14.4438  -52.4762 H         1 UNK         0.0800 
    246 H246       -0.7269  -15.9990  -50.3857 H         1 UNK         0.0800 
    247 H247        0.0279  -15.1634  -51.7197 H         1 UNK         0.0800 
@<TRIPOS>BOND
     1    1    2 1    
     2    1  127 1    
     3    1  128 1    
     4    1  129 1    
     5    2    3 2    
     6    2    4 am   BACKBONE|DICT|INTERRES
     7    4    5 1    
     8    4  130 1    
     9    5    6 1    
    10    5   65 1    
    11    5  131 1    
    12    6    7 1    
    13    6  132 1    
    14    6  133 1    
    15    7    8 1    
    16    8    9 1    
    17    8  134 1    
    18    8  135 1    
    19    9   10 ar   
    20    9   14 ar   
    21   10   11 ar   
    22   10  136 1    
    23   11   12 ar   
    24   11  126 1    
    25   12   13 ar   
    26   12  137 1    
    27   13   14 ar   
    28   13   15 1    
    29   14  138 1    
    30   15   16 1    
    31   15  139 1    
    32   15  140 1    
    33   16   17 1    
    34   17   18 1    
    35   17  141 1    
    36   17  142 1    
    37   18   19 1    
    38   18   67 1    
    39   18  143 1    
    40   19   20 am   BACKBONE|DICT|INTERRES
    41   19  144 1    
    42   20   21 2    
    43   20   22 1    
    44   22   23 1    
    45   22   24 1    
    46   22  145 1    
    47   23  146 1    
    48   23  147 1    
    49   23  148 1    
    50   24   25 am   BACKBONE|DICT|INTERRES
    51   24  149 1    
    52   25   26 2    
    53   25   27 1    
    54   27   28 1    
    55   27   29 1    
    56   27  150 1    
    57   28  151 1    
    58   28  152 1    
    59   28  153 1    
    60   29   30 am   BACKBONE|DICT|INTERRES
    61   29  154 1    
    62   30   31 2    
    63   30   32 1    
    64   32   33 1    
    65   32   34 1    
    66   32  155 1    
    67   33  156 1    
    68   33  157 1    
    69   33  158 1    
    70   34   35 am   BACKBONE|DICT|INTERRES
    71   34  159 1    
    72   35   36 2    
    73   35   37 1    
    74   37   38 1    
    75   37   39 1    
    76   37  160 1    
    77   38  161 1    
    78   38  162 1    
    79   38  163 1    
    80   39   40 am   BACKBONE|DICT|INTERRES
    81   39  164 1    
    82   40   41 2    
    83   40   42 1    
    84   42   43 1    
    85   42   44 1    
    86   42  165 1    
    87   43  166 1    
    88   43  167 1    
    89   43  168 1    
    90   44   45 am   BACKBONE|DICT|INTERRES
    91   44  169 1    
    92   45   46 2    
    93   45   47 1    
    94   47   48 1    
    95   47   49 1    
    96   47  170 1    
    97   48  171 1    
    98   48  172 1    
    99   48  173 1    
   100   49   50 am   BACKBONE|DICT|INTERRES
   101   49  174 1    
   102   50   51 2    
   103   50   52 1    
   104   52   53 1    
   105   52   54 1    
   106   52  175 1    
   107   53  176 1    
   108   53  177 1    
   109   53  178 1    
   110   54   55 am   BACKBONE|DICT|INTERRES
   111   54  179 1    
   112   55   56 2    
   113   55   57 1    
   114   57   58 1    
   115   57   59 1    
   116   57  180 1    
   117   58  181 1    
   118   58  182 1    
   119   58  183 1    
   120   59   60 am   BACKBONE|DICT|INTERRES
   121   59  184 1    
   122   60   61 2    
   123   60   62 1    
   124   62   63 1    
   125   62   64 1    
   126   62  185 1    
   127   63  186 1    
   128   63  187 1    
   129   63  188 1    
   130   64   65 am   BACKBONE|DICT|INTERRES
   131   64  189 1    
   132   65   66 2    
   133   67   68 2    
   134   67   69 am   BACKBONE|DICT|INTERRES
   135   69   70 1    
   136   69  190 1    
   137   70   71 1    
   138   70   72 1    
   139   70  191 1    
   140   71  192 1    
   141   71  193 1    
   142   71  194 1    
   143   72   73 2    
   144   72   74 am   BACKBONE|DICT|INTERRES
   145   74   75 1    
   146   74  195 1    
   147   75   76 1    
   148   75   77 1    
   149   75  196 1    
   150   76  197 1    
   151   76  198 1    
   152   76  199 1    
   153   77   78 2    
   154   77   79 am   BACKBONE|DICT|INTERRES
   155   79   80 1    
   156   79  200 1    
   157   80   81 1    
   158   80   82 1    
   159   80  201 1    
   160   81  202 1    
   161   81  203 1    
   162   81  204 1    
   163   82   83 2    
   164   82   84 am   BACKBONE|DICT|INTERRES
   165   84   85 1    
   166   84  205 1    
   167   85   86 1    
   168   85   87 1    
   169   85  206 1    
   170   86  207 1    
   171   86  208 1    
   172   86  209 1    
   173   87   88 2    
   174   87   89 am   BACKBONE|DICT|INTERRES
   175   89   90 1    
   176   89  210 1    
   177   90   91 1    
   178   90   92 1    
   179   90  211 1    
   180   91  212 1    
   181   91  213 1    
   182   91  214 1    
   183   92   93 2    
   184   92   94 am   BACKBONE|DICT|INTERRES
   185   94   95 1    
   186   94  215 1    
   187   95   96 1    
   188   95   97 1    
   189   95  216 1    
   190   96  217 1    
   191   96  218 1    
   192   96  219 1    
   193   97   98 2    
   194   97   99 am   BACKBONE|DICT|INTERRES
   195   99  100 1    
   196   99  220 1    
   197  100  101 1    
   198  100  102 1    
   199  100  221 1    
   200  101  222 1    
   201  101  223 1    
   202  101  224 1    
   203  102  103 2    
   204  102  104 am   BACKBONE|DICT|INTERRES
   205  104  105 1    
   206  104  225 1    
   207  105  106 1    
   208  105  107 1    
   209  105  226 1    
   210  106  227 1    
   211  106  228 1    
   212  106  229 1    
   213  107  108 2    
   214  107  109 am   BACKBONE|DICT|INTERRES
   215  109  110 1    
   216  109  230 1    
   217  110  111 1    
   218  110  112 1    
   219  110  231 1    
   220  111  232 1    
   221  111  233 1    
   222  111  234 1    
   223  112  113 2    
   224  112  114 am   BACKBONE|DICT|INTERRES
   225  114  115 1    
   226  114  235 1    
   227  115  116 1    
   228  115  117 1    
   229  115  236 1    
   230  116  237 1    
   231  116  238 1    
   232  116  239 1    
   233  117  118 2    
   234  117  119 am   BACKBONE|DICT|INTERRES
   235  119  120 1    
   236  119  240 1    
   237  120  121 1    
   238  120  124 1    
   239  120  241 1    
   240  121  122 am   BACKBONE|DICT|INTERRES
   241  121  123 2    
   242  122  242 1    
   243  122  243 1    
   244  124  125 1    
   245  124  244 1    
   246  124  245 1    
   247  125  126 1    
   248  126  246 1    
   249  126  247 1    
@<TRIPOS>SUBSTRUCTURE
     1 UNK         1 GROUP             0       ****    0 ROOT    
