@<TRIPOS>MOLECULE
3R540
247   249    1
SMALL
USER_CHARGES


@<TRIPOS>ATOM
      1 CA          8.1554  -16.7264  -46.2602 C.3       0 UNK        -0.1800 
      2 C           7.5989  -15.6254  -47.1604 C.2       0 UNK         0.5000 
      3 O           8.1740  -14.5404  -47.2143 O.2       0 UNK        -0.5000 
      4 N           6.4928  -15.8478  -47.8840 N.am      1 UNK        -0.5000 
      5 CA          5.6706  -17.0658  -47.8990 C.3       1 UNK         0.1400 
      6 C6          4.9001  -17.2282  -49.2343 C.3       23 UNK        -0.0398 
      7 S7          3.8213  -15.8114  -49.6490 S.3       23 UNK        -0.2404 
      8 C8          3.7389  -15.9491  -51.4606 C.3       23 UNK        -0.0205 
      9 C9          2.7035  -16.9712  -51.9055 C.ar      23 UNK        -0.0193 
     10 C10         1.4048  -16.5567  -52.2120 C.ar      23 UNK        -0.1150 
     11 C11         0.4533  -17.4738  -52.6654 C.ar      23 UNK        -0.0193 
     12 C12         0.8058  -18.8191  -52.8015 C.ar      23 UNK        -0.1150 
     13 C13         2.0952  -19.2523  -52.4748 C.ar      23 UNK        -0.0193 
     14 C14         3.0425  -18.3216  -52.0360 C.ar      23 UNK        -0.1150 
     15 C15         2.4722  -20.7212  -52.6131 C.3       23 UNK        -0.0205 
     16 S16         2.4082  -21.6049  -51.0204 S.3       23 UNK        -0.2404 
     17 C17         0.6098  -21.6598  -50.7216 C.3       23 UNK        -0.0398 
     18 CA          0.2243  -22.1774  -49.3159 C.3       11 UNK         0.1400 
     19 N           0.9267  -21.4614  -48.2490 N.am      11 UNK        -0.5000 
     20 C           0.8825  -21.7641  -46.9446 C.2       10 UNK         0.5000 
     21 O           0.2588  -22.7173  -46.4841 O.2       10 UNK        -0.5000 
     22 CA          1.6050  -20.7962  -45.9905 C.3       10 UNK         0.1400 
     23 CB          3.0585  -21.2407  -45.7749 C.3       10 UNK        -0.1800 
     24 N           1.5863  -19.4128  -46.4704 N.am      10 UNK        -0.5000 
     25 C           0.4778  -18.6965  -46.6877 C.2       9 UNK         0.5000 
     26 O          -0.6614  -19.1142  -46.4608 O.2       9 UNK        -0.5000 
     27 CA          0.6596  -17.2967  -47.2789 C.3       9 UNK         0.1400 
     28 CB          0.1066  -17.2167  -48.7107 C.3       9 UNK        -0.1800 
     29 N          -0.0580  -16.3857  -46.4042 N.am      9 UNK        -0.5000 
     30 C           0.3514  -15.1600  -46.0677 C.2       8 UNK         0.5000 
     31 O           1.2578  -14.5613  -46.6458 O.2       8 UNK        -0.5000 
     32 CA         -0.3352  -14.4991  -44.8555 C.3       8 UNK         0.1400 
     33 CB         -1.3017  -13.3967  -45.3139 C.3       8 UNK        -0.1800 
     34 N          -1.0601  -15.4226  -43.9768 N.am      8 UNK        -0.5000 
     35 C          -0.5329  -16.4286  -43.2657 C.2       7 UNK         0.5000 
     36 O           0.6518  -16.7695  -43.3169 O.2       7 UNK        -0.5000 
     37 CA         -1.5086  -17.1456  -42.3143 C.3       7 UNK         0.1400 
     38 CB         -0.8879  -18.3841  -41.6471 C.3       7 UNK        -0.1800 
     39 N          -1.9710  -16.2271  -41.2743 N.am      7 UNK        -0.5000 
     40 C          -2.9781  -15.3527  -41.4011 C.2       6 UNK         0.5000 
     41 O          -3.6611  -15.2422  -42.4200 O.2       6 UNK        -0.5000 
     42 CA         -3.2331  -14.4267  -40.1991 C.3       6 UNK         0.1400 
     43 CB         -3.9896  -15.1710  -39.0878 C.3       6 UNK        -0.1800 
     44 N          -1.9830  -13.8875  -39.6609 N.am      6 UNK        -0.5000 
     45 C          -1.2937  -12.8802  -40.2169 C.2       5 UNK         0.5000 
     46 O          -1.6730  -12.2519  -41.2058 O.2       5 UNK        -0.5000 
     47 CA          0.0602  -12.5330  -39.5659 C.3       5 UNK         0.1400 
     48 CB         -0.1389  -11.6117  -38.3526 C.3       5 UNK        -0.1800 
     49 N           0.8102  -13.7247  -39.1567 N.am      5 UNK        -0.5000 
     50 C           1.3146  -14.6189  -40.0167 C.2       4 UNK         0.5000 
     51 O           1.2543  -14.4882  -41.2413 O.2       4 UNK        -0.5000 
     52 CA          1.9709  -15.8725  -39.4147 C.3       4 UNK         0.1400 
     53 CB          1.0007  -16.6317  -38.4840 C.3       4 UNK        -0.1800 
     54 N           2.4016  -16.7325  -40.5130 N.am      4 UNK        -0.5000 
     55 C           3.2616  -17.7554  -40.4385 C.2       3 UNK         0.5000 
     56 O           3.8005  -18.1175  -39.3921 O.2       3 UNK        -0.5000 
     57 CA          3.5902  -18.4953  -41.7490 C.3       3 UNK         0.1400 
     58 CB          2.7758  -19.7934  -41.8603 C.3       3 UNK        -0.1800 
     59 N           3.3225  -17.6614  -42.9213 N.am      3 UNK        -0.5000 
     60 C           4.2544  -16.9774  -43.5912 C.2       2 UNK         0.5000 
     61 O           5.4624  -17.0266  -43.3463 O.2       2 UNK        -0.5000 
     62 CA          3.7411  -16.0478  -44.7035 C.3       2 UNK         0.1400 
     63 CB          3.6722  -14.5992  -44.1964 C.3       2 UNK        -0.1800 
     64 N           4.5837  -16.0987  -45.8969 N.am      2 UNK        -0.5000 
     65 C           4.7133  -17.1691  -46.6923 C.2       1 UNK         0.5000 
     66 O           4.0951  -18.2180  -46.5184 O.2       1 UNK        -0.5000 
     67 C          -1.3081  -22.1069  -49.1501 C.2       11 UNK         0.5000 
     68 O          -1.9959  -23.0850  -49.4434 O.2       11 UNK        -0.5000 
     69 N          -1.8206  -20.9559  -48.6914 N.am      12 UNK        -0.5000 
     70 CA         -3.2424  -20.7465  -48.4224 C.3       12 UNK         0.1400 
     71 CB         -3.5576  -19.2442  -48.4080 C.3       12 UNK        -0.1800 
     72 C          -3.6634  -21.4164  -47.1063 C.2       12 UNK         0.5000 
     73 O          -4.7261  -22.0343  -47.0588 O.2       12 UNK        -0.5000 
     74 N          -2.8015  -21.3325  -46.0822 N.am      13 UNK        -0.5000 
     75 CA         -2.9897  -21.9802  -44.7808 C.3       13 UNK         0.1400 
     76 CB         -1.9112  -21.4847  -43.8079 C.3       13 UNK        -0.1800 
     77 C          -2.9939  -23.5201  -44.8688 C.2       13 UNK         0.5000 
     78 O          -3.7960  -24.1670  -44.1952 O.2       13 UNK        -0.5000 
     79 N          -2.1319  -24.0734  -45.7328 N.am      14 UNK        -0.5000 
     80 CA         -2.0674  -25.4970  -46.0745 C.3       14 UNK         0.1400 
     81 CB         -0.6990  -25.7860  -46.7130 C.3       14 UNK        -0.1800 
     82 C          -3.1980  -25.9575  -47.0188 C.2       14 UNK         0.5000 
     83 O          -3.3424  -27.1610  -47.2359 O.2       14 UNK        -0.5000 
     84 N          -3.9560  -25.0019  -47.5774 N.am      15 UNK        -0.5000 
     85 CA         -5.0398  -25.1664  -48.5503 C.3       15 UNK         0.1400 
     86 CB         -6.2199  -25.9554  -47.9472 C.3       15 UNK        -0.1800 
     87 C          -4.5712  -25.7213  -49.9127 C.2       15 UNK         0.5000 
     88 O          -5.3611  -26.3295  -50.6352 O.2       15 UNK        -0.5000 
     89 N          -3.3037  -25.4676  -50.2605 N.am      16 UNK        -0.5000 
     90 CA         -2.7157  -25.7771  -51.5627 C.3       16 UNK         0.1400 
     91 CB         -1.1919  -25.9067  -51.4097 C.3       16 UNK        -0.1800 
     92 C          -3.0687  -24.6949  -52.5981 C.2       16 UNK         0.5000 
     93 O          -3.3284  -25.0189  -53.7567 O.2       16 UNK        -0.5000 
     94 N          -3.0967  -23.4320  -52.1494 N.am      17 UNK        -0.5000 
     95 CA         -3.4718  -22.2657  -52.9515 C.3       17 UNK         0.1400 
     96 CB         -2.6603  -21.0486  -52.4783 C.3       17 UNK        -0.1800 
     97 C          -4.9784  -21.9563  -52.8931 C.2       17 UNK         0.5000 
     98 O          -5.4113  -21.0029  -53.5420 O.2       17 UNK        -0.5000 
     99 N          -5.7514  -22.7173  -52.1043 N.am      18 UNK        -0.5000 
    100 CA        -7.1974  -22.5536  -51.9363 C.3       18 UNK         0.1400 
    101 CB        -7.7137  -23.5530  -50.8909 C.3       18 UNK        -0.1800 
    102 C         -7.9446  -22.7174  -53.2713 C.2       18 UNK         0.5000 
    103 O         -7.7642  -23.7335  -53.9450 O.2       18 UNK        -0.5000 
    104 N         -8.7160  -21.6882  -53.6475 N.am      19 UNK        -0.5000 
    105 CA        -9.4603  -21.4991  -54.9031 C.3       19 UNK         0.1400 
    106 CB       -10.5087  -22.6092  -55.1100 C.3       19 UNK        -0.1800 
    107 C         -8.5810  -21.3225  -56.1610 C.2       19 UNK         0.5000 
    108 O         -8.9629  -20.5697  -57.0579 O.2       19 UNK        -0.5000 
    109 N         -7.4277  -21.9995  -56.2097 N.am      20 UNK        -0.5000 
    110 CA        -6.4386  -21.9319  -57.2841 C.3       20 UNK         0.1400 
    111 CB        -5.4195  -23.0658  -57.0907 C.3       20 UNK        -0.1800 
    112 C         -5.7192  -20.5726  -57.3628 C.2       20 UNK         0.5000 
    113 O         -5.3957  -20.1226  -58.4631 O.2       20 UNK        -0.5000 
    114 N         -5.4817  -19.9492  -56.2038 N.am      21 UNK        -0.5000 
    115 CA        -4.8130  -18.6640  -56.0566 C.3       21 UNK         0.1400 
    116 CB        -3.2809  -18.8609  -56.0837 C.3       21 UNK        -0.1800 
    117 C         -5.3560  -17.9635  -54.7981 C.2       21 UNK         0.5000 
    118 O         -6.5567  -17.6952  -54.7318 O.2       21 UNK        -0.5000 
    119 N         -4.4747  -17.6592  -53.8385 N.am      22 UNK        -0.5000 
    120 CA        -4.7639  -16.8923  -52.6161 C.3       22 UNK         0.1400 
    121 C         -5.5417  -17.6416  -51.4929 C.2       22 UNK         0.5000 
    122 N         -5.8553  -18.9227  -51.6233 N.am      22 UNK        -0.7600 
    123 O         -5.8894  -17.0373  -50.4821 O.2       22 UNK        -0.5000 
    124 C124       -3.4889  -16.1884  -52.0822 C.3       23 UNK        -0.0398 
    125 S125       -2.1144  -17.3211  -51.6632 S.3       23 UNK        -0.2404 
    126 C126       -0.9472  -17.0031  -53.0214 C.3       23 UNK        -0.0205 
    127 H127        8.4650  -17.5887  -46.8504 H         1 UNK         0.0600 
    128 H128        7.4173  -17.0473  -45.5256 H         1 UNK         0.0600 
    129 H129        9.0283  -16.3678  -45.7144 H         1 UNK         0.0600 
    130 H130        6.1451  -15.1043  -48.4738 H         1 UNK         0.3000 
    131 H131        6.3361  -17.9274  -47.8246 H         1 UNK         0.0600 
    132 H132        5.6245  -17.3640  -50.0381 H         1 UNK         0.0800 
    133 H133        4.2962  -18.1378  -49.2296 H         1 UNK         0.0800 
    134 H134        4.7193  -16.1972  -51.8694 H         1 UNK         0.0800 
    135 H135        3.4866  -14.9694  -51.8691 H         1 UNK         0.0800 
    136 H136        1.1371  -15.5147  -52.1061 H         1 UNK         0.1150 
    137 H137        0.0715  -19.5286  -53.1549 H         1 UNK         0.1150 
    138 H138        4.0443  -18.6501  -51.7979 H         1 UNK         0.1150 
    139 H139        1.8211  -21.2197  -53.3329 H         1 UNK         0.0800 
    140 H140        3.4830  -20.7982  -53.0163 H         1 UNK         0.0800 
    141 H141        0.1653  -22.2945  -51.4902 H         1 UNK         0.0800 
    142 H142        0.2070  -20.6570  -50.8692 H         1 UNK         0.0800 
    143 H143        0.5122  -23.2286  -49.2471 H         1 UNK         0.0600 
    144 H144        1.4888  -20.6742  -48.5371 H         1 UNK         0.3000 
    145 H145        1.0906  -20.8220  -45.0283 H         1 UNK         0.0600 
    146 H146        3.6237  -21.2323  -46.7078 H         1 UNK         0.0600 
    147 H147        3.5720  -20.5854  -45.0714 H         1 UNK         0.0600 
    148 H148        3.1023  -22.2527  -45.3704 H         1 UNK         0.0600 
    149 H149        2.4995  -18.9826  -46.6149 H         1 UNK         0.3000 
    150 H150        1.7220  -17.0470  -47.2942 H         1 UNK         0.0600 
    151 H151        0.2457  -16.2203  -49.1304 H         1 UNK         0.0600 
    152 H152       -0.9584  -17.4480  -48.7467 H         1 UNK         0.0600 
    153 H153        0.6202  -17.9177  -49.3702 H         1 UNK         0.0600 
    154 H154       -0.8027  -16.8132  -45.8704 H         1 UNK         0.3000 
    155 H155        0.4521  -14.0361  -44.2568 H         1 UNK         0.0600 
    156 H156       -0.7923  -12.6648  -45.9421 H         1 UNK         0.0600 
    157 H157       -1.7170  -12.8581  -44.4615 H         1 UNK         0.0600 
    158 H158       -2.1316  -13.8057  -45.8914 H         1 UNK         0.0600 
    159 H159       -2.0398  -15.2142  -43.8227 H         1 UNK         0.3000 
    160 H160       -2.3601  -17.4837  -42.9088 H         1 UNK         0.0600 
    161 H161       -0.0386  -18.1244  -41.0168 H         1 UNK         0.0600 
    162 H162       -0.5336  -19.0903  -42.3975 H         1 UNK         0.0600 
    163 H163       -1.6175  -18.9067  -41.0286 H         1 UNK         0.0600 
    164 H164       -1.4379  -16.2167  -40.4197 H         1 UNK         0.3000 
    165 H165       -3.8597  -13.5987  -40.5381 H         1 UNK         0.0600 
    166 H166       -4.2300  -14.5027  -38.2607 H         1 UNK         0.0600 
    167 H167       -4.9312  -15.5756  -39.4613 H         1 UNK         0.0600 
    168 H168       -3.4100  -16.0039  -38.6879 H         1 UNK         0.0600 
    169 H169       -1.6068  -14.3327  -38.8373 H         1 UNK         0.3000 
    170 H170        0.6556  -11.9943  -40.3064 H         1 UNK         0.0600 
    171 H171       -0.6812  -10.7081  -38.6343 H         1 UNK         0.0600 
    172 H172       -0.7067  -12.1018  -37.5607 H         1 UNK         0.0600 
    173 H173        0.8179  -11.2978  -37.9350 H         1 UNK         0.0600 
    174 H174        0.9108  -13.8792  -38.1639 H         1 UNK         0.3000 
    175 H175        2.8496  -15.5547  -38.8503 H         1 UNK         0.0600 
    176 H176        0.0772  -16.9025  -38.9944 H         1 UNK         0.0600 
    177 H177        1.4475  -17.5488  -38.1007 H         1 UNK         0.0600 
    178 H178        0.7305  -16.0298  -37.6161 H         1 UNK         0.0600 
    179 H179        2.0338  -16.4497  -41.4153 H         1 UNK         0.3000 
    180 H180        4.6467  -18.7688  -41.7115 H         1 UNK         0.0600 
    181 H181        1.7088  -19.5957  -41.9428 H         1 UNK         0.0600 
    182 H182        2.9267  -20.4276  -40.9859 H         1 UNK         0.0600 
    183 H183        3.0755  -20.3711  -42.7338 H         1 UNK         0.0600 
    184 H184        2.3435  -17.5153  -43.1609 H         1 UNK         0.3000 
    185 H185        2.7391  -16.3677  -44.9904 H         1 UNK         0.0600 
    186 H186        4.6499  -14.2373  -43.8760 H         1 UNK         0.0600 
    187 H187        3.3021  -13.9242  -44.9677 H         1 UNK         0.0600 
    188 H188        2.9959  -14.5189  -43.3447 H         1 UNK         0.0600 
    189 H189        5.1286  -15.2755  -46.1056 H         1 UNK         0.3000 
    190 H190       -1.1961  -20.2116  -48.4138 H         1 UNK         0.3000 
    191 H191       -3.8245  -21.2004  -49.2275 H         1 UNK         0.0600 
    192 H192       -3.2981  -18.7809  -49.3589 H         1 UNK         0.0600 
    193 H193       -4.6224  -19.0714  -48.2470 H         1 UNK         0.0600 
    194 H194       -3.0178  -18.7190  -47.6201 H         1 UNK         0.0600 
    195 H195       -1.9621  -20.7769  -46.2017 H         1 UNK         0.3000 
    196 H196       -3.9623  -21.6682  -44.3947 H         1 UNK         0.0600 
    197 H197       -2.0785  -21.8790  -42.8049 H         1 UNK         0.0600 
    198 H198       -1.9227  -20.3976  -43.7391 H         1 UNK         0.0600 
    199 H199       -0.9134  -21.7928  -44.1194 H         1 UNK         0.0600 
    200 H200       -1.4387  -23.4761  -46.1769 H         1 UNK         0.3000 
    201 H201       -2.1485  -26.0804  -45.1552 H         1 UNK         0.0600 
    202 H202        0.1150  -25.5191  -46.0387 H         1 UNK         0.0600 
    203 H203       -0.5634  -25.2266  -47.6398 H         1 UNK         0.0600 
    204 H204       -0.5893  -26.8452  -46.9492 H         1 UNK         0.0600 
    205 H205       -3.7635  -24.0441  -47.3146 H         1 UNK         0.3000 
    206 H206       -5.3958  -24.1566  -48.7536 H         1 UNK         0.0600 
    207 H207       -7.0859  -25.9309  -48.6097 H         1 UNK         0.0600 
    208 H208       -5.9663  -27.0026  -47.7814 H         1 UNK         0.0600 
    209 H209       -6.5313  -25.5292  -46.9935 H         1 UNK         0.0600 
    210 H210       -2.7435  -24.8910  -49.6412 H         1 UNK         0.3000 
    211 H211       -3.1069  -26.7328  -51.9181 H         1 UNK         0.0600 
    212 H212       -0.7257  -26.1654  -52.3612 H         1 UNK         0.0600 
    213 H213       -0.9341  -26.6904  -50.6971 H         1 UNK         0.0600 
    214 H214       -0.7372  -24.9780  -51.0633 H         1 UNK         0.0600 
    215 H215       -2.8496  -23.2623  -51.1794 H         1 UNK         0.3000 
    216 H216       -3.2244  -22.4453  -53.9997 H         1 UNK         0.0600 
    217 H217       -2.9164  -20.1536  -53.0440 H         1 UNK         0.0600 
    218 H218       -1.5939  -21.2148  -52.6153 H         1 UNK         0.0600 
    219 H219       -2.8407  -20.8217  -51.4285 H         1 UNK         0.0600 
    220 H220       -5.3279  -23.5107  -51.6498 H         1 UNK         0.3000 
    221 H221       -7.3748  -21.5464  -51.5546 H         1 UNK         0.0600 
    222 H222       -7.4887  -24.5827  -51.1712 H         1 UNK         0.0600 
    223 H223       -7.2744  -23.3617  -49.9128 H         1 UNK         0.0600 
    224 H224       -8.7956  -23.4743  -50.7768 H         1 UNK         0.0600 
    225 H225       -8.7485  -20.8890  -53.0298 H         1 UNK         0.3000 
    226 H226      -10.0032  -20.5609  -54.7780 H         1 UNK         0.0600 
    227 H227      -11.1652  -22.6985  -54.2445 H         1 UNK         0.0600 
    228 H228      -11.1378  -22.3913  -55.9739 H         1 UNK         0.0600 
    229 H229      -10.0472  -23.5815  -55.2840 H         1 UNK         0.0600 
    230 H230       -7.2324  -22.6336  -55.4417 H         1 UNK         0.3000 
    231 H231       -6.9560  -22.0916  -58.2324 H         1 UNK         0.0600 
    232 H232       -4.6715  -23.0595  -57.8845 H         1 UNK         0.0600 
    233 H233       -5.9063  -24.0411  -57.1105 H         1 UNK         0.0600 
    234 H234       -4.8918  -22.9749  -56.1401 H         1 UNK         0.0600 
    235 H235       -5.7747  -20.3847  -55.3332 H         1 UNK         0.3000 
    236 H236       -5.0873  -18.0223  -56.8965 H         1 UNK         0.0600 
    237 H237       -2.9423  -19.5366  -55.2988 H         1 UNK         0.0600 
    238 H238       -2.9609  -19.2842  -57.0359 H         1 UNK         0.0600 
    239 H239       -2.7554  -17.9121  -55.9703 H         1 UNK         0.0600 
    240 H240       -3.5173  -17.9542  -53.9488 H         1 UNK         0.3000 
    241 H241       -5.4433  -16.0916  -52.9146 H         1 UNK         0.0600 
    242 H242       -6.3664  -19.3668  -50.8801 H         1 UNK         0.3800 
    243 H243       -5.6156  -19.4458  -52.4587 H         1 UNK         0.3800 
    244 H244       -3.1480  -15.4618  -52.8201 H         1 UNK         0.0800 
    245 H245       -3.7212  -15.5978  -51.1944 H         1 UNK         0.0800 
    246 H246       -0.9265  -15.9368  -53.2514 H         1 UNK         0.0800 
    247 H247       -1.2893  -17.5077  -53.9252 H         1 UNK         0.0800 
@<TRIPOS>BOND
     1    1    2 1    
     2    1  127 1    
     3    1  128 1    
     4    1  129 1    
     5    2    3 2    
     6    2    4 am   BACKBONE|DICT|INTERRES
     7    4    5 1    
     8    4  130 1    
     9    5    6 1    
    10    5   65 1    
    11    5  131 1    
    12    6    7 1    
    13    6  132 1    
    14    6  133 1    
    15    7    8 1    
    16    8    9 1    
    17    8  134 1    
    18    8  135 1    
    19    9   10 ar   
    20    9   14 ar   
    21   10   11 ar   
    22   10  136 1    
    23   11   12 ar   
    24   11  126 1    
    25   12   13 ar   
    26   12  137 1    
    27   13   14 ar   
    28   13   15 1    
    29   14  138 1    
    30   15   16 1    
    31   15  139 1    
    32   15  140 1    
    33   16   17 1    
    34   17   18 1    
    35   17  141 1    
    36   17  142 1    
    37   18   19 1    
    38   18   67 1    
    39   18  143 1    
    40   19   20 am   BACKBONE|DICT|INTERRES
    41   19  144 1    
    42   20   21 2    
    43   20   22 1    
    44   22   23 1    
    45   22   24 1    
    46   22  145 1    
    47   23  146 1    
    48   23  147 1    
    49   23  148 1    
    50   24   25 am   BACKBONE|DICT|INTERRES
    51   24  149 1    
    52   25   26 2    
    53   25   27 1    
    54   27   28 1    
    55   27   29 1    
    56   27  150 1    
    57   28  151 1    
    58   28  152 1    
    59   28  153 1    
    60   29   30 am   BACKBONE|DICT|INTERRES
    61   29  154 1    
    62   30   31 2    
    63   30   32 1    
    64   32   33 1    
    65   32   34 1    
    66   32  155 1    
    67   33  156 1    
    68   33  157 1    
    69   33  158 1    
    70   34   35 am   BACKBONE|DICT|INTERRES
    71   34  159 1    
    72   35   36 2    
    73   35   37 1    
    74   37   38 1    
    75   37   39 1    
    76   37  160 1    
    77   38  161 1    
    78   38  162 1    
    79   38  163 1    
    80   39   40 am   BACKBONE|DICT|INTERRES
    81   39  164 1    
    82   40   41 2    
    83   40   42 1    
    84   42   43 1    
    85   42   44 1    
    86   42  165 1    
    87   43  166 1    
    88   43  167 1    
    89   43  168 1    
    90   44   45 am   BACKBONE|DICT|INTERRES
    91   44  169 1    
    92   45   46 2    
    93   45   47 1    
    94   47   48 1    
    95   47   49 1    
    96   47  170 1    
    97   48  171 1    
    98   48  172 1    
    99   48  173 1    
   100   49   50 am   BACKBONE|DICT|INTERRES
   101   49  174 1    
   102   50   51 2    
   103   50   52 1    
   104   52   53 1    
   105   52   54 1    
   106   52  175 1    
   107   53  176 1    
   108   53  177 1    
   109   53  178 1    
   110   54   55 am   BACKBONE|DICT|INTERRES
   111   54  179 1    
   112   55   56 2    
   113   55   57 1    
   114   57   58 1    
   115   57   59 1    
   116   57  180 1    
   117   58  181 1    
   118   58  182 1    
   119   58  183 1    
   120   59   60 am   BACKBONE|DICT|INTERRES
   121   59  184 1    
   122   60   61 2    
   123   60   62 1    
   124   62   63 1    
   125   62   64 1    
   126   62  185 1    
   127   63  186 1    
   128   63  187 1    
   129   63  188 1    
   130   64   65 am   BACKBONE|DICT|INTERRES
   131   64  189 1    
   132   65   66 2    
   133   67   68 2    
   134   67   69 am   BACKBONE|DICT|INTERRES
   135   69   70 1    
   136   69  190 1    
   137   70   71 1    
   138   70   72 1    
   139   70  191 1    
   140   71  192 1    
   141   71  193 1    
   142   71  194 1    
   143   72   73 2    
   144   72   74 am   BACKBONE|DICT|INTERRES
   145   74   75 1    
   146   74  195 1    
   147   75   76 1    
   148   75   77 1    
   149   75  196 1    
   150   76  197 1    
   151   76  198 1    
   152   76  199 1    
   153   77   78 2    
   154   77   79 am   BACKBONE|DICT|INTERRES
   155   79   80 1    
   156   79  200 1    
   157   80   81 1    
   158   80   82 1    
   159   80  201 1    
   160   81  202 1    
   161   81  203 1    
   162   81  204 1    
   163   82   83 2    
   164   82   84 am   BACKBONE|DICT|INTERRES
   165   84   85 1    
   166   84  205 1    
   167   85   86 1    
   168   85   87 1    
   169   85  206 1    
   170   86  207 1    
   171   86  208 1    
   172   86  209 1    
   173   87   88 2    
   174   87   89 am   BACKBONE|DICT|INTERRES
   175   89   90 1    
   176   89  210 1    
   177   90   91 1    
   178   90   92 1    
   179   90  211 1    
   180   91  212 1    
   181   91  213 1    
   182   91  214 1    
   183   92   93 2    
   184   92   94 am   BACKBONE|DICT|INTERRES
   185   94   95 1    
   186   94  215 1    
   187   95   96 1    
   188   95   97 1    
   189   95  216 1    
   190   96  217 1    
   191   96  218 1    
   192   96  219 1    
   193   97   98 2    
   194   97   99 am   BACKBONE|DICT|INTERRES
   195   99  100 1    
   196   99  220 1    
   197  100  101 1    
   198  100  102 1    
   199  100  221 1    
   200  101  222 1    
   201  101  223 1    
   202  101  224 1    
   203  102  103 2    
   204  102  104 am   BACKBONE|DICT|INTERRES
   205  104  105 1    
   206  104  225 1    
   207  105  106 1    
   208  105  107 1    
   209  105  226 1    
   210  106  227 1    
   211  106  228 1    
   212  106  229 1    
   213  107  108 2    
   214  107  109 am   BACKBONE|DICT|INTERRES
   215  109  110 1    
   216  109  230 1    
   217  110  111 1    
   218  110  112 1    
   219  110  231 1    
   220  111  232 1    
   221  111  233 1    
   222  111  234 1    
   223  112  113 2    
   224  112  114 am   BACKBONE|DICT|INTERRES
   225  114  115 1    
   226  114  235 1    
   227  115  116 1    
   228  115  117 1    
   229  115  236 1    
   230  116  237 1    
   231  116  238 1    
   232  116  239 1    
   233  117  118 2    
   234  117  119 am   BACKBONE|DICT|INTERRES
   235  119  120 1    
   236  119  240 1    
   237  120  121 1    
   238  120  124 1    
   239  120  241 1    
   240  121  122 am   BACKBONE|DICT|INTERRES
   241  121  123 2    
   242  122  242 1    
   243  122  243 1    
   244  124  125 1    
   245  124  244 1    
   246  124  245 1    
   247  125  126 1    
   248  126  246 1    
   249  126  247 1    
@<TRIPOS>SUBSTRUCTURE
     1 UNK         1 GROUP             0       ****    0 ROOT    
