@<TRIPOS>MOLECULE
3R540
247   249    1
SMALL
USER_CHARGES


@<TRIPOS>ATOM
      1 CA          4.8311  -11.2726  -47.1075 C.3       0 UNK        -0.1800 
      2 C           3.7507  -12.3426  -47.0621 C.2       0 UNK         0.5000 
      3 O           3.6148  -13.0302  -46.0508 O.2       0 UNK        -0.5000 
      4 N           2.9734  -12.4770  -48.1452 N.am      1 UNK        -0.5000 
      5 CA          1.8922  -13.4593  -48.3043 C.3       1 UNK         0.1400 
      6 C6          1.2403  -13.3820  -49.7044 C.3       23 UNK        -0.0398 
      7 S7          2.3776  -13.8738  -51.0447 S.3       23 UNK        -0.2404 
      8 C8          2.1462  -15.6828  -51.1065 C.3       23 UNK        -0.0205 
      9 C9          0.7080  -16.0792  -51.4091 C.ar      23 UNK        -0.0193 
     10 C10         0.1969  -15.9571  -52.7043 C.ar      23 UNK        -0.1150 
     11 C11        -1.1320  -16.2953  -52.9758 C.ar      23 UNK        -0.0193 
     12 C12        -1.9492  -16.7621  -51.9412 C.ar      23 UNK        -0.1150 
     13 C13        -1.4476  -16.8961  -50.6429 C.ar      23 UNK        -0.0193 
     14 C14        -0.1172  -16.5552  -50.3859 C.ar      23 UNK        -0.1150 
     15 C15        -2.3427  -17.3845  -49.5124 C.3       23 UNK        -0.0205 
     16 S16        -2.9534  -19.0672  -49.8268 S.3       23 UNK        -0.2404 
     17 C17        -3.4194  -19.6347  -48.1609 C.3       23 UNK        -0.0398 
     18 CA         -2.4634  -20.7496  -47.6771 C.3       11 UNK         0.1400 
     19 N          -1.0946  -20.2599  -47.4920 N.am      11 UNK        -0.5000 
     20 C          -0.0222  -21.0181  -47.2351 C.2       10 UNK         0.5000 
     21 O          -0.0761  -22.2381  -47.0771 O.2       10 UNK        -0.5000 
     22 CA          1.3353  -20.3015  -47.0769 C.3       10 UNK         0.1400 
     23 CB          1.2764  -18.7769  -47.3187 C.3       10 UNK        -0.1800 
     24 N           1.9538  -20.5857  -45.7777 N.am      10 UNK        -0.5000 
     25 C           1.3879  -20.4354  -44.5717 C.2       9 UNK         0.5000 
     26 O           0.2328  -20.0364  -44.3999 O.2       9 UNK        -0.5000 
     27 CA          2.2585  -20.8267  -43.3681 C.3       9 UNK         0.1400 
     28 CB          3.4696  -19.8911  -43.1991 C.3       9 UNK        -0.1800 
     29 N           1.4547  -20.8053  -42.1509 N.am      9 UNK        -0.5000 
     30 C           1.5993  -21.6303  -41.1090 C.2       8 UNK         0.5000 
     31 O           2.4537  -22.5172  -41.0622 O.2       8 UNK        -0.5000 
     32 CA          0.6552  -21.3996  -39.9094 C.3       8 UNK         0.1400 
     33 CB          0.9260  -22.3655  -38.7414 C.3       8 UNK        -0.1800 
     34 N           0.7718  -20.0248  -39.4191 N.am      8 UNK        -0.5000 
     35 C           0.0749  -18.9870  -39.8952 C.2       7 UNK         0.5000 
     36 O          -0.8161  -19.1142  -40.7365 O.2       7 UNK        -0.5000 
     37 CA          0.4481  -17.5922  -39.3550 C.3       7 UNK         0.1400 
     38 CB          1.9652  -17.3356  -39.4328 C.3       7 UNK        -0.1800 
     39 N          -0.2272  -16.5657  -40.1425 N.am      7 UNK        -0.5000 
     40 C          -1.3418  -15.9142  -39.7916 C.2       6 UNK         0.5000 
     41 O          -1.8780  -16.0229  -38.6876 O.2       6 UNK        -0.5000 
     42 CA         -1.9716  -14.9797  -40.8456 C.3       6 UNK         0.1400 
     43 CB         -1.6403  -13.5126  -40.5316 C.3       6 UNK        -0.1800 
     44 N          -1.5438  -15.2889  -42.2121 N.am      6 UNK        -0.5000 
     45 C          -1.9968  -16.3241  -42.9335 C.2       5 UNK         0.5000 
     46 O          -2.9232  -17.0492  -42.5707 O.2       5 UNK        -0.5000 
     47 CA         -1.3064  -16.6048  -44.2846 C.3       5 UNK         0.1400 
     48 CB         -2.1329  -16.0301  -45.4444 C.3       5 UNK        -0.1800 
     49 N           0.0655  -16.0962  -44.3762 N.am      5 UNK        -0.5000 
     50 C           1.0926  -16.5503  -43.6439 C.2       4 UNK         0.5000 
     51 O           0.9854  -17.4180  -42.7815 O.2       4 UNK        -0.5000 
     52 CA          2.4603  -15.8843  -43.8668 C.3       4 UNK         0.1400 
     53 CB          3.0867  -16.3303  -45.1961 C.3       4 UNK        -0.1800 
     54 N           2.3745  -14.4268  -43.8214 N.am      4 UNK        -0.5000 
     55 C           2.0372  -13.7195  -42.7336 C.2       3 UNK         0.5000 
     56 O           1.8183  -14.2186  -41.6301 O.2       3 UNK        -0.5000 
     57 CA          1.8760  -12.2018  -42.9224 C.3       3 UNK         0.1400 
     58 CB          3.2346  -11.4880  -42.8522 C.3       3 UNK        -0.1800 
     59 N           1.2126  -11.8762  -44.1848 N.am      3 UNK        -0.5000 
     60 C          -0.0788  -12.1248  -44.4445 C.2       2 UNK         0.5000 
     61 O          -0.8571  -12.6227  -43.6328 O.2       2 UNK        -0.5000 
     62 CA         -0.5754  -11.7902  -45.8616 C.3       2 UNK         0.1400 
     63 CB         -0.9744  -10.3104  -45.9618 C.3       2 UNK        -0.1800 
     64 N           0.4163  -12.0969  -46.8930 N.am      2 UNK        -0.5000 
     65 C           0.8076  -13.3376  -47.2159 C.2       1 UNK         0.5000 
     66 O           0.3728  -14.3557  -46.6775 O.2       1 UNK        -0.5000 
     67 C          -3.0429  -21.4676  -46.4426 C.2       11 UNK         0.5000 
     68 O          -3.8945  -22.3388  -46.6215 O.2       11 UNK        -0.5000 
     69 N          -2.5712  -21.1329  -45.2324 N.am      12 UNK        -0.5000 
     70 CA         -2.9913  -21.7966  -43.9967 C.3       12 UNK         0.1400 
     71 CB         -2.6307  -20.9203  -42.7903 C.3       12 UNK        -0.1800 
     72 C          -2.3726  -23.1983  -43.8507 C.2       12 UNK         0.5000 
     73 O          -3.0305  -24.0988  -43.3297 O.2       12 UNK        -0.5000 
     74 N          -1.1326  -23.3633  -44.3306 N.am      13 UNK        -0.5000 
     75 CA         -0.4209  -24.6412  -44.3491 C.3       13 UNK         0.1400 
     76 CB          1.0928  -24.3831  -44.3693 C.3       13 UNK        -0.1800 
     77 C          -0.8450  -25.5092  -45.5457 C.2       13 UNK         0.5000 
     78 O          -1.0159  -26.7187  -45.3929 O.2       13 UNK        -0.5000 
     79 N          -1.0226  -24.8716  -46.7105 N.am      14 UNK        -0.5000 
     80 CA         -1.4213  -25.5071  -47.9668 C.3       14 UNK         0.1400 
     81 CB         -1.0458  -24.5715  -49.1281 C.3       14 UNK        -0.1800 
     82 C          -2.9181  -25.8685  -48.0350 C.2       14 UNK         0.5000 
     83 O          -3.3139  -26.5738  -48.9616 O.2       14 UNK        -0.5000 
     84 N          -3.7263  -25.3584  -47.0929 N.am      15 UNK        -0.5000 
     85 CA         -5.1867  -25.4903  -47.0134 C.3       15 UNK         0.1400 
     86 CB         -5.5942  -26.9495  -46.7220 C.3       15 UNK        -0.1800 
     87 C          -5.8799  -24.8965  -48.2579 C.2       15 UNK         0.5000 
     88 O          -6.6982  -25.5564  -48.8999 O.2       15 UNK        -0.5000 
     89 N          -5.4834  -23.6592  -48.5872 N.am      16 UNK        -0.5000 
     90 CA         -5.9077  -22.8332  -49.7241 C.3       16 UNK         0.1400 
     91 CB         -7.4240  -22.5586  -49.6841 C.3       16 UNK        -0.1800 
     92 C          -5.4489  -23.3317  -51.1116 C.2       16 UNK         0.5000 
     93 O          -5.7682  -22.6833  -52.1093 O.2       16 UNK        -0.5000 
     94 N          -4.6636  -24.4186  -51.1805 N.am      17 UNK        -0.5000 
     95 CA         -4.1130  -24.9478  -52.4343 C.3       17 UNK         0.1400 
     96 CB         -3.4815  -26.3255  -52.1933 C.3       17 UNK        -0.1800 
     97 C          -3.1028  -23.9942  -53.1023 C.2       17 UNK         0.5000 
     98 O          -2.9780  -24.0036  -54.3261 O.2       17 UNK        -0.5000 
     99 N          -2.4352  -23.1559  -52.2966 N.am      18 UNK        -0.5000 
    100 CA        -1.5677  -22.0776  -52.7682 C.3       18 UNK         0.1400 
    101 CB        -0.7486  -21.5201  -51.5942 C.3       18 UNK        -0.1800 
    102 C         -2.3577  -20.9727  -53.4966 C.2       18 UNK         0.5000 
    103 O         -1.9363  -20.5428  -54.5672 O.2       18 UNK        -0.5000 
    104 N         -3.5242  -20.5868  -52.9576 N.am      19 UNK        -0.5000 
    105 CA        -4.4419  -19.6341  -53.5905 C.3       19 UNK         0.1400 
    106 CB        -5.5271  -19.1983  -52.5942 C.3       19 UNK        -0.1800 
    107 C         -5.0779  -20.1969  -54.8742 C.2       19 UNK         0.5000 
    108 O         -5.2562  -19.4546  -55.8409 O.2       19 UNK        -0.5000 
    109 N         -5.3634  -21.5068  -54.8832 N.am      20 UNK        -0.5000 
    110 CA        -5.8266  -22.2379  -56.0642 C.3       20 UNK         0.1400 
    111 CB        -6.2691  -23.6513  -55.6581 C.3       20 UNK        -0.1800 
    112 C         -4.7701  -22.2898  -57.1875 C.2       20 UNK         0.5000 
    113 O         -5.1398  -22.2563  -58.3616 O.2       20 UNK        -0.5000 
    114 N         -3.4825  -22.3402  -56.8142 N.am      21 UNK        -0.5000 
    115 CA        -2.3499  -22.2447  -57.7356 C.3       21 UNK         0.1400 
    116 CB        -1.0733  -22.7640  -57.0564 C.3       21 UNK        -0.1800 
    117 C         -2.1541  -20.8171  -58.2839 C.2       21 UNK         0.5000 
    118 O         -1.8079  -20.6749  -59.4578 O.2       21 UNK        -0.5000 
    119 N         -2.3982  -19.7915  -57.4527 N.am      22 UNK        -0.5000 
    120 CA        -2.4555  -18.3796  -57.8766 C.3       22 UNK         0.1400 
    121 C         -3.6137  -18.1021  -58.8762 C.2       22 UNK         0.5000 
    122 N         -4.8253  -18.5652  -58.5926 N.am      22 UNK        -0.7600 
    123 O         -3.4132  -17.4624  -59.9050 O.2       22 UNK        -0.5000 
    124 C124       -2.5625  -17.3835  -56.6930 C.3       23 UNK        -0.0398 
    125 S125       -1.2173  -17.4976  -55.4724 S.3       23 UNK        -0.2404 
    126 C126       -1.6966  -16.1262  -54.3768 C.3       23 UNK        -0.0205 
    127 H127        4.8247  -10.7291  -48.0525 H         1 UNK         0.0600 
    128 H128        5.8133  -11.7281  -46.9826 H         1 UNK         0.0600 
    129 H129        4.6816  -10.5557  -46.3002 H         1 UNK         0.0600 
    130 H130        3.1483  -11.8921  -48.9500 H         1 UNK         0.3000 
    131 H131        2.3383  -14.4494  -48.1888 H         1 UNK         0.0600 
    132 H132        0.9085  -12.3625  -49.9081 H         1 UNK         0.0800 
    133 H133        0.3367  -13.9885  -49.7549 H         1 UNK         0.0800 
    134 H134        2.4756  -16.1195  -50.1624 H         1 UNK         0.0800 
    135 H135        2.8015  -16.0951  -51.8751 H         1 UNK         0.0800 
    136 H136        0.8297  -15.5861  -53.4984 H         1 UNK         0.1150 
    137 H137       -2.9791  -17.0213  -52.1425 H         1 UNK         0.1150 
    138 H138        0.2730  -16.6330  -49.3817 H         1 UNK         0.1150 
    139 H139       -1.7990  -17.3661  -48.5678 H         1 UNK         0.0800 
    140 H140       -3.1899  -16.7070  -49.3988 H         1 UNK         0.0800 
    141 H141       -4.4464  -19.9995  -48.2218 H         1 UNK         0.0800 
    142 H142       -3.4357  -18.7979  -47.4605 H         1 UNK         0.0800 
    143 H143       -2.4194  -21.5074  -48.4613 H         1 UNK         0.0600 
    144 H144       -0.9608  -19.2655  -47.5875 H         1 UNK         0.3000 
    145 H145        1.9897  -20.7320  -47.8360 H         1 UNK         0.0600 
    146 H146        0.8697  -18.5549  -48.3048 H         1 UNK         0.0600 
    147 H147        0.6692  -18.2605  -46.5737 H         1 UNK         0.0600 
    148 H148        2.2755  -18.3437  -47.2892 H         1 UNK         0.0600 
    149 H149        2.8905  -20.9609  -45.8228 H         1 UNK         0.3000 
    150 H150        2.6212  -21.8393  -43.5520 H         1 UNK         0.0600 
    151 H151        4.0878  -19.8685  -44.0970 H         1 UNK         0.0600 
    152 H152        4.1070  -20.2218  -42.3789 H         1 UNK         0.0600 
    153 H153        3.1630  -18.8683  -42.9851 H         1 UNK         0.0600 
    154 H154        0.7115  -20.1126  -42.1466 H         1 UNK         0.3000 
    155 H155       -0.3628  -21.5857  -40.2589 H         1 UNK         0.0600 
    156 H156        1.9343  -22.2458  -38.3431 H         1 UNK         0.0600 
    157 H157        0.8175  -23.4034  -39.0587 H         1 UNK         0.0600 
    158 H158        0.2219  -22.2024  -37.9252 H         1 UNK         0.0600 
    159 H159        1.5079  -19.8525  -38.7499 H         1 UNK         0.3000 
    160 H160        0.1364  -17.5391  -38.3102 H         1 UNK         0.0600 
    161 H161        2.3515  -17.4997  -40.4397 H         1 UNK         0.0600 
    162 H162        2.5173  -17.9885  -38.7566 H         1 UNK         0.0600 
    163 H163        2.2042  -16.3096  -39.1515 H         1 UNK         0.0600 
    164 H164        0.0915  -16.4902  -41.1017 H         1 UNK         0.3000 
    165 H165       -3.0551  -15.1005  -40.7839 H         1 UNK         0.0600 
    166 H166       -2.1565  -12.8377  -41.2144 H         1 UNK         0.0600 
    167 H167       -1.9505  -13.2482  -39.5200 H         1 UNK         0.0600 
    168 H168       -0.5708  -13.3156  -40.6095 H         1 UNK         0.0600 
    169 H169       -0.8277  -14.6949  -42.6097 H         1 UNK         0.3000 
    170 H170       -1.2634  -17.6896  -44.4035 H         1 UNK         0.0600 
    171 H171       -3.1491  -16.4260  -45.4371 H         1 UNK         0.0600 
    172 H172       -2.2003  -14.9430  -45.3853 H         1 UNK         0.0600 
    173 H173       -1.6902  -16.2850  -46.4066 H         1 UNK         0.0600 
    174 H174        0.2366  -15.3832  -45.0811 H         1 UNK         0.3000 
    175 H175        3.1223  -16.2040  -43.0592 H         1 UNK         0.0600 
    176 H176        2.4789  -16.0333  -46.0511 H         1 UNK         0.0600 
    177 H177        4.0792  -15.8992  -45.3277 H         1 UNK         0.0600 
    178 H178        3.1960  -17.4148  -45.2277 H         1 UNK         0.0600 
    179 H179        2.5959  -13.9282  -44.6789 H         1 UNK         0.3000 
    180 H180        1.2550  -11.8283  -42.1052 H         1 UNK         0.0600 
    181 H181        3.1166  -10.4072  -42.9303 H         1 UNK         0.0600 
    182 H182        3.9053  -11.8107  -43.6489 H         1 UNK         0.0600 
    183 H183        3.7319  -11.6927  -41.9033 H         1 UNK         0.0600 
    184 H184        1.7949  -11.5125  -44.9243 H         1 UNK         0.3000 
    185 H185       -1.4634  -12.3966  -46.0532 H         1 UNK         0.0600 
    186 H186       -1.4002  -10.0822  -46.9391 H         1 UNK         0.0600 
    187 H187       -1.7274  -10.0585  -45.2138 H         1 UNK         0.0600 
    188 H188       -0.1210   -9.6498  -45.8041 H         1 UNK         0.0600 
    189 H189        0.8366  -11.3137  -47.3717 H         1 UNK         0.3000 
    190 H190       -1.8247  -20.4522  -45.1527 H         1 UNK         0.3000 
    191 H191       -4.0776  -21.9091  -44.0157 H         1 UNK         0.0600 
    192 H192       -3.0175  -21.3497  -41.8655 H         1 UNK         0.0600 
    193 H193       -3.0498  -19.9184  -42.8845 H         1 UNK         0.0600 
    194 H194       -1.5524  -20.8209  -42.6739 H         1 UNK         0.0600 
    195 H195       -0.6847  -22.5819  -44.7893 H         1 UNK         0.3000 
    196 H196       -0.6532  -25.1943  -43.4363 H         1 UNK         0.0600 
    197 H197        1.3899  -23.7683  -45.2197 H         1 UNK         0.0600 
    198 H198        1.4116  -23.8797  -43.4574 H         1 UNK         0.0600 
    199 H199        1.6484  -25.3197  -44.4302 H         1 UNK         0.0600 
    200 H200       -0.7913  -23.8816  -46.7640 H         1 UNK         0.3000 
    201 H201       -0.8557  -26.4343  -48.0794 H         1 UNK         0.0600 
    202 H202        0.0126  -24.3118  -49.0994 H         1 UNK         0.0600 
    203 H203       -1.6173  -23.6444  -49.0974 H         1 UNK         0.0600 
    204 H204       -1.2327  -25.0439  -50.0919 H         1 UNK         0.0600 
    205 H205       -3.3075  -24.7493  -46.4041 H         1 UNK         0.3000 
    206 H206       -5.5053  -24.8837  -46.1642 H         1 UNK         0.0600 
    207 H207       -5.0971  -27.3250  -45.8276 H         1 UNK         0.0600 
    208 H208       -6.6688  -27.0266  -46.5531 H         1 UNK         0.0600 
    209 H209       -5.3457  -27.6163  -47.5482 H         1 UNK         0.0600 
    210 H210       -4.8243  -23.2137  -47.9514 H         1 UNK         0.3000 
    211 H211       -5.4065  -21.8747  -49.5848 H         1 UNK         0.0600 
    212 H212       -7.7065  -21.8155  -50.4310 H         1 UNK         0.0600 
    213 H213       -7.7294  -22.1710  -48.7122 H         1 UNK         0.0600 
    214 H214       -8.0063  -23.4577  -49.8867 H         1 UNK         0.0600 
    215 H215       -4.4606  -24.9359  -50.3355 H         1 UNK         0.3000 
    216 H216       -4.9459  -25.0817  -53.1269 H         1 UNK         0.0600 
    217 H217       -2.6067  -26.2636  -51.5473 H         1 UNK         0.0600 
    218 H218       -3.1596  -26.7742  -53.1339 H         1 UNK         0.0600 
    219 H219       -4.1923  -27.0117  -51.7323 H         1 UNK         0.0600 
    220 H220       -2.5946  -23.2187  -51.3038 H         1 UNK         0.3000 
    221 H221       -0.8654  -22.5000  -53.4904 H         1 UNK         0.0600 
    222 H222       -0.0318  -22.2579  -51.2333 H         1 UNK         0.0600 
    223 H223       -1.3818  -21.2413  -50.7546 H         1 UNK         0.0600 
    224 H224       -0.1839  -20.6350  -51.8911 H         1 UNK         0.0600 
    225 H225       -3.8326  -21.0086  -52.0955 H         1 UNK         0.3000 
    226 H226       -3.8669  -18.7490  -53.8704 H         1 UNK         0.0600 
    227 H227       -6.0976  -20.0461  -52.2154 H         1 UNK         0.0600 
    228 H228       -5.0968  -18.6740  -51.7426 H         1 UNK         0.0600 
    229 H229       -6.2339  -18.5137  -53.0648 H         1 UNK         0.0600 
    230 H230       -5.2497  -22.0337  -54.0244 H         1 UNK         0.3000 
    231 H231       -6.6998  -21.7117  -56.4554 H         1 UNK         0.0600 
    232 H232       -5.4270  -24.2599  -55.3320 H         1 UNK         0.0600 
    233 H233       -6.7345  -24.1667  -56.4990 H         1 UNK         0.0600 
    234 H234       -6.9986  -23.6224  -54.8484 H         1 UNK         0.0600 
    235 H235       -3.2629  -22.4253  -55.8295 H         1 UNK         0.3000 
    236 H236       -2.5560  -22.8973  -58.5866 H         1 UNK         0.0600 
    237 H237       -0.7751  -22.1416  -56.2140 H         1 UNK         0.0600 
    238 H238       -1.2078  -23.7816  -56.6892 H         1 UNK         0.0600 
    239 H239       -0.2399  -22.7788  -57.7597 H         1 UNK         0.0600 
    240 H240       -2.5912  -19.9843  -56.4765 H         1 UNK         0.3000 
    241 H241       -1.5213  -18.1656  -58.3993 H         1 UNK         0.0600 
    242 H242       -5.5865  -18.3986  -59.2309 H         1 UNK         0.3800 
    243 H243       -5.0007  -19.0315  -57.7067 H         1 UNK         0.3800 
    244 H244       -3.5072  -17.5208  -56.1660 H         1 UNK         0.0800 
    245 H245       -2.5738  -16.3591  -57.0707 H         1 UNK         0.0800 
    246 H246       -1.3501  -15.1849  -54.8060 H         1 UNK         0.0800 
    247 H247       -2.7845  -16.0566  -54.3270 H         1 UNK         0.0800 
@<TRIPOS>BOND
     1    1    2 1    
     2    1  127 1    
     3    1  128 1    
     4    1  129 1    
     5    2    3 2    
     6    2    4 am   BACKBONE|DICT|INTERRES
     7    4    5 1    
     8    4  130 1    
     9    5    6 1    
    10    5   65 1    
    11    5  131 1    
    12    6    7 1    
    13    6  132 1    
    14    6  133 1    
    15    7    8 1    
    16    8    9 1    
    17    8  134 1    
    18    8  135 1    
    19    9   10 ar   
    20    9   14 ar   
    21   10   11 ar   
    22   10  136 1    
    23   11   12 ar   
    24   11  126 1    
    25   12   13 ar   
    26   12  137 1    
    27   13   14 ar   
    28   13   15 1    
    29   14  138 1    
    30   15   16 1    
    31   15  139 1    
    32   15  140 1    
    33   16   17 1    
    34   17   18 1    
    35   17  141 1    
    36   17  142 1    
    37   18   19 1    
    38   18   67 1    
    39   18  143 1    
    40   19   20 am   BACKBONE|DICT|INTERRES
    41   19  144 1    
    42   20   21 2    
    43   20   22 1    
    44   22   23 1    
    45   22   24 1    
    46   22  145 1    
    47   23  146 1    
    48   23  147 1    
    49   23  148 1    
    50   24   25 am   BACKBONE|DICT|INTERRES
    51   24  149 1    
    52   25   26 2    
    53   25   27 1    
    54   27   28 1    
    55   27   29 1    
    56   27  150 1    
    57   28  151 1    
    58   28  152 1    
    59   28  153 1    
    60   29   30 am   BACKBONE|DICT|INTERRES
    61   29  154 1    
    62   30   31 2    
    63   30   32 1    
    64   32   33 1    
    65   32   34 1    
    66   32  155 1    
    67   33  156 1    
    68   33  157 1    
    69   33  158 1    
    70   34   35 am   BACKBONE|DICT|INTERRES
    71   34  159 1    
    72   35   36 2    
    73   35   37 1    
    74   37   38 1    
    75   37   39 1    
    76   37  160 1    
    77   38  161 1    
    78   38  162 1    
    79   38  163 1    
    80   39   40 am   BACKBONE|DICT|INTERRES
    81   39  164 1    
    82   40   41 2    
    83   40   42 1    
    84   42   43 1    
    85   42   44 1    
    86   42  165 1    
    87   43  166 1    
    88   43  167 1    
    89   43  168 1    
    90   44   45 am   BACKBONE|DICT|INTERRES
    91   44  169 1    
    92   45   46 2    
    93   45   47 1    
    94   47   48 1    
    95   47   49 1    
    96   47  170 1    
    97   48  171 1    
    98   48  172 1    
    99   48  173 1    
   100   49   50 am   BACKBONE|DICT|INTERRES
   101   49  174 1    
   102   50   51 2    
   103   50   52 1    
   104   52   53 1    
   105   52   54 1    
   106   52  175 1    
   107   53  176 1    
   108   53  177 1    
   109   53  178 1    
   110   54   55 am   BACKBONE|DICT|INTERRES
   111   54  179 1    
   112   55   56 2    
   113   55   57 1    
   114   57   58 1    
   115   57   59 1    
   116   57  180 1    
   117   58  181 1    
   118   58  182 1    
   119   58  183 1    
   120   59   60 am   BACKBONE|DICT|INTERRES
   121   59  184 1    
   122   60   61 2    
   123   60   62 1    
   124   62   63 1    
   125   62   64 1    
   126   62  185 1    
   127   63  186 1    
   128   63  187 1    
   129   63  188 1    
   130   64   65 am   BACKBONE|DICT|INTERRES
   131   64  189 1    
   132   65   66 2    
   133   67   68 2    
   134   67   69 am   BACKBONE|DICT|INTERRES
   135   69   70 1    
   136   69  190 1    
   137   70   71 1    
   138   70   72 1    
   139   70  191 1    
   140   71  192 1    
   141   71  193 1    
   142   71  194 1    
   143   72   73 2    
   144   72   74 am   BACKBONE|DICT|INTERRES
   145   74   75 1    
   146   74  195 1    
   147   75   76 1    
   148   75   77 1    
   149   75  196 1    
   150   76  197 1    
   151   76  198 1    
   152   76  199 1    
   153   77   78 2    
   154   77   79 am   BACKBONE|DICT|INTERRES
   155   79   80 1    
   156   79  200 1    
   157   80   81 1    
   158   80   82 1    
   159   80  201 1    
   160   81  202 1    
   161   81  203 1    
   162   81  204 1    
   163   82   83 2    
   164   82   84 am   BACKBONE|DICT|INTERRES
   165   84   85 1    
   166   84  205 1    
   167   85   86 1    
   168   85   87 1    
   169   85  206 1    
   170   86  207 1    
   171   86  208 1    
   172   86  209 1    
   173   87   88 2    
   174   87   89 am   BACKBONE|DICT|INTERRES
   175   89   90 1    
   176   89  210 1    
   177   90   91 1    
   178   90   92 1    
   179   90  211 1    
   180   91  212 1    
   181   91  213 1    
   182   91  214 1    
   183   92   93 2    
   184   92   94 am   BACKBONE|DICT|INTERRES
   185   94   95 1    
   186   94  215 1    
   187   95   96 1    
   188   95   97 1    
   189   95  216 1    
   190   96  217 1    
   191   96  218 1    
   192   96  219 1    
   193   97   98 2    
   194   97   99 am   BACKBONE|DICT|INTERRES
   195   99  100 1    
   196   99  220 1    
   197  100  101 1    
   198  100  102 1    
   199  100  221 1    
   200  101  222 1    
   201  101  223 1    
   202  101  224 1    
   203  102  103 2    
   204  102  104 am   BACKBONE|DICT|INTERRES
   205  104  105 1    
   206  104  225 1    
   207  105  106 1    
   208  105  107 1    
   209  105  226 1    
   210  106  227 1    
   211  106  228 1    
   212  106  229 1    
   213  107  108 2    
   214  107  109 am   BACKBONE|DICT|INTERRES
   215  109  110 1    
   216  109  230 1    
   217  110  111 1    
   218  110  112 1    
   219  110  231 1    
   220  111  232 1    
   221  111  233 1    
   222  111  234 1    
   223  112  113 2    
   224  112  114 am   BACKBONE|DICT|INTERRES
   225  114  115 1    
   226  114  235 1    
   227  115  116 1    
   228  115  117 1    
   229  115  236 1    
   230  116  237 1    
   231  116  238 1    
   232  116  239 1    
   233  117  118 2    
   234  117  119 am   BACKBONE|DICT|INTERRES
   235  119  120 1    
   236  119  240 1    
   237  120  121 1    
   238  120  124 1    
   239  120  241 1    
   240  121  122 am   BACKBONE|DICT|INTERRES
   241  121  123 2    
   242  122  242 1    
   243  122  243 1    
   244  124  125 1    
   245  124  244 1    
   246  124  245 1    
   247  125  126 1    
   248  126  246 1    
   249  126  247 1    
@<TRIPOS>SUBSTRUCTURE
     1 UNK         1 GROUP             0       ****    0 ROOT    
