@<TRIPOS>MOLECULE
3R540
247   249    1
SMALL
USER_CHARGES


@<TRIPOS>ATOM
      1 CA          3.3855   -9.1856  -47.1977 C.3       0 UNK        -0.1800 
      2 C           3.7025  -10.6380  -47.5229 C.2       0 UNK         0.5000 
      3 O           4.8702  -10.9884  -47.6964 O.2       0 UNK        -0.5000 
      4 N           2.6729  -11.4906  -47.5906 N.am      1 UNK        -0.5000 
      5 CA          2.7485  -12.9214  -47.9179 C.3       1 UNK         0.1400 
      6 C6          1.3997  -13.4476  -48.4752 C.3       23 UNK        -0.0398 
      7 S7          1.0196  -12.7636  -50.1233 S.3       23 UNK        -0.2404 
      8 C8          1.8762  -13.9447  -51.2201 C.3       23 UNK        -0.0205 
      9 C9          1.2209  -15.3188  -51.2174 C.ar      23 UNK        -0.0193 
     10 C10         0.0742  -15.5495  -51.9830 C.ar      23 UNK        -0.1150 
     11 C11        -0.5498  -16.8004  -51.9741 C.ar      23 UNK        -0.0193 
     12 C12        -0.0116  -17.8227  -51.1831 C.ar      23 UNK        -0.1150 
     13 C13         1.1326  -17.6068  -50.4102 C.ar      23 UNK        -0.0193 
     14 C14         1.7538  -16.3561  -50.4450 C.ar      23 UNK        -0.1150 
     15 C15         1.6955  -18.7212  -49.5370 C.3       23 UNK        -0.0205 
     16 S16         1.1608  -18.5739  -47.7979 S.3       23 UNK        -0.2404 
     17 C17        -0.5995  -19.0381  -47.9141 C.3       23 UNK        -0.0398 
     18 CA         -0.9698  -20.2878  -47.0831 C.3       11 UNK         0.1400 
     19 N          -0.9035  -20.0550  -45.6285 N.am      11 UNK        -0.5000 
     20 C          -1.2208  -20.9514  -44.6760 C.2       10 UNK         0.5000 
     21 O          -1.6023  -22.0982  -44.9128 O.2       10 UNK        -0.5000 
     22 CA         -1.1848  -20.4764  -43.2169 C.3       10 UNK         0.1400 
     23 CB          0.2441  -20.4568  -42.6599 C.3       10 UNK        -0.1800 
     24 N          -1.8089  -19.1611  -43.0880 N.am      10 UNK        -0.5000 
     25 C          -3.1225  -18.9816  -42.8854 C.2       9 UNK         0.5000 
     26 O          -3.9060  -19.9007  -42.6479 O.2       9 UNK        -0.5000 
     27 CA         -3.6715  -17.5452  -42.9811 C.3       9 UNK         0.1400 
     28 CB         -3.8731  -16.9460  -41.5812 C.3       9 UNK        -0.1800 
     29 N          -2.8281  -16.6535  -43.7786 N.am      9 UNK        -0.5000 
     30 C          -2.7084  -16.7188  -45.1132 C.2       8 UNK         0.5000 
     31 O          -3.3013  -17.5418  -45.8114 O.2       8 UNK        -0.5000 
     32 CA         -1.7247  -15.7317  -45.7753 C.3       8 UNK         0.1400 
     33 CB         -2.4427  -14.4287  -46.1546 C.3       8 UNK        -0.1800 
     34 N          -0.5545  -15.4137  -44.9548 N.am      8 UNK        -0.5000 
     35 C           0.3114  -16.3051  -44.4537 C.2       7 UNK         0.5000 
     36 O           0.1995  -17.5244  -44.6088 O.2       7 UNK        -0.5000 
     37 CA          1.4669  -15.7615  -43.5875 C.3       7 UNK         0.1400 
     38 CB          1.4252  -14.2349  -43.3411 C.3       7 UNK        -0.1800 
     39 N           1.5582  -16.4771  -42.3148 N.am      7 UNK        -0.5000 
     40 C           0.5971  -16.5951  -41.3858 C.2       6 UNK         0.5000 
     41 O          -0.5078  -16.0585  -41.4791 O.2       6 UNK        -0.5000 
     42 CA          0.9187  -17.4755  -40.1639 C.3       6 UNK         0.1400 
     43 CB         -0.3347  -18.1702  -39.5995 C.3       6 UNK        -0.1800 
     44 N           1.9276  -18.4840  -40.5008 N.am      6 UNK        -0.5000 
     45 C           3.1176  -18.6142  -39.9050 C.2       5 UNK         0.5000 
     46 O           3.4855  -17.9316  -38.9482 O.2       5 UNK        -0.5000 
     47 CA          4.0722  -19.6816  -40.4783 C.3       5 UNK         0.1400 
     48 CB          3.8693  -21.0171  -39.7458 C.3       5 UNK        -0.1800 
     49 N           3.9905  -19.9209  -41.9268 N.am      5 UNK        -0.5000 
     50 C           4.1262  -19.0019  -42.8929 C.2       4 UNK         0.5000 
     51 O           4.1388  -17.7843  -42.6894 O.2       4 UNK        -0.5000 
     52 CA          4.2909  -19.5389  -44.3248 C.3       4 UNK         0.1400 
     53 CB          2.9906  -20.1414  -44.8809 C.3       4 UNK        -0.1800 
     54 N           4.7165  -18.4472  -45.1909 N.am      4 UNK        -0.5000 
     55 C           5.5748  -18.5381  -46.2115 C.2       3 UNK         0.5000 
     56 O           6.1070  -19.5924  -46.5619 O.2       3 UNK        -0.5000 
     57 CA          5.8938  -17.2398  -46.9787 C.3       3 UNK         0.1400 
     58 CB          5.3750  -17.3229  -48.4225 C.3       3 UNK        -0.1800 
     59 N           5.2986  -16.0572  -46.3572 N.am      3 UNK        -0.5000 
     60 C           5.8864  -15.2484  -45.4699 C.2       2 UNK         0.5000 
     61 O           7.0300  -15.4246  -45.0471 O.2       2 UNK        -0.5000 
     62 CA          5.0523  -14.0331  -44.9981 C.3       2 UNK         0.1400 
     63 CB          5.8914  -12.9967  -44.2304 C.3       2 UNK        -0.1800 
     64 N           4.3648  -13.3523  -46.1015 N.am      2 UNK        -0.5000 
     65 C           3.2648  -13.7758  -46.7359 C.2       1 UNK         0.5000 
     66 O           2.6911  -14.8215  -46.4309 O.2       1 UNK        -0.5000 
     67 C          -2.3449  -20.8089  -47.5523 C.2       11 UNK         0.5000 
     68 O          -2.3940  -21.6148  -48.4838 O.2       11 UNK        -0.5000 
     69 N          -3.4188  -20.3791  -46.8718 N.am      12 UNK        -0.5000 
     70 CA         -4.7999  -20.8416  -47.0208 C.3       12 UNK         0.1400 
     71 CB         -5.6309  -20.3048  -45.8460 C.3       12 UNK        -0.1800 
     72 C          -4.9412  -22.3718  -47.1194 C.2       12 UNK         0.5000 
     73 O          -5.6505  -22.8528  -48.0046 O.2       12 UNK        -0.5000 
     74 N          -4.2205  -23.0871  -46.2462 N.am      13 UNK        -0.5000 
     75 CA         -4.1605  -24.5445  -46.2111 C.3       13 UNK         0.1400 
     76 CB         -4.3260  -25.0153  -44.7578 C.3       13 UNK        -0.1800 
     77 C          -2.8407  -25.0735  -46.7962 C.2       13 UNK         0.5000 
     78 O          -2.8688  -26.0461  -47.5494 O.2       13 UNK        -0.5000 
     79 N          -1.7107  -24.4401  -46.4458 N.am      14 UNK        -0.5000 
     80 CA         -0.3590  -24.9117  -46.7634 C.3       14 UNK         0.1400 
     81 CB          0.6696  -24.1197  -45.9403 C.3       14 UNK        -0.1800 
     82 C          -0.0094  -24.8472  -48.2595 C.2       14 UNK         0.5000 
     83 O           0.6946  -25.7299  -48.7513 O.2       14 UNK        -0.5000 
     84 N          -0.5129  -23.8184  -48.9514 N.am      15 UNK        -0.5000 
     85 CA         -0.3599  -23.6318  -50.3951 C.3       15 UNK         0.1400 
     86 CB          0.1539  -22.2066  -50.6596 C.3       15 UNK        -0.1800 
     87 C          -1.6803  -23.8890  -51.1433 C.2       15 UNK         0.5000 
     88 O          -1.6940  -23.7907  -52.3686 O.2       15 UNK        -0.5000 
     89 N          -2.7560  -24.2052  -50.4028 N.am      16 UNK        -0.5000 
     90 CA         -4.1362  -24.3989  -50.8620 C.3       16 UNK         0.1400 
     91 CB         -4.2288  -25.5933  -51.8346 C.3       16 UNK        -0.1800 
     92 C          -4.7645  -23.1070  -51.4296 C.2       16 UNK         0.5000 
     93 O          -5.6191  -23.1701  -52.3205 O.2       16 UNK        -0.5000 
     94 N          -4.3336  -21.9510  -50.9007 N.am      17 UNK        -0.5000 
     95 CA         -4.7282  -20.6193  -51.3646 C.3       17 UNK         0.1400 
     96 CB         -3.8459  -19.5608  -50.6873 C.3       17 UNK        -0.1800 
     97 C          -6.2173  -20.2953  -51.1474 C.2       17 UNK         0.5000 
     98 O          -6.7823  -19.5090  -51.9070 O.2       17 UNK        -0.5000 
     99 N          -6.8333  -20.9057  -50.1254 N.am      18 UNK        -0.5000 
    100 CA        -8.2630  -20.7664  -49.8452 C.3       18 UNK         0.1400 
    101 CB        -8.5024  -20.9270  -48.3371 C.3       18 UNK        -0.1800 
    102 C         -9.1144  -21.7721  -50.6403 C.2       18 UNK         0.5000 
    103 O        -10.3220  -21.5649  -50.7665 O.2       18 UNK        -0.5000 
    104 N         -8.4879  -22.8433  -51.1468 N.am      19 UNK        -0.5000 
    105 CA        -9.1526  -23.8952  -51.9078 C.3       19 UNK         0.1400 
    106 CB        -8.4040  -25.2241  -51.7264 C.3       19 UNK        -0.1800 
    107 C         -9.2701  -23.5214  -53.3922 C.2       19 UNK         0.5000 
    108 O        -10.3790  -23.5556  -53.9284 O.2       19 UNK        -0.5000 
    109 N         -8.1413  -23.1744  -54.0302 N.am      20 UNK        -0.5000 
    110 CA        -8.0904  -22.8898  -55.4692 C.3       20 UNK         0.1400 
    111 CB        -8.2878  -24.1912  -56.2772 C.3       20 UNK        -0.1800 
    112 C         -6.8041  -22.1925  -55.9437 C.2       20 UNK         0.5000 
    113 O         -6.8379  -21.5659  -57.0048 O.2       20 UNK        -0.5000 
    114 N         -5.6862  -22.3421  -55.2199 N.am      21 UNK        -0.5000 
    115 CA        -4.3729  -21.8698  -55.6684 C.3       21 UNK         0.1400 
    116 CB        -3.2890  -22.5630  -54.8327 C.3       21 UNK        -0.1800 
    117 C         -4.2078  -20.3406  -55.5816 C.2       21 UNK         0.5000 
    118 O         -4.9455  -19.6852  -54.8443 O.2       21 UNK        -0.5000 
    119 N         -3.2060  -19.8318  -56.3149 N.am      22 UNK        -0.5000 
    120 CA        -2.5851  -18.4854  -56.2959 C.3       22 UNK         0.1400 
    121 C         -3.4859  -17.2104  -56.3468 C.2       22 UNK         0.5000 
    122 N         -4.7984  -17.2991  -56.2070 N.am      22 UNK        -0.7600 
    123 O         -2.9778  -16.1136  -56.5643 O.2       22 UNK        -0.5000 
    124 C124       -1.4471  -18.3685  -55.2395 C.3       23 UNK        -0.0398 
    125 S125       -1.9854  -18.6583  -53.5211 S.3       23 UNK        -0.2404 
    126 C126       -1.8418  -17.0061  -52.7610 C.3       23 UNK        -0.0205 
    127 H127        3.7320   -8.5372  -48.0025 H         1 UNK         0.0600 
    128 H128        3.8894   -8.8886  -46.2779 H         1 UNK         0.0600 
    129 H129        2.3153   -9.0234  -47.0674 H         1 UNK         0.0600 
    130 H130        1.7415  -11.1384  -47.4219 H         1 UNK         0.3000 
    131 H131        3.4961  -13.0459  -48.7039 H         1 UNK         0.0600 
    132 H132        1.3831  -14.5342  -48.5424 H         1 UNK         0.0800 
    133 H133        0.5846  -13.1915  -47.7968 H         1 UNK         0.0800 
    134 H134        1.8713  -13.5457  -52.2354 H         1 UNK         0.0800 
    135 H135        2.9256  -14.0191  -50.9315 H         1 UNK         0.0800 
    136 H136       -0.3430  -14.7440  -52.5712 H         1 UNK         0.1150 
    137 H137       -0.4922  -18.7895  -51.1603 H         1 UNK         0.1150 
    138 H138        2.6389  -16.1842  -49.8491 H         1 UNK         0.1150 
    139 H139        1.4024  -19.6950  -49.9273 H         1 UNK         0.0800 
    140 H140        2.7842  -18.7030  -49.5798 H         1 UNK         0.0800 
    141 H141       -1.2088  -18.1883  -47.6139 H         1 UNK         0.0800 
    142 H142       -0.8383  -19.2078  -48.9630 H         1 UNK         0.0800 
    143 H143       -0.2465  -21.0725  -47.3120 H         1 UNK         0.0600 
    144 H144       -0.5642  -19.1408  -45.3408 H         1 UNK         0.3000 
    145 H145       -1.7429  -21.2088  -42.6293 H         1 UNK         0.0600 
    146 H146        0.7794  -21.3689  -42.9259 H         1 UNK         0.0600 
    147 H147        0.8140  -19.6073  -43.0321 H         1 UNK         0.0600 
    148 H148        0.2303  -20.4116  -41.5725 H         1 UNK         0.0600 
    149 H149       -1.2392  -18.3602  -43.3339 H         1 UNK         0.3000 
    150 H150       -4.6492  -17.6036  -43.4644 H         1 UNK         0.0600 
    151 H151       -4.5691  -17.5496  -40.9972 H         1 UNK         0.0600 
    152 H152       -4.2854  -15.9385  -41.6369 H         1 UNK         0.0600 
    153 H153       -2.9389  -16.8976  -41.0227 H         1 UNK         0.0600 
    154 H154       -2.2624  -15.9883  -43.2680 H         1 UNK         0.3000 
    155 H155       -1.3570  -16.1871  -46.6942 H         1 UNK         0.0600 
    156 H156       -1.7838  -13.7618  -46.7110 H         1 UNK         0.0600 
    157 H157       -2.7982  -13.8935  -45.2732 H         1 UNK         0.0600 
    158 H158       -3.3077  -14.6300  -46.7880 H         1 UNK         0.0600 
    159 H159       -0.3986  -14.4372  -44.7545 H         1 UNK         0.3000 
    160 H160        2.3839  -15.9944  -44.1279 H         1 UNK         0.0600 
    161 H161        0.5269  -13.9282  -42.8045 H         1 UNK         0.0600 
    162 H162        1.4605  -13.6761  -44.2762 H         1 UNK         0.0600 
    163 H163        2.2838  -13.9154  -42.7504 H         1 UNK         0.0600 
    164 H164        2.4351  -16.9674  -42.1673 H         1 UNK         0.3000 
    165 H165        1.2985  -16.7984  -39.3966 H         1 UNK         0.0600 
    166 H166       -0.8540  -18.7551  -40.3577 H         1 UNK         0.0600 
    167 H167       -0.0799  -18.8365  -38.7753 H         1 UNK         0.0600 
    168 H168       -1.0447  -17.4377  -39.2140 H         1 UNK         0.0600 
    169 H169        1.7217  -19.0803  -41.2887 H         1 UNK         0.3000 
    170 H170        5.0877  -19.3370  -40.2733 H         1 UNK         0.0600 
    171 H171        3.9479  -20.8887  -38.6653 H         1 UNK         0.0600 
    172 H172        2.8875  -21.4440  -39.9548 H         1 UNK         0.0600 
    173 H173        4.6235  -21.7479  -40.0384 H         1 UNK         0.0600 
    174 H174        3.9704  -20.8929  -42.2000 H         1 UNK         0.3000 
    175 H175        5.0633  -20.3104  -44.2984 H         1 UNK         0.0600 
    176 H176        2.6597  -20.9899  -44.2836 H         1 UNK         0.0600 
    177 H177        2.1865  -19.4059  -44.9064 H         1 UNK         0.0600 
    178 H178        3.1312  -20.5054  -45.8989 H         1 UNK         0.0600 
    179 H179        4.3881  -17.5338  -44.9101 H         1 UNK         0.3000 
    180 H180        6.9802  -17.1352  -47.0091 H         1 UNK         0.0600 
    181 H181        4.2877  -17.3862  -48.4447 H         1 UNK         0.0600 
    182 H182        5.7703  -18.1990  -48.9382 H         1 UNK         0.0600 
    183 H183        5.6704  -16.4458  -48.9984 H         1 UNK         0.0600 
    184 H184        4.3394  -15.8440  -46.6132 H         1 UNK         0.3000 
    185 H185        4.3003  -14.4198  -44.3086 H         1 UNK         0.0600 
    186 H186        5.2704  -12.1755  -43.8719 H         1 UNK         0.0600 
    187 H187        6.3682  -13.4442  -43.3574 H         1 UNK         0.0600 
    188 H188        6.6776  -12.5739  -44.8571 H         1 UNK         0.0600 
    189 H189        4.8022  -12.5073  -46.4564 H         1 UNK         0.3000 
    190 H190       -3.2730  -19.6502  -46.1829 H         1 UNK         0.3000 
    191 H191       -5.1988  -20.4102  -47.9372 H         1 UNK         0.0600 
    192 H192       -6.6618  -20.6561  -45.8938 H         1 UNK         0.0600 
    193 H193       -5.6565  -19.2149  -45.8455 H         1 UNK         0.0600 
    194 H194       -5.2249  -20.6303  -44.8882 H         1 UNK         0.0600 
    195 H195       -3.6124  -22.5932  -45.6045 H         1 UNK         0.3000 
    196 H196       -4.9783  -24.9712  -46.7960 H         1 UNK         0.0600 
    197 H197       -4.2825  -26.1032  -44.6912 H         1 UNK         0.0600 
    198 H198       -5.2884  -24.7032  -44.3520 H         1 UNK         0.0600 
    199 H199       -3.5447  -24.6137  -44.1108 H         1 UNK         0.0600 
    200 H200       -1.7615  -23.6272  -45.8350 H         1 UNK         0.3000 
    201 H201       -0.2965  -25.9584  -46.4583 H         1 UNK         0.0600 
    202 H202        0.4645  -24.1954  -44.8723 H         1 UNK         0.0600 
    203 H203        0.6735  -23.0626  -46.2064 H         1 UNK         0.0600 
    204 H204        1.6781  -24.5010  -46.1052 H         1 UNK         0.0600 
    205 H205       -1.1039  -23.1411  -48.4817 H         1 UNK         0.3000 
    206 H206        0.3742  -24.3316  -50.7991 H         1 UNK         0.0600 
    207 H207        1.0903  -22.0290  -50.1313 H         1 UNK         0.0600 
    208 H208        0.3464  -22.0501  -51.7217 H         1 UNK         0.0600 
    209 H209       -0.5625  -21.4481  -50.3455 H         1 UNK         0.0600 
    210 H210       -2.6162  -24.2902  -49.4066 H         1 UNK         0.3000 
    211 H211       -4.7163  -24.6528  -49.9738 H         1 UNK         0.0600 
    212 H212       -3.7822  -25.3656  -52.8028 H         1 UNK         0.0600 
    213 H213       -5.2641  -25.8764  -52.0151 H         1 UNK         0.0600 
    214 H214       -3.7240  -26.4705  -51.4300 H         1 UNK         0.0600 
    215 H215       -3.6392  -21.9850  -50.1625 H         1 UNK         0.3000 
    216 H216       -4.5361  -20.5801  -52.4368 H         1 UNK         0.0600 
    217 H217       -4.0356  -18.5764  -51.1147 H         1 UNK         0.0600 
    218 H218       -2.7872  -19.7803  -50.8236 H         1 UNK         0.0600 
    219 H219       -4.0371  -19.4861  -49.6196 H         1 UNK         0.0600 
    220 H220       -6.3156  -21.5616  -49.5514 H         1 UNK         0.3000 
    221 H221       -8.5957  -19.7648  -50.1261 H         1 UNK         0.0600 
    222 H222       -8.1754  -21.9019  -47.9747 H         1 UNK         0.0600 
    223 H223       -7.9731  -20.1572  -47.7771 H         1 UNK         0.0600 
    224 H224       -9.5616  -20.8275  -48.0963 H         1 UNK         0.0600 
    225 H225       -7.4836  -22.9079  -51.0609 H         1 UNK         0.3000 
    226 H226      -10.1619  -24.0359  -51.5142 H         1 UNK         0.0600 
    227 H227       -8.3150  -25.4888  -50.6726 H         1 UNK         0.0600 
    228 H228       -8.9335  -26.0376  -52.2238 H         1 UNK         0.0600 
    229 H229       -7.4023  -25.1835  -52.1492 H         1 UNK         0.0600 
    230 H230       -7.2735  -23.1303  -53.5075 H         1 UNK         0.3000 
    231 H231       -8.9094  -22.2075  -55.7069 H         1 UNK         0.0600 
    232 H232       -8.2036  -24.0076  -57.3493 H         1 UNK         0.0600 
    233 H233       -9.2716  -24.6291  -56.1107 H         1 UNK         0.0600 
    234 H234       -7.5398  -24.9397  -56.0135 H         1 UNK         0.0600 
    235 H235       -5.7065  -22.8147  -54.3249 H         1 UNK         0.3000 
    236 H236       -4.2431  -22.1711  -56.7103 H         1 UNK         0.0600 
    237 H237       -3.4175  -23.6455  -54.8237 H         1 UNK         0.0600 
    238 H238       -2.2934  -22.3583  -55.2275 H         1 UNK         0.0600 
    239 H239       -3.3015  -22.2137  -53.8009 H         1 UNK         0.0600 
    240 H240       -2.7185  -20.4831  -56.9129 H         1 UNK         0.3000 
    241 H241       -2.0809  -18.4475  -57.2624 H         1 UNK         0.0600 
    242 H242       -5.1827  -18.1786  -55.8716 H         1 UNK         0.3800 
    243 H243       -5.3728  -16.4731  -56.2548 H         1 UNK         0.3800 
    244 H244       -0.6813  -19.1127  -55.4606 H         1 UNK         0.0800 
    245 H245       -0.9360  -17.4072  -55.3145 H         1 UNK         0.0800 
    246 H246       -2.6758  -16.8710  -52.0726 H         1 UNK         0.0800 
    247 H247       -1.9592  -16.2388  -53.5278 H         1 UNK         0.0800 
@<TRIPOS>BOND
     1    1    2 1    
     2    1  127 1    
     3    1  128 1    
     4    1  129 1    
     5    2    3 2    
     6    2    4 am   BACKBONE|DICT|INTERRES
     7    4    5 1    
     8    4  130 1    
     9    5    6 1    
    10    5   65 1    
    11    5  131 1    
    12    6    7 1    
    13    6  132 1    
    14    6  133 1    
    15    7    8 1    
    16    8    9 1    
    17    8  134 1    
    18    8  135 1    
    19    9   10 ar   
    20    9   14 ar   
    21   10   11 ar   
    22   10  136 1    
    23   11   12 ar   
    24   11  126 1    
    25   12   13 ar   
    26   12  137 1    
    27   13   14 ar   
    28   13   15 1    
    29   14  138 1    
    30   15   16 1    
    31   15  139 1    
    32   15  140 1    
    33   16   17 1    
    34   17   18 1    
    35   17  141 1    
    36   17  142 1    
    37   18   19 1    
    38   18   67 1    
    39   18  143 1    
    40   19   20 am   BACKBONE|DICT|INTERRES
    41   19  144 1    
    42   20   21 2    
    43   20   22 1    
    44   22   23 1    
    45   22   24 1    
    46   22  145 1    
    47   23  146 1    
    48   23  147 1    
    49   23  148 1    
    50   24   25 am   BACKBONE|DICT|INTERRES
    51   24  149 1    
    52   25   26 2    
    53   25   27 1    
    54   27   28 1    
    55   27   29 1    
    56   27  150 1    
    57   28  151 1    
    58   28  152 1    
    59   28  153 1    
    60   29   30 am   BACKBONE|DICT|INTERRES
    61   29  154 1    
    62   30   31 2    
    63   30   32 1    
    64   32   33 1    
    65   32   34 1    
    66   32  155 1    
    67   33  156 1    
    68   33  157 1    
    69   33  158 1    
    70   34   35 am   BACKBONE|DICT|INTERRES
    71   34  159 1    
    72   35   36 2    
    73   35   37 1    
    74   37   38 1    
    75   37   39 1    
    76   37  160 1    
    77   38  161 1    
    78   38  162 1    
    79   38  163 1    
    80   39   40 am   BACKBONE|DICT|INTERRES
    81   39  164 1    
    82   40   41 2    
    83   40   42 1    
    84   42   43 1    
    85   42   44 1    
    86   42  165 1    
    87   43  166 1    
    88   43  167 1    
    89   43  168 1    
    90   44   45 am   BACKBONE|DICT|INTERRES
    91   44  169 1    
    92   45   46 2    
    93   45   47 1    
    94   47   48 1    
    95   47   49 1    
    96   47  170 1    
    97   48  171 1    
    98   48  172 1    
    99   48  173 1    
   100   49   50 am   BACKBONE|DICT|INTERRES
   101   49  174 1    
   102   50   51 2    
   103   50   52 1    
   104   52   53 1    
   105   52   54 1    
   106   52  175 1    
   107   53  176 1    
   108   53  177 1    
   109   53  178 1    
   110   54   55 am   BACKBONE|DICT|INTERRES
   111   54  179 1    
   112   55   56 2    
   113   55   57 1    
   114   57   58 1    
   115   57   59 1    
   116   57  180 1    
   117   58  181 1    
   118   58  182 1    
   119   58  183 1    
   120   59   60 am   BACKBONE|DICT|INTERRES
   121   59  184 1    
   122   60   61 2    
   123   60   62 1    
   124   62   63 1    
   125   62   64 1    
   126   62  185 1    
   127   63  186 1    
   128   63  187 1    
   129   63  188 1    
   130   64   65 am   BACKBONE|DICT|INTERRES
   131   64  189 1    
   132   65   66 2    
   133   67   68 2    
   134   67   69 am   BACKBONE|DICT|INTERRES
   135   69   70 1    
   136   69  190 1    
   137   70   71 1    
   138   70   72 1    
   139   70  191 1    
   140   71  192 1    
   141   71  193 1    
   142   71  194 1    
   143   72   73 2    
   144   72   74 am   BACKBONE|DICT|INTERRES
   145   74   75 1    
   146   74  195 1    
   147   75   76 1    
   148   75   77 1    
   149   75  196 1    
   150   76  197 1    
   151   76  198 1    
   152   76  199 1    
   153   77   78 2    
   154   77   79 am   BACKBONE|DICT|INTERRES
   155   79   80 1    
   156   79  200 1    
   157   80   81 1    
   158   80   82 1    
   159   80  201 1    
   160   81  202 1    
   161   81  203 1    
   162   81  204 1    
   163   82   83 2    
   164   82   84 am   BACKBONE|DICT|INTERRES
   165   84   85 1    
   166   84  205 1    
   167   85   86 1    
   168   85   87 1    
   169   85  206 1    
   170   86  207 1    
   171   86  208 1    
   172   86  209 1    
   173   87   88 2    
   174   87   89 am   BACKBONE|DICT|INTERRES
   175   89   90 1    
   176   89  210 1    
   177   90   91 1    
   178   90   92 1    
   179   90  211 1    
   180   91  212 1    
   181   91  213 1    
   182   91  214 1    
   183   92   93 2    
   184   92   94 am   BACKBONE|DICT|INTERRES
   185   94   95 1    
   186   94  215 1    
   187   95   96 1    
   188   95   97 1    
   189   95  216 1    
   190   96  217 1    
   191   96  218 1    
   192   96  219 1    
   193   97   98 2    
   194   97   99 am   BACKBONE|DICT|INTERRES
   195   99  100 1    
   196   99  220 1    
   197  100  101 1    
   198  100  102 1    
   199  100  221 1    
   200  101  222 1    
   201  101  223 1    
   202  101  224 1    
   203  102  103 2    
   204  102  104 am   BACKBONE|DICT|INTERRES
   205  104  105 1    
   206  104  225 1    
   207  105  106 1    
   208  105  107 1    
   209  105  226 1    
   210  106  227 1    
   211  106  228 1    
   212  106  229 1    
   213  107  108 2    
   214  107  109 am   BACKBONE|DICT|INTERRES
   215  109  110 1    
   216  109  230 1    
   217  110  111 1    
   218  110  112 1    
   219  110  231 1    
   220  111  232 1    
   221  111  233 1    
   222  111  234 1    
   223  112  113 2    
   224  112  114 am   BACKBONE|DICT|INTERRES
   225  114  115 1    
   226  114  235 1    
   227  115  116 1    
   228  115  117 1    
   229  115  236 1    
   230  116  237 1    
   231  116  238 1    
   232  116  239 1    
   233  117  118 2    
   234  117  119 am   BACKBONE|DICT|INTERRES
   235  119  120 1    
   236  119  240 1    
   237  120  121 1    
   238  120  124 1    
   239  120  241 1    
   240  121  122 am   BACKBONE|DICT|INTERRES
   241  121  123 2    
   242  122  242 1    
   243  122  243 1    
   244  124  125 1    
   245  124  244 1    
   246  124  245 1    
   247  125  126 1    
   248  126  246 1    
   249  126  247 1    
@<TRIPOS>SUBSTRUCTURE
     1 UNK         1 GROUP             0       ****    0 ROOT    
