@<TRIPOS>MOLECULE
3R134
127   129    1
SMALL
USER_CHARGES


@<TRIPOS>ATOM
      1 CA         33.6528  -45.9235  -58.0530 C.3       0 UNK        -0.1968 
      2 C          33.6438  -46.1148  -56.5443 C.2       0 UNK         0.4852 
      3 O          33.7257  -47.2511  -56.0801 O.2       0 UNK        -0.5359 
      4 N          33.5679  -45.0094  -55.7883 N.am      1 UNK        -0.4300 
      5 CA         33.4423  -44.9281  -54.3225 C.3       1 UNK         0.0863 
      6 C6         33.5200  -43.4599  -53.8271 C.3       11 UNK        -0.0953 
      7 S7         32.3979  -42.3204  -54.7051 S.3       11 UNK        -0.2369 
      8 C8         31.2241  -41.8684  -53.3916 C.3       11 UNK         0.0226 
      9 C9         30.2508  -42.9980  -53.0971 C.ar      11 UNK        -0.0699 
     10 C10        30.3604  -43.7501  -51.9236 C.ar      11 UNK        -0.0804 
     11 C11        29.4447  -44.7715  -51.6480 C.ar      11 UNK        -0.0871 
     12 C12        28.4160  -45.0360  -52.5577 C.ar      11 UNK        -0.1008 
     13 C13        28.3227  -44.3149  -53.7514 C.ar      11 UNK        -0.0735 
     14 C14        29.2317  -43.2863  -54.0070 C.ar      11 UNK        -0.0945 
     15 C15        27.2653  -44.6682  -54.7852 C.3       11 UNK         0.0169 
     16 S16        27.6198  -46.2710  -55.5708 S.3       11 UNK        -0.2669 
     17 C17        29.3046  -46.0089  -56.2364 C.3       11 UNK        -0.0850 
     18 CA         29.5547  -46.6962  -57.6073 C.3       10 UNK         0.0855 
     19 C          29.6327  -48.2460  -57.5470 C.2       10 UNK         0.5543 
     20 N          29.6201  -48.9279  -58.6859 N.am      10 UNK        -0.7343 
     21 O          29.6618  -48.8444  -56.4766 O.2       10 UNK        -0.5027 
     22 N          28.6073  -46.2549  -58.6364 N.am      10 UNK        -0.4495 
     23 C          28.6062  -45.0718  -59.2589 C.2       10 UNK         0.4903 
     24 O          29.4768  -44.2143  -59.1109 O.2       10 UNK        -0.4860 
     25 CA         27.4189  -44.7929  -60.2032 C.3       9 UNK         0.0227 
     26 CB         27.8039  -45.1074  -61.6580 C.3       9 UNK        -0.1964 
     27 N          26.2122  -45.5499  -59.8433 N.am      9 UNK        -0.4231 
     28 C          25.4748  -45.3240  -58.7462 C.2       9 UNK         0.5014 
     29 O          25.6598  -44.3704  -57.9878 O.2       9 UNK        -0.5270 
     30 CA         24.3741  -46.3406  -58.4036 C.3       8 UNK         0.0284 
     31 CB         24.3694  -47.6113  -59.2827 C.3       8 UNK        -0.1977 
     32 N          24.5444  -46.7098  -57.0017 N.am      8 UNK        -0.4342 
     33 C          23.5754  -47.0723  -56.1554 C.2       8 UNK         0.5039 
     34 O          22.3865  -47.1663  -56.4684 O.2       8 UNK        -0.5547 
     35 CA         24.0367  -47.3870  -54.7191 C.3       7 UNK         0.0281 
     36 CB         22.8976  -47.8778  -53.7992 C.3       7 UNK        -0.1963 
     37 N          25.1780  -48.3126  -54.7060 N.am      7 UNK        -0.4444 
     38 C          25.2055  -49.5910  -55.1117 C.2       7 UNK         0.5104 
     39 O          24.2149  -50.2103  -55.5012 O.2       7 UNK        -0.5100 
     40 CA         26.5712  -50.3115  -55.1092 C.3       6 UNK         0.0396 
     41 CB         26.9741  -50.6808  -56.5463 C.3       6 UNK        -0.1801 
     42 N          27.6736  -49.5679  -54.4804 N.am      6 UNK        -0.4747 
     43 C          27.7965  -49.3431  -53.1637 C.2       6 UNK         0.5012 
     44 O          26.9681  -49.7273  -52.3368 O.2       6 UNK        -0.5003 
     45 CA         29.0759  -48.6226  -52.6968 C.3       5 UNK         0.0782 
     46 C46        29.0175  -48.2423  -51.1918 C.3       11 UNK        -0.0868 
     47 S47        30.4003  -47.1804  -50.6509 S.3       11 UNK        -0.2515 
     48 C48        29.5695  -45.5825  -50.3661 C.3       11 UNK         0.0199 
     49 N          30.1907  -49.5160  -53.0044 N.am      5 UNK        -0.4607 
     50 C          31.3019  -49.1723  -53.6617 C.2       4 UNK         0.5031 
     51 O          31.5826  -48.0211  -53.9959 O.2       4 UNK        -0.5119 
     52 CA         32.2374  -50.3342  -54.0201 C.3       4 UNK         0.0263 
     53 CB         31.5831  -51.2820  -55.0493 C.3       4 UNK        -0.1967 
     54 N          33.5033  -49.8293  -54.5485 N.am      4 UNK        -0.4237 
     55 C          34.6354  -50.5424  -54.6137 C.2       3 UNK         0.4908 
     56 O          34.7445  -51.6935  -54.1881 O.2       3 UNK        -0.5102 
     57 CA         35.8551  -49.8765  -55.2625 C.3       3 UNK         0.0241 
     58 CB         35.7554  -49.9350  -56.7965 C.3       3 UNK        -0.1971 
     59 N          36.0016  -48.4881  -54.8302 N.am      3 UNK        -0.4139 
     60 C          36.7578  -48.0935  -53.7965 C.2       2 UNK         0.5016 
     61 O          37.4160  -48.8656  -53.0975 O.2       2 UNK        -0.5319 
     62 CA         36.8244  -46.5857  -53.4946 C.3       2 UNK         0.0286 
     63 CB         38.1481  -45.9949  -54.0081 C.3       2 UNK        -0.1963 
     64 N          35.7134  -45.8281  -54.0731 N.am      2 UNK        -0.4790 
     65 C          34.4830  -45.7636  -53.5448 C.2       1 UNK         0.5024 
     66 O          34.1686  -46.3075  -52.4861 O.2       1 UNK        -0.4888 
     67 H67        34.6518  -46.1070  -58.4473 H         1 UNK         0.0892 
     68 H68        32.9679  -46.6274  -58.5247 H         1 UNK         0.0892 
     69 H69        33.3498  -44.9159  -58.3377 H         1 UNK         0.0892 
     70 H70        33.5104  -44.1127  -56.2504 H         1 UNK         0.3107 
     71 H71        32.4567  -45.3263  -54.0702 H         1 UNK         0.0773 
     72 H72        33.3161  -43.4124  -52.7558 H         1 UNK         0.0680 
     73 H73        34.5312  -43.0677  -53.9547 H         1 UNK         0.0680 
     74 H74        30.6638  -40.9888  -53.7118 H         1 UNK         0.0650 
     75 H75        31.7687  -41.5713  -52.4941 H         1 UNK         0.0650 
     76 H76        31.1564  -43.5383  -51.2230 H         1 UNK         0.1397 
     77 H77        27.7042  -45.8235  -52.3555 H         1 UNK         0.1363 
     78 H78        29.1616  -42.7193  -54.9254 H         1 UNK         0.1355 
     79 H79        27.1988  -43.9007  -55.5583 H         1 UNK         0.0707 
     80 H80        26.2862  -44.7093  -54.3067 H         1 UNK         0.0707 
     81 H81        29.4822  -44.9386  -56.3447 H         1 UNK         0.1034 
     82 H82        30.0321  -46.3489  -55.4966 H         1 UNK         0.1034 
     83 H83        30.5513  -46.3917  -57.9299 H         1 UNK         0.0482 
     84 H84        29.6136  -48.4540  -59.5749 H         1 UNK         0.3460 
     85 H85        29.6606  -49.9336  -58.6518 H         1 UNK         0.3460 
     86 H86        27.8652  -46.9086  -58.8359 H         1 UNK         0.2989 
     87 H87        27.1866  -43.7280  -60.1346 H         1 UNK         0.0559 
     88 H88        28.6833  -44.5364  -61.9598 H         1 UNK         0.0848 
     89 H89        27.0003  -44.8472  -62.3472 H         1 UNK         0.0848 
     90 H90        28.0390  -46.1633  -61.7974 H         1 UNK         0.0848 
     91 H91        25.9767  -46.3405  -60.4263 H         1 UNK         0.3144 
     92 H92        23.4203  -45.8234  -58.5266 H         1 UNK         0.0727 
     93 H93        25.3064  -48.1647  -59.2071 H         1 UNK         0.0790 
     94 H94        24.1979  -47.3714  -60.3328 H         1 UNK         0.0790 
     95 H95        23.5687  -48.2879  -58.9828 H         1 UNK         0.0790 
     96 H96        25.4822  -46.5876  -56.6377 H         1 UNK         0.3215 
     97 H97        24.4010  -46.4459  -54.3045 H         1 UNK         0.0863 
     98 H98        22.4278  -48.7860  -54.1774 H         1 UNK         0.0808 
     99 H99        22.1153  -47.1225  -53.7150 H         1 UNK         0.0808 
    100 H100       23.2612  -48.0819  -52.7922 H         1 UNK         0.0808 
    101 H101       26.0671  -47.9080  -54.4459 H         1 UNK         0.3118 
    102 H102       26.4395  -51.2403  -54.5505 H         1 UNK         0.0546 
    103 H103       27.0576  -49.7962  -57.1781 H         1 UNK         0.0828 
    104 H104       26.2333  -51.3368  -57.0052 H         1 UNK         0.0828 
    105 H105       27.9295  -51.2053  -56.5718 H         1 UNK         0.0828 
    106 H106       28.4116  -49.2456  -55.1058 H         1 UNK         0.3005 
    107 H107       29.1575  -47.7067  -53.2869 H         1 UNK         0.1257 
    108 H108       29.0282  -49.1423  -50.5742 H         1 UNK         0.0775 
    109 H109       28.0773  -47.7400  -50.9593 H         1 UNK         0.0775 
    110 H110       28.5879  -45.7354  -49.9155 H         1 UNK         0.0840 
    111 H111       30.1479  -45.0235  -49.6288 H         1 UNK         0.0840 
    112 H112       30.0342  -50.4899  -52.7870 H         1 UNK         0.2987 
    113 H113       32.4378  -50.8840  -53.0980 H         1 UNK         0.0785 
    114 H114       30.6058  -51.6317  -54.7156 H         1 UNK         0.0798 
    115 H115       32.1943  -52.1675  -55.2226 H         1 UNK         0.0798 
    116 H116       31.4396  -50.7859  -56.0096 H         1 UNK         0.0798 
    117 H117       33.4706  -48.8743  -54.9034 H         1 UNK         0.3079 
    118 H118       36.7405  -50.4457  -54.9700 H         1 UNK         0.0794 
    119 H119       36.6364  -49.4984  -57.2671 H         1 UNK         0.0786 
    120 H120       34.8789  -49.4048  -57.1702 H         1 UNK         0.0786 
    121 H121       35.6815  -50.9672  -57.1415 H         1 UNK         0.0786 
    122 H122       35.4112  -47.8077  -55.3002 H         1 UNK         0.3032 
    123 H123       36.7994  -46.4725  -52.4081 H         1 UNK         0.1094 
    124 H124       38.2350  -46.0784  -55.0922 H         1 UNK         0.0794 
    125 H125       38.2428  -44.9419  -53.7422 H         1 UNK         0.0794 
    126 H126       39.0026  -46.5147  -53.5722 H         1 UNK         0.0794 
    127 H127       35.8880  -45.3461  -54.9435 H         1 UNK         0.3016 
@<TRIPOS>BOND
     1    1    2 1    
     2    1   67 1    
     3    1   68 1    
     4    1   69 1    
     5    2    3 2    
     6    2    4 am   BACKBONE|DICT|INTERRES
     7    4    5 1    
     8    4   70 1    
     9    5    6 1    
    10    5   65 1    
    11    5   71 1    
    12    6    7 1    
    13    6   72 1    
    14    6   73 1    
    15    7    8 1    
    16    8    9 1    
    17    8   74 1    
    18    8   75 1    
    19    9   10 ar   
    20    9   14 ar   
    21   10   11 ar   
    22   10   76 1    
    23   11   12 ar   
    24   11   48 1    
    25   12   13 ar   
    26   12   77 1    
    27   13   14 ar   
    28   13   15 1    
    29   14   78 1    
    30   15   16 1    
    31   15   79 1    
    32   15   80 1    
    33   16   17 1    
    34   17   18 1    
    35   17   81 1    
    36   17   82 1    
    37   18   19 1    
    38   18   22 1    
    39   18   83 1    
    40   19   20 am   BACKBONE|DICT|INTERRES
    41   19   21 2    
    42   20   84 1    
    43   20   85 1    
    44   22   23 am   BACKBONE|DICT|INTERRES
    45   22   86 1    
    46   23   24 2    
    47   23   25 1    
    48   25   26 1    
    49   25   27 1    
    50   25   87 1    
    51   26   88 1    
    52   26   89 1    
    53   26   90 1    
    54   27   28 am   BACKBONE|DICT|INTERRES
    55   27   91 1    
    56   28   29 2    
    57   28   30 1    
    58   30   31 1    
    59   30   32 1    
    60   30   92 1    
    61   31   93 1    
    62   31   94 1    
    63   31   95 1    
    64   32   33 am   BACKBONE|DICT|INTERRES
    65   32   96 1    
    66   33   34 2    
    67   33   35 1    
    68   35   36 1    
    69   35   37 1    
    70   35   97 1    
    71   36   98 1    
    72   36   99 1    
    73   36  100 1    
    74   37   38 am   BACKBONE|DICT|INTERRES
    75   37  101 1    
    76   38   39 2    
    77   38   40 1    
    78   40   41 1    
    79   40   42 1    
    80   40  102 1    
    81   41  103 1    
    82   41  104 1    
    83   41  105 1    
    84   42   43 am   BACKBONE|DICT|INTERRES
    85   42  106 1    
    86   43   44 2    
    87   43   45 1    
    88   45   46 1    
    89   45   49 1    
    90   45  107 1    
    91   46   47 1    
    92   46  108 1    
    93   46  109 1    
    94   47   48 1    
    95   48  110 1    
    96   48  111 1    
    97   49   50 am   BACKBONE|DICT|INTERRES
    98   49  112 1    
    99   50   51 2    
   100   50   52 1    
   101   52   53 1    
   102   52   54 1    
   103   52  113 1    
   104   53  114 1    
   105   53  115 1    
   106   53  116 1    
   107   54   55 am   BACKBONE|DICT|INTERRES
   108   54  117 1    
   109   55   56 2    
   110   55   57 1    
   111   57   58 1    
   112   57   59 1    
   113   57  118 1    
   114   58  119 1    
   115   58  120 1    
   116   58  121 1    
   117   59   60 am   BACKBONE|DICT|INTERRES
   118   59  122 1    
   119   60   61 2    
   120   60   62 1    
   121   62   63 1    
   122   62   64 1    
   123   62  123 1    
   124   63  124 1    
   125   63  125 1    
   126   63  126 1    
   127   64   65 am   BACKBONE|DICT|INTERRES
   128   64  127 1    
   129   65   66 2    
@<TRIPOS>SUBSTRUCTURE
     1 UNK         1 GROUP             0       ****    0 ROOT    
