@<TRIPOS>MOLECULE
3R134
127   129    1
SMALL
USER_CHARGES


@<TRIPOS>ATOM
      1 CA         38.1393  -43.4440  -49.8412 C.3       0 UNK        -0.1968 
      2 C          37.5522  -44.4127  -50.8575 C.2       0 UNK         0.4852 
      3 O          38.2716  -45.2737  -51.3672 O.2       0 UNK        -0.5359 
      4 N          36.2555  -44.2723  -51.1612 N.am      1 UNK        -0.4300 
      5 CA         35.5079  -45.1391  -52.0783 C.3       1 UNK         0.0863 
      6 C6         34.1548  -44.5102  -52.4900 C.3       11 UNK        -0.0953 
      7 S7         34.3743  -42.9268  -53.3708 S.3       11 UNK        -0.2369 
      8 C8         33.7334  -43.3353  -55.0332 C.3       11 UNK         0.0226 
      9 C9         32.2202  -43.5520  -55.1398 C.ar      11 UNK        -0.0699 
     10 C10        31.3319  -43.2820  -54.0890 C.ar      11 UNK        -0.0804 
     11 C11        29.9579  -43.4945  -54.2336 C.ar      11 UNK        -0.0871 
     12 C12        29.4655  -43.9618  -55.4556 C.ar      11 UNK        -0.1008 
     13 C13        30.3355  -44.2470  -56.5115 C.ar      11 UNK        -0.0735 
     14 C14        31.7068  -44.0349  -56.3476 C.ar      11 UNK        -0.0945 
     15 C15        29.8048  -44.8458  -57.8055 C.3       11 UNK         0.0169 
     16 S16        29.4177  -43.6078  -59.0878 S.3       11 UNK        -0.2669 
     17 C17        28.0392  -42.6324  -58.3786 C.3       11 UNK        -0.0850 
     18 CA         26.6238  -43.2389  -58.5849 C.3       10 UNK         0.0855 
     19 C          26.1656  -43.2350  -60.0742 C.2       10 UNK         0.5543 
     20 N          25.7507  -44.3558  -60.6546 N.am      10 UNK        -0.7343 
     21 O          26.1684  -42.1847  -60.7117 O.2       10 UNK        -0.5027 
     22 N          26.5038  -44.5367  -57.9115 N.am      10 UNK        -0.4495 
     23 C          25.3859  -45.0508  -57.3899 C.2       10 UNK         0.4903 
     24 O          24.3088  -44.4545  -57.3493 O.2       10 UNK        -0.4860 
     25 CA         25.5122  -46.4748  -56.8115 C.3       9 UNK         0.0227 
     26 CB         24.1496  -47.1767  -56.6391 C.3       9 UNK        -0.1964 
     27 N          26.4438  -47.3434  -57.5479 N.am      9 UNK        -0.4231 
     28 C          26.3894  -47.6662  -58.8505 C.2       9 UNK         0.5014 
     29 O          25.5780  -47.1888  -59.6446 O.2       9 UNK        -0.5270 
     30 CA         27.4158  -48.6873  -59.3605 C.3       8 UNK         0.0284 
     31 CB         28.6863  -47.9772  -59.8577 C.3       8 UNK        -0.1977 
     32 N          27.7713  -49.6619  -58.3247 N.am      8 UNK        -0.4342 
     33 C          27.2709  -50.9014  -58.2455 C.2       8 UNK         0.5039 
     34 O          26.4628  -51.3696  -59.0490 O.2       8 UNK        -0.5547 
     35 CA         27.7659  -51.7803  -57.0855 C.3       7 UNK         0.0281 
     36 CB         29.2074  -52.2554  -57.3335 C.3       7 UNK        -0.1963 
     37 N          27.6851  -51.1319  -55.7755 N.am      7 UNK        -0.4444 
     38 C          26.5458  -50.8746  -55.1163 C.2       7 UNK         0.5104 
     39 O          25.4229  -51.0776  -55.5778 O.2       7 UNK        -0.5100 
     40 CA         26.6823  -50.3103  -53.6931 C.3       6 UNK         0.0396 
     41 CB         27.0714  -51.4203  -52.7022 C.3       6 UNK        -0.1801 
     42 N          27.6831  -49.2439  -53.6552 N.am      6 UNK        -0.4747 
     43 C          27.3941  -47.9350  -53.6540 C.2       6 UNK         0.5012 
     44 O          26.2499  -47.5001  -53.5257 O.2       6 UNK        -0.5003 
     45 CA         28.5559  -46.9350  -53.8665 C.3       5 UNK         0.0782 
     46 C46        28.8003  -46.0238  -52.6336 C.3       11 UNK        -0.0868 
     47 S47        27.7881  -44.5051  -52.7303 S.3       11 UNK        -0.2515 
     48 C48        29.0254  -43.2008  -53.0595 C.3       11 UNK         0.0199 
     49 N          29.7926  -47.5605  -54.3479 N.am      5 UNK        -0.4607 
     50 C          29.9532  -48.0319  -55.5916 C.2       4 UNK         0.5031 
     51 O          29.0712  -47.9927  -56.4499 O.2       4 UNK        -0.5119 
     52 CA         31.2884  -48.7221  -55.9193 C.3       4 UNK         0.0263 
     53 CB         32.3194  -47.6884  -56.3975 C.3       4 UNK        -0.1967 
     54 N          31.8564  -49.4894  -54.8061 N.am      4 UNK        -0.4237 
     55 C          31.2322  -50.4443  -54.1010 C.2       3 UNK         0.4908 
     56 O          30.0771  -50.8026  -54.3321 O.2       3 UNK        -0.5102 
     57 CA         31.9943  -51.1083  -52.9367 C.3       3 UNK         0.0241 
     58 CB         32.1308  -52.6209  -53.1804 C.3       3 UNK        -0.1971 
     59 N          33.3235  -50.5504  -52.6551 N.am      3 UNK        -0.4139 
     60 C          33.5818  -49.3217  -52.1846 C.2       2 UNK         0.5016 
     61 O          32.7022  -48.4857  -51.9657 O.2       2 UNK        -0.5319 
     62 CA         35.0627  -48.9615  -51.9458 C.3       2 UNK         0.0286 
     63 CB         36.0529  -49.8550  -52.7232 C.3       2 UNK        -0.1963 
     64 N          35.3130  -47.5655  -52.3094 N.am      2 UNK        -0.4790 
     65 C          35.2860  -46.5334  -51.4577 C.2       1 UNK         0.5024 
     66 O          35.0799  -46.6429  -50.2456 O.2       1 UNK        -0.4888 
     67 H67        37.3986  -42.7286  -49.4841 H         1 UNK         0.0892 
     68 H68        38.9621  -42.8856  -50.2867 H         1 UNK         0.0892 
     69 H69        38.5243  -43.9910  -48.9810 H         1 UNK         0.0892 
     70 H70        35.7119  -43.5550  -50.7038 H         1 UNK         0.3107 
     71 H71        36.1130  -45.2636  -52.9794 H         1 UNK         0.0773 
     72 H72        33.5901  -45.1967  -53.1244 H         1 UNK         0.0680 
     73 H73        33.5301  -44.3301  -51.6130 H         1 UNK         0.0680 
     74 H74        34.0084  -42.5225  -55.7065 H         1 UNK         0.0650 
     75 H75        34.2533  -44.2239  -55.3949 H         1 UNK         0.0650 
     76 H76        31.6996  -42.9031  -53.1469 H         1 UNK         0.1397 
     77 H77        28.4033  -44.1214  -55.5767 H         1 UNK         0.1363 
     78 H78        32.3802  -44.2562  -57.1647 H         1 UNK         0.1355 
     79 H79        28.9392  -45.4717  -57.5991 H         1 UNK         0.0707 
     80 H80        30.5526  -45.5222  -58.2198 H         1 UNK         0.0707 
     81 H81        28.0794  -41.6369  -58.8247 H         1 UNK         0.1034 
     82 H82        28.2190  -42.4603  -57.3186 H         1 UNK         0.1034 
     83 H83        25.9316  -42.5581  -58.0857 H         1 UNK         0.0482 
     84 H84        25.4523  -44.3263  -61.6162 H         1 UNK         0.3460 
     85 H85        25.7157  -45.2328  -60.1469 H         1 UNK         0.3460 
     86 H86        27.3235  -45.1206  -57.9512 H         1 UNK         0.2989 
     87 H87        25.9408  -46.3411  -55.8200 H         1 UNK         0.0559 
     88 H88        23.6383  -47.3055  -57.5937 H         1 UNK         0.0848 
     89 H89        23.4899  -46.6005  -55.9893 H         1 UNK         0.0848 
     90 H90        24.2679  -48.1608  -56.1847 H         1 UNK         0.0848 
     91 H91        27.2129  -47.7290  -57.0086 H         1 UNK         0.3144 
     92 H92        26.9673  -49.1964  -60.2162 H         1 UNK         0.0727 
     93 H93        29.3725  -48.6835  -60.3250 H         1 UNK         0.0790 
     94 H94        29.2219  -47.4817  -59.0495 H         1 UNK         0.0790 
     95 H95        28.4453  -47.2184  -60.6038 H         1 UNK         0.0790 
     96 H96        28.3988  -49.3327  -57.5964 H         1 UNK         0.3215 
     97 H97        27.1270  -52.6658  -57.0534 H         1 UNK         0.0863 
     98 H98        29.5311  -52.9559  -56.5633 H         1 UNK         0.0808 
     99 H99        29.9136  -51.4254  -57.3450 H         1 UNK         0.0808 
    100 H100       29.2901  -52.7679  -58.2930 H         1 UNK         0.0808 
    101 H101       28.5675  -50.9744  -55.2919 H         1 UNK         0.3118 
    102 H102       25.7046  -49.9289  -53.3912 H         1 UNK         0.0546 
    103 H103       26.3319  -52.2220  -52.7070 H         1 UNK         0.0828 
    104 H104       27.1262  -51.0372  -51.6833 H         1 UNK         0.0828 
    105 H105       28.0365  -51.8673  -52.9425 H         1 UNK         0.0828 
    106 H106       28.6474  -49.5322  -53.7823 H         1 UNK         0.3005 
    107 H107       28.2161  -46.3023  -54.6873 H         1 UNK         0.1257 
    108 H108       29.8500  -45.7334  -52.5664 H         1 UNK         0.0775 
    109 H109       28.5837  -46.5424  -51.6976 H         1 UNK         0.0775 
    110 H110       28.5020  -42.2643  -53.2557 H         1 UNK         0.0840 
    111 H111       29.5991  -43.0436  -52.1446 H         1 UNK         0.0840 
    112 H112       30.5521  -47.6493  -53.6869 H         1 UNK         0.2987 
    113 H113       31.1033  -49.4223  -56.7352 H         1 UNK         0.0785 
    114 H114       31.9542  -47.1511  -57.2725 H         1 UNK         0.0798 
    115 H115       33.2572  -48.1638  -56.6852 H         1 UNK         0.0798 
    116 H116       32.5390  -46.9479  -55.6268 H         1 UNK         0.0798 
    117 H117       32.7990  -49.2550  -54.5341 H         1 UNK         0.3079 
    118 H118       31.3813  -50.9631  -52.0447 H         1 UNK         0.0794 
    119 H119       32.7411  -52.8345  -54.0588 H         1 UNK         0.0786 
    120 H120       31.1558  -53.0835  -53.3418 H         1 UNK         0.0786 
    121 H121       32.5836  -53.1225  -52.3249 H         1 UNK         0.0786 
    122 H122       34.1073  -51.1650  -52.8233 H         1 UNK         0.3032 
    123 H123       35.2509  -49.1049  -50.8791 H         1 UNK         0.1094 
    124 H124       37.0808  -49.5276  -52.5634 H         1 UNK         0.0794 
    125 H125       36.0048  -50.8928  -52.3909 H         1 UNK         0.0794 
    126 H126       35.8664  -49.8359  -53.7980 H         1 UNK         0.0794 
    127 H127       35.4554  -47.3783  -53.2916 H         1 UNK         0.3016 
@<TRIPOS>BOND
     1    1    2 1    
     2    1   67 1    
     3    1   68 1    
     4    1   69 1    
     5    2    3 2    
     6    2    4 am   BACKBONE|DICT|INTERRES
     7    4    5 1    
     8    4   70 1    
     9    5    6 1    
    10    5   65 1    
    11    5   71 1    
    12    6    7 1    
    13    6   72 1    
    14    6   73 1    
    15    7    8 1    
    16    8    9 1    
    17    8   74 1    
    18    8   75 1    
    19    9   10 ar   
    20    9   14 ar   
    21   10   11 ar   
    22   10   76 1    
    23   11   12 ar   
    24   11   48 1    
    25   12   13 ar   
    26   12   77 1    
    27   13   14 ar   
    28   13   15 1    
    29   14   78 1    
    30   15   16 1    
    31   15   79 1    
    32   15   80 1    
    33   16   17 1    
    34   17   18 1    
    35   17   81 1    
    36   17   82 1    
    37   18   19 1    
    38   18   22 1    
    39   18   83 1    
    40   19   20 am   BACKBONE|DICT|INTERRES
    41   19   21 2    
    42   20   84 1    
    43   20   85 1    
    44   22   23 am   BACKBONE|DICT|INTERRES
    45   22   86 1    
    46   23   24 2    
    47   23   25 1    
    48   25   26 1    
    49   25   27 1    
    50   25   87 1    
    51   26   88 1    
    52   26   89 1    
    53   26   90 1    
    54   27   28 am   BACKBONE|DICT|INTERRES
    55   27   91 1    
    56   28   29 2    
    57   28   30 1    
    58   30   31 1    
    59   30   32 1    
    60   30   92 1    
    61   31   93 1    
    62   31   94 1    
    63   31   95 1    
    64   32   33 am   BACKBONE|DICT|INTERRES
    65   32   96 1    
    66   33   34 2    
    67   33   35 1    
    68   35   36 1    
    69   35   37 1    
    70   35   97 1    
    71   36   98 1    
    72   36   99 1    
    73   36  100 1    
    74   37   38 am   BACKBONE|DICT|INTERRES
    75   37  101 1    
    76   38   39 2    
    77   38   40 1    
    78   40   41 1    
    79   40   42 1    
    80   40  102 1    
    81   41  103 1    
    82   41  104 1    
    83   41  105 1    
    84   42   43 am   BACKBONE|DICT|INTERRES
    85   42  106 1    
    86   43   44 2    
    87   43   45 1    
    88   45   46 1    
    89   45   49 1    
    90   45  107 1    
    91   46   47 1    
    92   46  108 1    
    93   46  109 1    
    94   47   48 1    
    95   48  110 1    
    96   48  111 1    
    97   49   50 am   BACKBONE|DICT|INTERRES
    98   49  112 1    
    99   50   51 2    
   100   50   52 1    
   101   52   53 1    
   102   52   54 1    
   103   52  113 1    
   104   53  114 1    
   105   53  115 1    
   106   53  116 1    
   107   54   55 am   BACKBONE|DICT|INTERRES
   108   54  117 1    
   109   55   56 2    
   110   55   57 1    
   111   57   58 1    
   112   57   59 1    
   113   57  118 1    
   114   58  119 1    
   115   58  120 1    
   116   58  121 1    
   117   59   60 am   BACKBONE|DICT|INTERRES
   118   59  122 1    
   119   60   61 2    
   120   60   62 1    
   121   62   63 1    
   122   62   64 1    
   123   62  123 1    
   124   63  124 1    
   125   63  125 1    
   126   63  126 1    
   127   64   65 am   BACKBONE|DICT|INTERRES
   128   64  127 1    
   129   65   66 2    
@<TRIPOS>SUBSTRUCTURE
     1 UNK         1 GROUP             0       ****    0 ROOT    
