@<TRIPOS>MOLECULE
3R134
127   129    1
SMALL
USER_CHARGES


@<TRIPOS>ATOM
      1 CA         36.7016  -46.3989  -48.5512 C.3       0 UNK        -0.1968 
      2 C          36.6486  -46.3479  -50.0711 C.2       0 UNK         0.4852 
      3 O          37.6959  -46.3597  -50.7195 O.2       0 UNK        -0.5359 
      4 N          35.4376  -46.2882  -50.6418 N.am      1 UNK        -0.4300 
      5 CA         35.1905  -46.2233  -52.0887 C.3       1 UNK         0.0863 
      6 C6         33.7184  -45.8665  -52.4148 C.3       11 UNK        -0.0953 
      7 S7         33.1320  -44.3429  -51.6070 S.3       11 UNK        -0.2369 
      8 C8         33.2220  -43.1461  -52.9724 C.3       11 UNK         0.0226 
      9 C9         32.0631  -43.2828  -53.9519 C.ar      11 UNK        -0.0699 
     10 C10        30.7954  -42.8014  -53.6093 C.ar      11 UNK        -0.0804 
     11 C11        29.7494  -42.8328  -54.5366 C.ar      11 UNK        -0.0871 
     12 C12        29.9868  -43.3412  -55.8167 C.ar      11 UNK        -0.1008 
     13 C13        31.2301  -43.8805  -56.1569 C.ar      11 UNK        -0.0735 
     14 C14        32.2670  -43.8404  -55.2186 C.ar      11 UNK        -0.0945 
     15 C15        31.4809  -44.4785  -57.5396 C.3       11 UNK         0.0169 
     16 S16        30.1036  -45.5133  -58.1576 S.3       11 UNK        -0.2669 
     17 C17        29.3103  -44.4312  -59.4007 C.3       11 UNK        -0.0850 
     18 CA         27.7820  -44.2574  -59.1958 C.3       10 UNK         0.0855 
     19 C          27.2033  -43.2525  -60.2353 C.2       10 UNK         0.5543 
     20 N          26.3441  -43.6675  -61.1583 N.am      10 UNK        -0.7343 
     21 O          27.5413  -42.0722  -60.1986 O.2       10 UNK        -0.5027 
     22 N          27.0869  -45.5540  -59.1337 N.am      10 UNK        -0.4495 
     23 C          25.8536  -45.7538  -58.6568 C.2       10 UNK         0.4903 
     24 O          25.1493  -44.8561  -58.1960 O.2       10 UNK        -0.4860 
     25 CA         25.3131  -47.1964  -58.6640 C.3       9 UNK         0.0227 
     26 CB         24.6335  -47.5268  -60.0076 C.3       9 UNK        -0.1964 
     27 N          26.2925  -48.2263  -58.2754 N.am      9 UNK        -0.4231 
     28 C          27.3806  -48.6473  -58.9389 C.2       9 UNK         0.5014 
     29 O          27.7322  -48.1828  -60.0245 O.2       9 UNK        -0.5270 
     30 CA         28.2392  -49.7487  -58.2902 C.3       8 UNK         0.0284 
     31 CB         29.7300  -49.3638  -58.2865 C.3       8 UNK        -0.1977 
     32 N          27.8467  -50.0613  -56.9139 N.am      8 UNK        -0.4342 
     33 C          27.0681  -51.0841  -56.5410 C.2       8 UNK         0.5039 
     34 O          26.4829  -51.8216  -57.3344 O.2       8 UNK        -0.5547 
     35 CA         26.9258  -51.3382  -55.0329 C.3       7 UNK         0.0281 
     36 CB         28.1867  -52.0305  -54.4869 C.3       7 UNK        -0.1963 
     37 N          26.6988  -50.0982  -54.2866 N.am      7 UNK        -0.4444 
     38 C          25.6134  -49.8390  -53.5427 C.2       7 UNK         0.5104 
     39 O          24.6731  -50.6227  -53.4065 O.2       7 UNK        -0.5100 
     40 CA         25.5554  -48.4822  -52.8083 C.3       6 UNK         0.0396 
     41 CB         25.9526  -48.6579  -51.3338 C.3       6 UNK        -0.1801 
     42 N          26.3939  -47.4391  -53.4042 N.am      6 UNK        -0.4747 
     43 C          26.2237  -46.9244  -54.6302 C.2       6 UNK         0.5012 
     44 O          25.2829  -47.2252  -55.3633 O.2       6 UNK        -0.5003 
     45 CA         27.3099  -45.9609  -55.1571 C.3       5 UNK         0.0782 
     46 C46        26.8263  -44.4848  -55.0893 C.3       11 UNK        -0.0868 
     47 S47        27.2594  -43.5982  -53.5479 S.3       11 UNK        -0.2515 
     48 C48        28.3743  -42.2916  -54.1660 C.3       11 UNK         0.0199 
     49 N          28.6380  -46.1671  -54.5566 N.am      5 UNK        -0.4607 
     50 C          29.3221  -47.3175  -54.5524 C.2       4 UNK         0.5031 
     51 O          28.9107  -48.3578  -55.0711 O.2       4 UNK        -0.5119 
     52 CA         30.6091  -47.3499  -53.7198 C.3       4 UNK         0.0263 
     53 CB         30.2481  -47.6054  -52.2452 C.3       4 UNK        -0.1967 
     54 N          31.5031  -48.4156  -54.1779 N.am      4 UNK        -0.4237 
     55 C          32.2576  -48.3493  -55.2818 C.2       3 UNK         0.4908 
     56 O          32.3742  -47.3380  -55.9719 O.2       3 UNK        -0.5102 
     57 CA         33.0654  -49.6098  -55.6287 C.3       3 UNK         0.0241 
     58 CB         33.5952  -49.5935  -57.0749 C.3       3 UNK        -0.1971 
     59 N          34.1972  -49.6921  -54.7115 N.am      3 UNK        -0.4139 
     60 C          34.1982  -50.3344  -53.5391 C.2       2 UNK         0.5016 
     61 O          33.2795  -51.0575  -53.1526 O.2       2 UNK        -0.5319 
     62 CA         35.3913  -50.0595  -52.6073 C.3       2 UNK         0.0286 
     63 CB         36.7431  -50.4496  -53.2409 C.3       2 UNK        -0.1963 
     64 N          35.3810  -48.6739  -52.1149 N.am      2 UNK        -0.4790 
     65 C          35.5466  -47.5375  -52.8133 C.2       1 UNK         0.5024 
     66 O          35.9019  -47.4978  -53.9923 O.2       1 UNK        -0.4888 
     67 H67        37.2637  -45.5481  -48.1670 H         1 UNK         0.0892 
     68 H68        37.1982  -47.3118  -48.2236 H         1 UNK         0.0892 
     69 H69        35.7068  -46.3757  -48.1067 H         1 UNK         0.0892 
     70 H70        34.6141  -46.2449  -50.0580 H         1 UNK         0.3107 
     71 H71        35.8310  -45.4406  -52.5013 H         1 UNK         0.0773 
     72 H72        33.5739  -45.7804  -53.4933 H         1 UNK         0.0680 
     73 H73        33.0621  -46.6729  -52.0906 H         1 UNK         0.0680 
     74 H74        33.2129  -42.1399  -52.5512 H         1 UNK         0.0650 
     75 H75        34.1804  -43.2500  -53.4837 H         1 UNK         0.0650 
     76 H76        30.6312  -42.3834  -52.6252 H         1 UNK         0.1397 
     77 H77        29.2007  -43.3315  -56.5542 H         1 UNK         0.1363 
     78 H78        33.2413  -44.2284  -55.4828 H         1 UNK         0.1355 
     79 H79        32.3688  -45.1116  -57.5089 H         1 UNK         0.0707 
     80 H80        31.7132  -43.6771  -58.2410 H         1 UNK         0.0707 
     81 H81        29.5108  -44.8549  -60.3866 H         1 UNK         0.1034 
     82 H82        29.7967  -43.4544  -59.3929 H         1 UNK         0.1034 
     83 H83        27.6377  -43.7801  -58.2268 H         1 UNK         0.0482 
     84 H84        26.0639  -44.6341  -61.1940 H         1 UNK         0.3460 
     85 H85        25.9741  -43.0072  -61.8238 H         1 UNK         0.3460 
     86 H86        27.5807  -46.3566  -59.5148 H         1 UNK         0.2989 
     87 H87        24.5349  -47.2371  -57.9010 H         1 UNK         0.0559 
     88 H88        25.3306  -47.4834  -60.8447 H         1 UNK         0.0848 
     89 H89        23.8316  -46.8186  -60.2202 H         1 UNK         0.0848 
     90 H90        24.1896  -48.5221  -59.9927 H         1 UNK         0.0848 
     91 H91        26.1165  -48.6549  -57.3768 H         1 UNK         0.3144 
     92 H92        28.1281  -50.6383  -58.9136 H         1 UNK         0.0727 
     93 H93        30.3434  -50.1713  -57.8872 H         1 UNK         0.0790 
     94 H94        29.9159  -48.4753  -57.6821 H         1 UNK         0.0790 
     95 H95        30.0909  -49.1538  -59.2942 H         1 UNK         0.0790 
     96 H96        28.2837  -49.4819  -56.1948 H         1 UNK         0.3215 
     97 H97        26.0851  -52.0230  -54.9021 H         1 UNK         0.0863 
     98 H98        28.0671  -52.2947  -53.4361 H         1 UNK         0.0808 
     99 H99        29.0694  -51.3950  -54.5726 H         1 UNK         0.0808 
    100 H100       28.3933  -52.9532  -55.0310 H         1 UNK         0.0808 
    101 H101       27.4169  -49.3845  -54.3613 H         1 UNK         0.3118 
    102 H102       24.5202  -48.1366  -52.8442 H         1 UNK         0.0546 
    103 H103       25.3248  -49.4056  -50.8469 H         1 UNK         0.0828 
    104 H104       25.8355  -47.7285  -50.7763 H         1 UNK         0.0828 
    105 H105       26.9878  -48.9857  -51.2302 H         1 UNK         0.0828 
    106 H106       27.1856  -47.1232  -52.8635 H         1 UNK         0.3005 
    107 H107       27.4277  -46.2154  -56.2121 H         1 UNK         0.1257 
    108 H108       25.7449  -44.4138  -55.2261 H         1 UNK         0.0775 
    109 H109       27.2245  -43.9377  -55.9391 H         1 UNK         0.0775 
    110 H110       27.9190  -41.7907  -55.0220 H         1 UNK         0.0840 
    111 H111       28.4743  -41.5275  -53.3936 H         1 UNK         0.0840 
    112 H112       29.0316  -45.3554  -54.0997 H         1 UNK         0.2987 
    113 H113       31.1183  -46.3880  -53.8119 H         1 UNK         0.0785 
    114 H114       29.6406  -48.5043  -52.1283 H         1 UNK         0.0798 
    115 H115       29.6796  -46.7712  -51.8319 H         1 UNK         0.0798 
    116 H116       31.1325  -47.7286  -51.6221 H         1 UNK         0.0798 
    117 H117       31.4675  -49.2895  -53.6716 H         1 UNK         0.3079 
    118 H118       32.4133  -50.4788  -55.5156 H         1 UNK         0.0794 
    119 H119       34.2833  -48.7645  -57.2463 H         1 UNK         0.0786 
    120 H120       32.7780  -49.4907  -57.7895 H         1 UNK         0.0786 
    121 H121       34.1210  -50.5182  -57.3129 H         1 UNK         0.0786 
    122 H122       34.9490  -49.0273  -54.8664 H         1 UNK         0.3032 
    123 H123       35.2531  -50.6940  -51.7297 H         1 UNK         0.1094 
    124 H124       37.5632  -50.2992  -52.5387 H         1 UNK         0.0794 
    125 H125       36.7473  -51.5038  -53.5211 H         1 UNK         0.0794 
    126 H126       36.9689  -49.8779  -54.1409 H         1 UNK         0.0794 
    127 H127       35.0838  -48.5705  -51.1543 H         1 UNK         0.3016 
@<TRIPOS>BOND
     1    1    2 1    
     2    1   67 1    
     3    1   68 1    
     4    1   69 1    
     5    2    3 2    
     6    2    4 am   BACKBONE|DICT|INTERRES
     7    4    5 1    
     8    4   70 1    
     9    5    6 1    
    10    5   65 1    
    11    5   71 1    
    12    6    7 1    
    13    6   72 1    
    14    6   73 1    
    15    7    8 1    
    16    8    9 1    
    17    8   74 1    
    18    8   75 1    
    19    9   10 ar   
    20    9   14 ar   
    21   10   11 ar   
    22   10   76 1    
    23   11   12 ar   
    24   11   48 1    
    25   12   13 ar   
    26   12   77 1    
    27   13   14 ar   
    28   13   15 1    
    29   14   78 1    
    30   15   16 1    
    31   15   79 1    
    32   15   80 1    
    33   16   17 1    
    34   17   18 1    
    35   17   81 1    
    36   17   82 1    
    37   18   19 1    
    38   18   22 1    
    39   18   83 1    
    40   19   20 am   BACKBONE|DICT|INTERRES
    41   19   21 2    
    42   20   84 1    
    43   20   85 1    
    44   22   23 am   BACKBONE|DICT|INTERRES
    45   22   86 1    
    46   23   24 2    
    47   23   25 1    
    48   25   26 1    
    49   25   27 1    
    50   25   87 1    
    51   26   88 1    
    52   26   89 1    
    53   26   90 1    
    54   27   28 am   BACKBONE|DICT|INTERRES
    55   27   91 1    
    56   28   29 2    
    57   28   30 1    
    58   30   31 1    
    59   30   32 1    
    60   30   92 1    
    61   31   93 1    
    62   31   94 1    
    63   31   95 1    
    64   32   33 am   BACKBONE|DICT|INTERRES
    65   32   96 1    
    66   33   34 2    
    67   33   35 1    
    68   35   36 1    
    69   35   37 1    
    70   35   97 1    
    71   36   98 1    
    72   36   99 1    
    73   36  100 1    
    74   37   38 am   BACKBONE|DICT|INTERRES
    75   37  101 1    
    76   38   39 2    
    77   38   40 1    
    78   40   41 1    
    79   40   42 1    
    80   40  102 1    
    81   41  103 1    
    82   41  104 1    
    83   41  105 1    
    84   42   43 am   BACKBONE|DICT|INTERRES
    85   42  106 1    
    86   43   44 2    
    87   43   45 1    
    88   45   46 1    
    89   45   49 1    
    90   45  107 1    
    91   46   47 1    
    92   46  108 1    
    93   46  109 1    
    94   47   48 1    
    95   48  110 1    
    96   48  111 1    
    97   49   50 am   BACKBONE|DICT|INTERRES
    98   49  112 1    
    99   50   51 2    
   100   50   52 1    
   101   52   53 1    
   102   52   54 1    
   103   52  113 1    
   104   53  114 1    
   105   53  115 1    
   106   53  116 1    
   107   54   55 am   BACKBONE|DICT|INTERRES
   108   54  117 1    
   109   55   56 2    
   110   55   57 1    
   111   57   58 1    
   112   57   59 1    
   113   57  118 1    
   114   58  119 1    
   115   58  120 1    
   116   58  121 1    
   117   59   60 am   BACKBONE|DICT|INTERRES
   118   59  122 1    
   119   60   61 2    
   120   60   62 1    
   121   62   63 1    
   122   62   64 1    
   123   62  123 1    
   124   63  124 1    
   125   63  125 1    
   126   63  126 1    
   127   64   65 am   BACKBONE|DICT|INTERRES
   128   64  127 1    
   129   65   66 2    
@<TRIPOS>SUBSTRUCTURE
     1 UNK         1 GROUP             0       ****    0 ROOT    
