@<TRIPOS>MOLECULE
3R134
127   129    1
SMALL
USER_CHARGES


@<TRIPOS>ATOM
      1 CA         38.2781  -45.5709  -53.3545 C.3       0 UNK        -0.1968 
      2 C          36.7625  -45.6788  -53.2722 C.2       0 UNK         0.4852 
      3 O          36.2117  -46.7365  -53.5766 O.2       0 UNK        -0.5359 
      4 N          36.0933  -44.5903  -52.8693 N.am      1 UNK        -0.4300 
      5 CA         34.6400  -44.4843  -52.6988 C.3       1 UNK         0.0863 
      6 C6         34.2048  -43.0204  -52.4286 C.3       11 UNK        -0.0953 
      7 S7         34.7405  -41.8824  -53.7536 S.3       11 UNK        -0.2369 
      8 C8         33.1639  -41.4192  -54.5388 C.3       11 UNK         0.0226 
      9 C9         32.3911  -42.6239  -55.0577 C.ar      11 UNK        -0.0699 
     10 C10        32.9313  -43.4341  -56.0614 C.ar      11 UNK        -0.0804 
     11 C11        32.2251  -44.5449  -56.5303 C.ar      11 UNK        -0.0871 
     12 C12        30.9626  -44.8310  -56.0018 C.ar      11 UNK        -0.1008 
     13 C13        30.4100  -44.0274  -55.0016 C.ar      11 UNK        -0.0735 
     14 C14        31.1302  -42.9246  -54.5339 C.ar      11 UNK        -0.0945 
     15 C15        29.0506  -44.3621  -54.4052 C.3       11 UNK         0.0169 
     16 S16        27.7013  -44.1812  -55.6149 S.3       11 UNK        -0.2669 
     17 C17        26.2790  -44.0414  -54.4761 C.3       11 UNK        -0.0850 
     18 CA         24.8947  -44.2792  -55.1351 C.3       10 UNK         0.0855 
     19 C          24.4880  -43.1456  -56.1254 C.2       10 UNK         0.5543 
     20 N          24.1126  -43.4353  -57.3666 N.am      10 UNK        -0.7343 
     21 O          24.4947  -41.9755  -55.7506 O.2       10 UNK        -0.5027 
     22 N          24.7836  -45.6415  -55.6739 N.am      10 UNK        -0.4495 
     23 C          23.6386  -46.3226  -55.8074 C.2       10 UNK         0.4903 
     24 O          22.5490  -45.9180  -55.3985 O.2       10 UNK        -0.4860 
     25 CA         23.7377  -47.6793  -56.5323 C.3       9 UNK         0.0227 
     26 CB         22.3686  -48.2078  -57.0109 C.3       9 UNK        -0.1964 
     27 N          24.7084  -47.6707  -57.6356 N.am      9 UNK        -0.4231 
     28 C          24.6902  -46.8887  -58.7295 C.2       9 UNK         0.5014 
     29 O          23.8221  -46.0401  -58.9383 O.2       9 UNK        -0.5270 
     30 CA         25.8454  -47.0228  -59.7455 C.3       8 UNK         0.0284 
     31 CB         26.5671  -45.6739  -59.9183 C.3       8 UNK        -0.1977 
     32 N          26.8389  -48.0340  -59.3808 N.am      8 UNK        -0.4342 
     33 C          26.6942  -49.3616  -59.4963 C.2       8 UNK         0.5039 
     34 O          25.7330  -49.9020  -60.0433 O.2       8 UNK        -0.5547 
     35 CA         27.7860  -50.2295  -58.8396 C.3       7 UNK         0.0281 
     36 CB         28.8153  -50.6892  -59.8841 C.3       7 UNK        -0.1963 
     37 N          28.4829  -49.5403  -57.7463 N.am      7 UNK        -0.4444 
     38 C          27.9249  -49.1325  -56.6003 C.2       7 UNK         0.5104 
     39 O          26.7513  -49.3736  -56.3143 O.2       7 UNK        -0.5100 
     40 CA         28.7699  -48.2416  -55.6601 C.3       6 UNK         0.0396 
     41 CB         28.1724  -48.1945  -54.2415 C.3       6 UNK        -0.1801 
     42 N          30.1997  -48.5654  -55.5567 N.am      6 UNK        -0.4747 
     43 C          31.1397  -48.5048  -56.5137 C.2       6 UNK         0.5012 
     44 O          30.8966  -48.2506  -57.6931 O.2       6 UNK        -0.5003 
     45 CA         32.5929  -48.7766  -56.0789 C.3       5 UNK         0.0782 
     46 C46        33.2981  -47.4675  -55.6357 C.3       11 UNK        -0.0868 
     47 S47        34.1100  -46.5606  -56.9972 S.3       11 UNK        -0.2515 
     48 C48        32.8171  -45.4300  -57.6171 C.3       11 UNK         0.0199 
     49 N          32.6277  -49.7815  -55.0136 N.am      5 UNK        -0.4607 
     50 C          32.5593  -51.1057  -55.2042 C.2       4 UNK         0.5031 
     51 O          32.5444  -51.6344  -56.3157 O.2       4 UNK        -0.5119 
     52 CA         32.4970  -51.9948  -53.9471 C.3       4 UNK         0.0263 
     53 CB         33.9047  -52.4817  -53.5665 C.3       4 UNK        -0.1967 
     54 N          31.8926  -51.3212  -52.7938 N.am      4 UNK        -0.4237 
     55 C          30.5902  -51.0203  -52.6835 C.2       3 UNK         0.4908 
     56 O          29.7382  -51.3671  -53.5007 O.2       3 UNK        -0.5102 
     57 CA         30.1673  -50.1569  -51.4778 C.3       3 UNK         0.0241 
     58 CB         29.6824  -51.0500  -50.3245 C.3       3 UNK        -0.1971 
     59 N          31.2101  -49.2471  -50.9834 N.am      3 UNK        -0.4139 
     60 C          31.8152  -48.2960  -51.7088 C.2       2 UNK         0.5016 
     61 O          31.5640  -48.0792  -52.8978 O.2       2 UNK        -0.5319 
     62 CA         32.9294  -47.5063  -51.0110 C.3       2 UNK         0.0286 
     63 CB         34.1156  -48.4343  -50.6674 C.3       2 UNK        -0.1963 
     64 N          33.3762  -46.4362  -51.9012 N.am      2 UNK        -0.4790 
     65 C          34.1732  -45.4173  -51.5627 C.2       1 UNK         0.5024 
     66 O          34.5639  -45.2086  -50.4115 O.2       1 UNK        -0.4888 
     67 H67        38.6336  -44.5808  -53.0694 H         1 UNK         0.0892 
     68 H68        38.7421  -46.3016  -52.6926 H         1 UNK         0.0892 
     69 H69        38.6128  -45.7711  -54.3719 H         1 UNK         0.0892 
     70 H70        36.6094  -43.7558  -52.6314 H         1 UNK         0.3107 
     71 H71        34.1744  -44.8110  -53.6317 H         1 UNK         0.0773 
     72 H72        34.6308  -42.6590  -51.4906 H         1 UNK         0.0680 
     73 H73        33.1219  -42.9583  -52.3093 H         1 UNK         0.0680 
     74 H74        33.3698  -40.7438  -55.3701 H         1 UNK         0.0650 
     75 H75        32.5685  -40.8513  -53.8221 H         1 UNK         0.0650 
     76 H76        33.9081  -43.2073  -56.4667 H         1 UNK         0.1397 
     77 H77        30.4062  -45.6807  -56.3684 H         1 UNK         0.1363 
     78 H78        30.7098  -42.3004  -53.7572 H         1 UNK         0.1355 
     79 H79        29.0652  -45.3834  -54.0273 H         1 UNK         0.0707 
     80 H80        28.8494  -43.7205  -53.5457 H         1 UNK         0.0707 
     81 H81        26.4126  -44.7589  -53.6647 H         1 UNK         0.1034 
     82 H82        26.3096  -43.0582  -54.0023 H         1 UNK         0.1034 
     83 H83        24.1668  -44.2023  -54.3251 H         1 UNK         0.0482 
     84 H84        23.8479  -42.6844  -57.9836 H         1 UNK         0.3460 
     85 H85        24.0640  -44.3923  -57.6945 H         1 UNK         0.3460 
     86 H86        25.6312  -46.0314  -56.0573 H         1 UNK         0.2989 
     87 H87        24.1229  -48.3862  -55.7962 H         1 UNK         0.0559 
     88 H88        21.6857  -48.3431  -56.1713 H         1 UNK         0.0848 
     89 H89        22.4674  -49.1744  -57.5048 H         1 UNK         0.0848 
     90 H90        21.8907  -47.5210  -57.7102 H         1 UNK         0.0848 
     91 H91        25.4755  -48.3252  -57.5224 H         1 UNK         0.3144 
     92 H92        25.4020  -47.3021  -60.7035 H         1 UNK         0.0727 
     93 H93        27.0086  -45.3277  -58.9825 H         1 UNK         0.0790 
     94 H94        25.8774  -44.8993  -60.2567 H         1 UNK         0.0790 
     95 H95        27.3618  -45.7400  -60.6618 H         1 UNK         0.0790 
     96 H96        27.6813  -47.6952  -58.9390 H         1 UNK         0.3215 
     97 H97        27.2967  -51.1122  -58.4221 H         1 UNK         0.0863 
     98 H98        29.5500  -51.3649  -59.4456 H         1 UNK         0.0808 
     99 H99        29.3530  -49.8461  -60.3198 H         1 UNK         0.0808 
    100 H100       28.3300  -51.2253  -60.7010 H         1 UNK         0.0808 
    101 H101       29.4426  -49.2431  -57.9171 H         1 UNK         0.3118 
    102 H102       28.7064  -47.2330  -56.0704 H         1 UNK         0.0546 
    103 H103       28.0470  -49.1970  -53.8316 H         1 UNK         0.0828 
    104 H104       27.1892  -47.7219  -54.2460 H         1 UNK         0.0828 
    105 H105       28.7994  -47.6302  -53.5521 H         1 UNK         0.0828 
    106 H106       30.5296  -48.7564  -54.6175 H         1 UNK         0.3005 
    107 H107       33.1228  -49.1840  -56.9434 H         1 UNK         0.1257 
    108 H108       34.1023  -47.7114  -54.9400 H         1 UNK         0.0775 
    109 H109       32.6355  -46.8120  -55.0702 H         1 UNK         0.0775 
    110 H110       33.2545  -44.7988  -58.3921 H         1 UNK         0.0840 
    111 H111       32.0357  -46.0023  -58.1159 H         1 UNK         0.0840 
    112 H112       32.5751  -49.4174  -54.0702 H         1 UNK         0.2987 
    113 H113       31.8870  -52.8673  -54.1915 H         1 UNK         0.0785 
    114 H114       34.3713  -53.0123  -54.3978 H         1 UNK         0.0798 
    115 H115       33.8720  -53.1712  -52.7227 H         1 UNK         0.0798 
    116 H116       34.5618  -51.6529  -53.2997 H         1 UNK         0.0798 
    117 H117       32.5181  -51.0187  -52.0618 H         1 UNK         0.3079 
    118 H118       29.3286  -49.5384  -51.8013 H         1 UNK         0.0794 
    119 H119       29.2801  -50.4561  -49.5035 H         1 UNK         0.0786 
    120 H120       30.4864  -51.6718  -49.9285 H         1 UNK         0.0786 
    121 H121       28.8867  -51.7188  -50.6565 H         1 UNK         0.0786 
    122 H122       31.4801  -49.3618  -50.0168 H         1 UNK         0.3032 
    123 H123       32.5201  -47.0654  -50.0994 H         1 UNK         0.1094 
    124 H124       34.5531  -48.8734  -51.5653 H         1 UNK         0.0794 
    125 H125       34.9077  -47.8975  -50.1455 H         1 UNK         0.0794 
    126 H126       33.8124  -49.2533  -50.0144 H         1 UNK         0.0794 
    127 H127       33.0459  -46.5360  -52.8533 H         1 UNK         0.3016 
@<TRIPOS>BOND
     1    1    2 1    
     2    1   67 1    
     3    1   68 1    
     4    1   69 1    
     5    2    3 2    
     6    2    4 am   BACKBONE|DICT|INTERRES
     7    4    5 1    
     8    4   70 1    
     9    5    6 1    
    10    5   65 1    
    11    5   71 1    
    12    6    7 1    
    13    6   72 1    
    14    6   73 1    
    15    7    8 1    
    16    8    9 1    
    17    8   74 1    
    18    8   75 1    
    19    9   10 ar   
    20    9   14 ar   
    21   10   11 ar   
    22   10   76 1    
    23   11   12 ar   
    24   11   48 1    
    25   12   13 ar   
    26   12   77 1    
    27   13   14 ar   
    28   13   15 1    
    29   14   78 1    
    30   15   16 1    
    31   15   79 1    
    32   15   80 1    
    33   16   17 1    
    34   17   18 1    
    35   17   81 1    
    36   17   82 1    
    37   18   19 1    
    38   18   22 1    
    39   18   83 1    
    40   19   20 am   BACKBONE|DICT|INTERRES
    41   19   21 2    
    42   20   84 1    
    43   20   85 1    
    44   22   23 am   BACKBONE|DICT|INTERRES
    45   22   86 1    
    46   23   24 2    
    47   23   25 1    
    48   25   26 1    
    49   25   27 1    
    50   25   87 1    
    51   26   88 1    
    52   26   89 1    
    53   26   90 1    
    54   27   28 am   BACKBONE|DICT|INTERRES
    55   27   91 1    
    56   28   29 2    
    57   28   30 1    
    58   30   31 1    
    59   30   32 1    
    60   30   92 1    
    61   31   93 1    
    62   31   94 1    
    63   31   95 1    
    64   32   33 am   BACKBONE|DICT|INTERRES
    65   32   96 1    
    66   33   34 2    
    67   33   35 1    
    68   35   36 1    
    69   35   37 1    
    70   35   97 1    
    71   36   98 1    
    72   36   99 1    
    73   36  100 1    
    74   37   38 am   BACKBONE|DICT|INTERRES
    75   37  101 1    
    76   38   39 2    
    77   38   40 1    
    78   40   41 1    
    79   40   42 1    
    80   40  102 1    
    81   41  103 1    
    82   41  104 1    
    83   41  105 1    
    84   42   43 am   BACKBONE|DICT|INTERRES
    85   42  106 1    
    86   43   44 2    
    87   43   45 1    
    88   45   46 1    
    89   45   49 1    
    90   45  107 1    
    91   46   47 1    
    92   46  108 1    
    93   46  109 1    
    94   47   48 1    
    95   48  110 1    
    96   48  111 1    
    97   49   50 am   BACKBONE|DICT|INTERRES
    98   49  112 1    
    99   50   51 2    
   100   50   52 1    
   101   52   53 1    
   102   52   54 1    
   103   52  113 1    
   104   53  114 1    
   105   53  115 1    
   106   53  116 1    
   107   54   55 am   BACKBONE|DICT|INTERRES
   108   54  117 1    
   109   55   56 2    
   110   55   57 1    
   111   57   58 1    
   112   57   59 1    
   113   57  118 1    
   114   58  119 1    
   115   58  120 1    
   116   58  121 1    
   117   59   60 am   BACKBONE|DICT|INTERRES
   118   59  122 1    
   119   60   61 2    
   120   60   62 1    
   121   62   63 1    
   122   62   64 1    
   123   62  123 1    
   124   63  124 1    
   125   63  125 1    
   126   63  126 1    
   127   64   65 am   BACKBONE|DICT|INTERRES
   128   64  127 1    
   129   65   66 2    
@<TRIPOS>SUBSTRUCTURE
     1 UNK         1 GROUP             0       ****    0 ROOT    
