@<TRIPOS>MOLECULE
3R134
127   129    1
SMALL
USER_CHARGES


@<TRIPOS>ATOM
      1 CA         30.5482  -43.6679  -60.0718 C.3       0 UNK        -0.1968 
      2 C          31.4952  -44.4271  -59.1530 C.2       0 UNK         0.4852 
      3 O          32.7112  -44.2873  -59.2933 O.2       0 UNK        -0.5359 
      4 N          30.9352  -45.2103  -58.2204 N.am      1 UNK        -0.4300 
      5 CA         31.5927  -46.1021  -57.2589 C.3       1 UNK         0.0863 
      6 C6         32.7392  -45.4120  -56.4676 C.3       11 UNK        -0.0953 
      7 S7         33.0948  -46.1925  -54.8568 S.3       11 UNK        -0.2369 
      8 C8         33.5367  -44.7485  -53.8413 C.3       11 UNK         0.0226 
      9 C9         32.3738  -44.2905  -52.9738 C.ar      11 UNK        -0.0699 
     10 C10        32.3796  -44.5638  -51.6027 C.ar      11 UNK        -0.0804 
     11 C11        31.3223  -44.1464  -50.7888 C.ar      11 UNK        -0.0871 
     12 C12        30.2533  -43.4479  -51.3573 C.ar      11 UNK        -0.1008 
     13 C13        30.2406  -43.1587  -52.7251 C.ar      11 UNK        -0.0735 
     14 C14        31.3042  -43.5802  -53.5288 C.ar      11 UNK        -0.0945 
     15 C15        29.0883  -42.3633  -53.3189 C.3       11 UNK         0.0169 
     16 S16        27.6636  -43.4267  -53.7028 S.3       11 UNK        -0.2669 
     17 C17        28.0621  -44.0212  -55.3822 C.3       11 UNK        -0.0850 
     18 CA         27.1471  -43.3692  -56.4719 C.3       10 UNK         0.0855 
     19 C          27.8672  -42.2538  -57.2935 C.2       10 UNK         0.5543 
     20 N          27.5721  -42.0872  -58.5771 N.am      10 UNK        -0.7343 
     21 O          28.6848  -41.5098  -56.7594 O.2       10 UNK        -0.5027 
     22 N          26.4232  -44.3650  -57.2867 N.am      10 UNK        -0.4495 
     23 C          27.0017  -45.3048  -58.0409 C.2       10 UNK         0.4903 
     24 O          28.2199  -45.4610  -58.1206 O.2       10 UNK        -0.4860 
     25 CA         26.0822  -46.2064  -58.8667 C.3       9 UNK         0.0227 
     26 CB         25.9019  -45.6348  -60.2862 C.3       9 UNK        -0.1964 
     27 N          26.7051  -47.5241  -58.9075 N.am      9 UNK        -0.4231 
     28 C          26.1715  -48.6673  -59.3422 C.2       9 UNK         0.5014 
     29 O          25.0457  -48.7633  -59.8325 O.2       9 UNK        -0.5270 
     30 CA         27.0336  -49.9312  -59.1711 C.3       8 UNK         0.0284 
     31 CB         28.3529  -49.8477  -59.9676 C.3       8 UNK        -0.1977 
     32 N          27.2588  -50.2758  -57.7597 N.am      8 UNK        -0.4342 
     33 C          27.9371  -49.5831  -56.8338 C.2       8 UNK         0.5039 
     34 O          28.5928  -48.5639  -57.0657 O.2       8 UNK        -0.5547 
     35 CA         27.8614  -50.1224  -55.3988 C.3       7 UNK         0.0281 
     36 CB         29.0885  -50.9797  -55.0607 C.3       7 UNK        -0.1963 
     37 N          27.7623  -49.0152  -54.4491 N.am      7 UNK        -0.4444 
     38 C          26.6319  -48.3384  -54.2017 C.2       7 UNK         0.5104 
     39 O          25.5486  -48.6339  -54.7095 O.2       7 UNK        -0.5100 
     40 CA         26.7016  -47.1184  -53.2570 C.3       6 UNK         0.0396 
     41 CB         25.5215  -47.0862  -52.2629 C.3       6 UNK        -0.1801 
     42 N          27.9839  -46.9409  -52.5585 N.am      6 UNK        -0.4747 
     43 C          28.5268  -47.7586  -51.6445 C.2       6 UNK         0.5012 
     44 O          27.9981  -48.7981  -51.2436 O.2       6 UNK        -0.5003 
     45 CA         29.8996  -47.3475  -51.0821 C.3       5 UNK         0.0782 
     46 C46        29.7413  -46.7436  -49.6642 C.3       11 UNK        -0.0868 
     47 S47        31.3339  -46.2269  -48.9395 S.3       11 UNK        -0.2515 
     48 C48        31.3413  -44.4402  -49.2944 C.3       11 UNK         0.0199 
     49 N          30.8254  -48.4829  -51.1019 N.am      5 UNK        -0.4607 
     50 C          31.2876  -49.0712  -52.2103 C.2       4 UNK         0.5031 
     51 O          30.9778  -48.7254  -53.3537 O.2       4 UNK        -0.5119 
     52 CA         32.2275  -50.2668  -51.9926 C.3       4 UNK         0.0263 
     53 CB         31.4349  -51.5806  -51.9100 C.3       4 UNK        -0.1967 
     54 N          33.1972  -50.3651  -53.0795 N.am      4 UNK        -0.4237 
     55 C          34.3235  -49.6510  -53.1679 C.2       3 UNK         0.4908 
     56 O          34.7327  -48.9046  -52.2777 O.2       3 UNK        -0.5102 
     57 CA         35.1356  -49.7836  -54.4687 C.3       3 UNK         0.0241 
     58 CB         35.9306  -51.1042  -54.5059 C.3       3 UNK        -0.1971 
     59 N          34.3446  -49.5843  -55.6923 N.am      3 UNK        -0.4139 
     60 C          33.3679  -50.3471  -56.2070 C.2       2 UNK         0.5016 
     61 O          32.9694  -51.3993  -55.7038 O.2       2 UNK        -0.5319 
     62 CA         32.6869  -49.7788  -57.4574 C.3       2 UNK         0.0286 
     63 CB         31.5993  -50.6931  -58.0518 C.3       2 UNK        -0.1963 
     64 N          32.1250  -48.4776  -57.1057 N.am      2 UNK        -0.4790 
     65 C          32.0499  -47.4212  -57.9200 C.2       1 UNK         0.5024 
     66 O          32.3558  -47.4655  -59.1142 O.2       1 UNK        -0.4888 
     67 H67        29.5130  -43.9824  -59.9428 H         1 UNK         0.0892 
     68 H68        30.6053  -42.5991  -59.8677 H         1 UNK         0.0892 
     69 H69        30.8214  -43.8332  -61.1135 H         1 UNK         0.0892 
     70 H70        29.9159  -45.2852  -58.2089 H         1 UNK         0.3107 
     71 H71        30.7999  -46.3594  -56.5533 H         1 UNK         0.0773 
     72 H72        32.4741  -44.3698  -56.2897 H         1 UNK         0.0680 
     73 H73        33.6618  -45.3853  -57.0503 H         1 UNK         0.0680 
     74 H74        33.8830  -43.9267  -54.4696 H         1 UNK         0.0650 
     75 H75        34.3873  -45.0233  -53.2158 H         1 UNK         0.0650 
     76 H76        33.2051  -45.1090  -51.1652 H         1 UNK         0.1397 
     77 H77        29.4314  -43.1187  -50.7358 H         1 UNK         0.1363 
     78 H78        31.3008  -43.3511  -54.5847 H         1 UNK         0.1355 
     79 H79        28.7699  -41.6015  -52.6057 H         1 UNK         0.0707 
     80 H80        29.4085  -41.8224  -54.2101 H         1 UNK         0.0707 
     81 H81        29.1217  -43.8742  -55.5979 H         1 UNK         0.1034 
     82 H82        27.9411  -45.1040  -55.3694 H         1 UNK         0.1034 
     83 H83        26.3445  -42.8315  -55.9661 H         1 UNK         0.0482 
     84 H84        26.8872  -42.6730  -59.0251 H         1 UNK         0.3460 
     85 H85        28.0268  -41.3523  -59.0949 H         1 UNK         0.3460 
     86 H86        25.4162  -44.2821  -57.2887 H         1 UNK         0.2989 
     87 H87        25.1136  -46.2901  -58.3701 H         1 UNK         0.0559 
     88 H88        25.4685  -44.6346  -60.2540 H         1 UNK         0.0848 
     89 H89        25.2344  -46.2519  -60.8873 H         1 UNK         0.0848 
     90 H90        26.8543  -45.5623  -60.8133 H         1 UNK         0.0848 
     91 H91        27.6095  -47.5776  -58.4379 H         1 UNK         0.3144 
     92 H92        26.4595  -50.7592  -59.5905 H         1 UNK         0.0727 
     93 H93        28.9033  -50.7868  -59.9135 H         1 UNK         0.0790 
     94 H94        29.0101  -49.0554  -59.6079 H         1 UNK         0.0790 
     95 H95        28.1565  -49.6486  -61.0219 H         1 UNK         0.0790 
     96 H96        26.7491  -51.0905  -57.4451 H         1 UNK         0.3215 
     97 H97        26.9721  -50.7486  -55.2973 H         1 UNK         0.0863 
     98 H98        29.0180  -51.3737  -54.0476 H         1 UNK         0.0808 
     99 H99        30.0154  -50.4107  -55.1387 H         1 UNK         0.0808 
    100 H100       29.1702  -51.8329  -55.7350 H         1 UNK         0.0808 
    101 H101       28.6282  -48.6904  -54.0394 H         1 UNK         0.3118 
    102 H102       26.5893  -46.2486  -53.9025 H         1 UNK         0.0546 
    103 H103       24.5670  -47.0515  -52.7895 H         1 UNK         0.0828 
    104 H104       25.5662  -46.2051  -51.6230 H         1 UNK         0.0828 
    105 H105       25.5030  -47.9681  -51.6223 H         1 UNK         0.0828 
    106 H106       28.4964  -46.1090  -52.8208 H         1 UNK         0.3005 
    107 H107       30.3215  -46.5849  -51.7400 H         1 UNK         0.1257 
    108 H108       29.2886  -47.4711  -48.9874 H         1 UNK         0.0775 
    109 H109       29.0633  -45.8879  -49.6833 H         1 UNK         0.0775 
    110 H110       30.4941  -43.9721  -48.7905 H         1 UNK         0.0840 
    111 H111       32.2377  -43.9980  -48.8575 H         1 UNK         0.0840 
    112 H112       31.1077  -48.8348  -50.1992 H         1 UNK         0.2987 
    113 H113       32.7619  -50.1256  -51.0504 H         1 UNK         0.0785 
    114 H114       32.0831  -52.4138  -51.6381 H         1 UNK         0.0798 
    115 H115       30.9631  -51.8261  -52.8609 H         1 UNK         0.0798 
    116 H116       30.6481  -51.5220  -51.1567 H         1 UNK         0.0798 
    117 H117       32.9249  -50.9030  -53.8991 H         1 UNK         0.3079 
    118 H118       35.8632  -48.9702  -54.4607 H         1 UNK         0.0794 
    119 H119       36.5838  -51.1874  -53.6363 H         1 UNK         0.0786 
    120 H120       36.5625  -51.1608  -55.3922 H         1 UNK         0.0786 
    121 H121       35.2784  -51.9779  -54.5033 H         1 UNK         0.0786 
    122 H122       34.5317  -48.7121  -56.1681 H         1 UNK         0.3032 
    123 H123       33.4705  -49.6527  -58.2084 H         1 UNK         0.1094 
    124 H124       31.2125  -50.2839  -58.9846 H         1 UNK         0.0794 
    125 H125       31.9972  -51.6843  -58.2725 H         1 UNK         0.0794 
    126 H126       30.7597  -50.8196  -57.3713 H         1 UNK         0.0794 
    127 H127       31.8646  -48.3598  -56.1334 H         1 UNK         0.3016 
@<TRIPOS>BOND
     1    1    2 1    
     2    1   67 1    
     3    1   68 1    
     4    1   69 1    
     5    2    3 2    
     6    2    4 am   BACKBONE|DICT|INTERRES
     7    4    5 1    
     8    4   70 1    
     9    5    6 1    
    10    5   65 1    
    11    5   71 1    
    12    6    7 1    
    13    6   72 1    
    14    6   73 1    
    15    7    8 1    
    16    8    9 1    
    17    8   74 1    
    18    8   75 1    
    19    9   10 ar   
    20    9   14 ar   
    21   10   11 ar   
    22   10   76 1    
    23   11   12 ar   
    24   11   48 1    
    25   12   13 ar   
    26   12   77 1    
    27   13   14 ar   
    28   13   15 1    
    29   14   78 1    
    30   15   16 1    
    31   15   79 1    
    32   15   80 1    
    33   16   17 1    
    34   17   18 1    
    35   17   81 1    
    36   17   82 1    
    37   18   19 1    
    38   18   22 1    
    39   18   83 1    
    40   19   20 am   BACKBONE|DICT|INTERRES
    41   19   21 2    
    42   20   84 1    
    43   20   85 1    
    44   22   23 am   BACKBONE|DICT|INTERRES
    45   22   86 1    
    46   23   24 2    
    47   23   25 1    
    48   25   26 1    
    49   25   27 1    
    50   25   87 1    
    51   26   88 1    
    52   26   89 1    
    53   26   90 1    
    54   27   28 am   BACKBONE|DICT|INTERRES
    55   27   91 1    
    56   28   29 2    
    57   28   30 1    
    58   30   31 1    
    59   30   32 1    
    60   30   92 1    
    61   31   93 1    
    62   31   94 1    
    63   31   95 1    
    64   32   33 am   BACKBONE|DICT|INTERRES
    65   32   96 1    
    66   33   34 2    
    67   33   35 1    
    68   35   36 1    
    69   35   37 1    
    70   35   97 1    
    71   36   98 1    
    72   36   99 1    
    73   36  100 1    
    74   37   38 am   BACKBONE|DICT|INTERRES
    75   37  101 1    
    76   38   39 2    
    77   38   40 1    
    78   40   41 1    
    79   40   42 1    
    80   40  102 1    
    81   41  103 1    
    82   41  104 1    
    83   41  105 1    
    84   42   43 am   BACKBONE|DICT|INTERRES
    85   42  106 1    
    86   43   44 2    
    87   43   45 1    
    88   45   46 1    
    89   45   49 1    
    90   45  107 1    
    91   46   47 1    
    92   46  108 1    
    93   46  109 1    
    94   47   48 1    
    95   48  110 1    
    96   48  111 1    
    97   49   50 am   BACKBONE|DICT|INTERRES
    98   49  112 1    
    99   50   51 2    
   100   50   52 1    
   101   52   53 1    
   102   52   54 1    
   103   52  113 1    
   104   53  114 1    
   105   53  115 1    
   106   53  116 1    
   107   54   55 am   BACKBONE|DICT|INTERRES
   108   54  117 1    
   109   55   56 2    
   110   55   57 1    
   111   57   58 1    
   112   57   59 1    
   113   57  118 1    
   114   58  119 1    
   115   58  120 1    
   116   58  121 1    
   117   59   60 am   BACKBONE|DICT|INTERRES
   118   59  122 1    
   119   60   61 2    
   120   60   62 1    
   121   62   63 1    
   122   62   64 1    
   123   62  123 1    
   124   63  124 1    
   125   63  125 1    
   126   63  126 1    
   127   64   65 am   BACKBONE|DICT|INTERRES
   128   64  127 1    
   129   65   66 2    
@<TRIPOS>SUBSTRUCTURE
     1 UNK         1 GROUP             0       ****    0 ROOT    
