@<TRIPOS>MOLECULE
3R134
127   129    1
SMALL
USER_CHARGES


@<TRIPOS>ATOM
      1 CA         37.1706  -47.2427  -56.4107 C.3       0 UNK        -0.1968 
      2 C          36.5387  -46.7248  -55.1273 C.2       0 UNK         0.4852 
      3 O          37.2407  -46.5609  -54.1280 O.2       0 UNK        -0.5359 
      4 N          35.2203  -46.4796  -55.1517 N.am      1 UNK        -0.4300 
      5 CA         34.3617  -45.9660  -54.0700 C.3       1 UNK         0.0863 
      6 C6         34.7646  -44.5605  -53.5535 C.3       11 UNK        -0.0953 
      7 S7         34.7306  -43.3137  -54.8868 S.3       11 UNK        -0.2369 
      8 C8         33.4970  -42.1218  -54.2785 C.3       11 UNK         0.0226 
      9 C9         32.0770  -42.6711  -54.3174 C.ar      11 UNK        -0.0699 
     10 C10        31.4528  -43.0950  -53.1400 C.ar      11 UNK        -0.0804 
     11 C11        30.1279  -43.5415  -53.1560 C.ar      11 UNK        -0.0871 
     12 C12        29.4286  -43.5638  -54.3672 C.ar      11 UNK        -0.1008 
     13 C13        30.0437  -43.1544  -55.5527 C.ar      11 UNK        -0.0735 
     14 C14        31.3687  -42.7083  -55.5229 C.ar      11 UNK        -0.0945 
     15 C15        29.2645  -43.1864  -56.8571 C.3       11 UNK         0.0169 
     16 S16        28.0748  -41.8128  -56.9403 S.3       11 UNK        -0.2669 
     17 C17        27.2850  -42.1238  -58.5552 C.3       11 UNK        -0.0850 
     18 CA         25.8523  -42.7082  -58.4333 C.3       10 UNK         0.0855 
     19 C          25.1711  -42.7497  -59.8343 C.2       10 UNK         0.5543 
     20 N          24.9583  -43.9111  -60.4429 N.am      10 UNK        -0.7343 
     21 O          24.8302  -41.7020  -60.3777 O.2       10 UNK        -0.5027 
     22 N          25.8457  -43.9937  -57.7165 N.am      10 UNK        -0.4495 
     23 C          24.7529  -44.6198  -57.2598 C.2       10 UNK         0.4903 
     24 O          23.6335  -44.1052  -57.2435 O.2       10 UNK        -0.4860 
     25 CA         24.9355  -46.0661  -56.7448 C.3       9 UNK         0.0227 
     26 CB         23.6892  -46.9381  -57.0020 C.3       9 UNK        -0.1964 
     27 N          26.1389  -46.7523  -57.2416 N.am      9 UNK        -0.4231 
     28 C          26.4933  -46.9561  -58.5216 C.2       9 UNK         0.5014 
     29 O          25.8462  -46.5542  -59.4898 O.2       9 UNK        -0.5270 
     30 CA         27.8160  -47.6972  -58.7623 C.3       8 UNK         0.0284 
     31 CB         29.0154  -46.7750  -58.4845 C.3       8 UNK        -0.1977 
     32 N          27.9393  -48.9128  -57.9597 N.am      8 UNK        -0.4342 
     33 C          27.2298  -50.0334  -58.1502 C.2       8 UNK         0.5039 
     34 O          26.3848  -50.1733  -59.0352 O.2       8 UNK        -0.5547 
     35 CA         27.5184  -51.1997  -57.1930 C.3       7 UNK         0.0281 
     36 CB         28.8152  -51.9274  -57.5863 C.3       7 UNK        -0.1963 
     37 N          27.6073  -50.7469  -55.8050 N.am      7 UNK        -0.4444 
     38 C          26.5477  -50.4853  -55.0283 C.2       7 UNK         0.5104 
     39 O          25.3799  -50.6541  -55.3799 O.2       7 UNK        -0.5100 
     40 CA         26.8345  -49.9480  -53.6154 C.3       6 UNK         0.0396 
     41 CB         26.8938  -51.1032  -52.6040 C.3       6 UNK        -0.1801 
     42 N          28.0699  -49.1663  -53.5254 N.am      6 UNK        -0.4747 
     43 C          28.2448  -47.9566  -54.0795 C.2       6 UNK         0.5012 
     44 O          27.4004  -47.3907  -54.7747 O.2       6 UNK        -0.5003 
     45 CA         29.6232  -47.2923  -53.8659 C.3       5 UNK         0.0782 
     46 C46        29.7570  -46.7079  -52.4335 C.3       11 UNK        -0.0868 
     47 S47        28.4770  -45.4849  -51.9821 S.3       11 UNK        -0.2515 
     48 C48        29.4509  -43.9494  -51.8514 C.3       11 UNK         0.0199 
     49 N          30.7338  -48.2103  -54.1537 N.am      5 UNK        -0.4607 
     50 C          30.8677  -48.9884  -55.2390 C.2       4 UNK         0.5031 
     51 O          30.1118  -48.9427  -56.2077 O.2       4 UNK        -0.5119 
     52 CA         31.9919  -50.0386  -55.2414 C.3       4 UNK         0.0263 
     53 CB         33.1736  -49.5585  -56.0959 C.3       4 UNK        -0.1967 
     54 N          32.4816  -50.4194  -53.9145 N.am      4 UNK        -0.4237 
     55 C          31.7688  -50.9483  -52.9107 C.2       3 UNK         0.4908 
     56 O          30.5618  -51.1847  -52.9822 O.2       3 UNK        -0.5102 
     57 CA         32.5132  -51.2221  -51.5874 C.3       3 UNK         0.0241 
     58 CB         33.1603  -52.6208  -51.5930 C.3       3 UNK        -0.1971 
     59 N          33.4756  -50.1729  -51.2041 N.am      3 UNK        -0.4139 
     60 C          34.6126  -49.8131  -51.8187 C.2       2 UNK         0.5016 
     61 O          35.0802  -50.3888  -52.8041 O.2       2 UNK        -0.5319 
     62 CA         35.2911  -48.5289  -51.3144 C.3       2 UNK         0.0286 
     63 CB         36.7444  -48.7989  -50.8921 C.3       2 UNK        -0.1963 
     64 N          35.2738  -47.4948  -52.3536 N.am      2 UNK        -0.4790 
     65 C          34.1751  -46.9660  -52.9087 C.2       1 UNK         0.5024 
     66 O          33.0348  -47.2622  -52.5525 O.2       1 UNK        -0.4888 
     67 H67        37.6275  -48.2165  -56.2363 H         1 UNK         0.0892 
     68 H68        37.9472  -46.5571  -56.7485 H         1 UNK         0.0892 
     69 H69        36.4407  -47.3498  -57.2129 H         1 UNK         0.0892 
     70 H70        34.7304  -46.6394  -56.0203 H         1 UNK         0.3107 
     71 H71        33.3730  -45.8622  -54.5220 H         1 UNK         0.0773 
     72 H72        35.7664  -44.5740  -53.1220 H         1 UNK         0.0680 
     73 H73        34.0993  -44.2449  -52.7488 H         1 UNK         0.0680 
     74 H74        33.7654  -41.8078  -53.2686 H         1 UNK         0.0650 
     75 H75        33.5494  -41.2239  -54.8959 H         1 UNK         0.0650 
     76 H76        31.9937  -43.0545  -52.2044 H         1 UNK         0.1397 
     77 H77        28.3976  -43.8908  -54.3890 H         1 UNK         0.1363 
     78 H78        31.8470  -42.3759  -56.4342 H         1 UNK         0.1355 
     79 H79        28.7316  -44.1340  -56.9352 H         1 UNK         0.0707 
     80 H80        29.9422  -43.1356  -57.7108 H         1 UNK         0.0707 
     81 H81        27.9165  -42.7768  -59.1606 H         1 UNK         0.1034 
     82 H82        27.2577  -41.1681  -59.0830 H         1 UNK         0.1034 
     83 H83        25.2635  -42.0104  -57.8347 H         1 UNK         0.0482 
     84 H84        25.2437  -44.7881  -60.0165 H         1 UNK         0.3460 
     85 H85        24.5145  -43.9179  -61.3472 H         1 UNK         0.3460 
     86 H86        26.7201  -44.4921  -57.6884 H         1 UNK         0.2989 
     87 H87        25.0637  -45.9842  -55.6647 H         1 UNK         0.0559 
     88 H88        23.8238  -47.9458  -56.6080 H         1 UNK         0.0848 
     89 H89        23.4693  -47.0213  -58.0669 H         1 UNK         0.0848 
     90 H90        22.8063  -46.5188  -56.5182 H         1 UNK         0.0848 
     91 H91        26.7486  -47.1052  -56.5056 H         1 UNK         0.3144 
     92 H92        27.8474  -47.9843  -59.8156 H         1 UNK         0.0727 
     93 H93        29.9530  -47.2557  -58.7646 H         1 UNK         0.0790 
     94 H94        29.0858  -46.5086  -57.4292 H         1 UNK         0.0790 
     95 H95        28.9426  -45.8497  -59.0576 H         1 UNK         0.0790 
     96 H96        28.6584  -48.9097  -57.2362 H         1 UNK         0.3215 
     97 H97        26.6954  -51.9134  -57.2767 H         1 UNK         0.0863 
     98 H98        29.0039  -52.7810  -56.9352 H         1 UNK         0.0808 
     99 H99        29.6845  -51.2711  -57.5393 H         1 UNK         0.0808 
    100 H100       28.7513  -52.3072  -58.6069 H         1 UNK         0.0808 
    101 H101       28.5276  -50.5369  -55.4449 H         1 UNK         0.3118 
    102 H102       26.0038  -49.2954  -53.3378 H         1 UNK         0.0546 
    103 H103       25.9769  -51.6937  -52.6307 H         1 UNK         0.0828 
    104 H104       27.0098  -50.7336  -51.5851 H         1 UNK         0.0828 
    105 H105       27.7240  -51.7797  -52.8122 H         1 UNK         0.0828 
    106 H106       28.8450  -49.5935  -53.0329 H         1 UNK         0.3005 
    107 H107       29.6992  -46.4716  -54.5819 H         1 UNK         0.1257 
    108 H108       30.7314  -46.2334  -52.3221 H         1 UNK         0.0775 
    109 H109       29.7337  -47.5083  -51.6917 H         1 UNK         0.0775 
    110 H110       28.7889  -43.1418  -51.5365 H         1 UNK         0.0840 
    111 H111       30.1860  -44.0726  -51.0544 H         1 UNK         0.0840 
    112 H112       31.4528  -48.2619  -53.4411 H         1 UNK         0.2987 
    113 H113       31.5815  -50.9392  -55.7021 H         1 UNK         0.0785 
    114 H114       33.6618  -48.6947  -55.6482 H         1 UNK         0.0798 
    115 H115       32.8457  -49.2713  -57.0962 H         1 UNK         0.0798 
    116 H116       33.9222  -50.3422  -56.2136 H         1 UNK         0.0798 
    117 H117       33.4773  -50.2995  -53.7409 H         1 UNK         0.3079 
    118 H118       31.7535  -51.2203  -50.8039 H         1 UNK         0.0794 
    119 H119       33.9142  -52.7225  -52.3741 H         1 UNK         0.0786 
    120 H120       32.4103  -53.3934  -51.7676 H         1 UNK         0.0786 
    121 H121       33.6358  -52.8411  -50.6373 H         1 UNK         0.0786 
    122 H122       33.1676  -49.5913  -50.4365 H         1 UNK         0.3032 
    123 H123       34.7454  -48.1475  -50.4487 H         1 UNK         0.1094 
    124 H124       37.3499  -49.1470  -51.7302 H         1 UNK         0.0794 
    125 H125       37.2141  -47.9007  -50.4907 H         1 UNK         0.0794 
    126 H126       36.7900  -49.5639  -50.1158 H         1 UNK         0.0794 
    127 H127       36.1665  -47.2288  -52.7644 H         1 UNK         0.3016 
@<TRIPOS>BOND
     1    1    2 1    
     2    1   67 1    
     3    1   68 1    
     4    1   69 1    
     5    2    3 2    
     6    2    4 am   BACKBONE|DICT|INTERRES
     7    4    5 1    
     8    4   70 1    
     9    5    6 1    
    10    5   65 1    
    11    5   71 1    
    12    6    7 1    
    13    6   72 1    
    14    6   73 1    
    15    7    8 1    
    16    8    9 1    
    17    8   74 1    
    18    8   75 1    
    19    9   10 ar   
    20    9   14 ar   
    21   10   11 ar   
    22   10   76 1    
    23   11   12 ar   
    24   11   48 1    
    25   12   13 ar   
    26   12   77 1    
    27   13   14 ar   
    28   13   15 1    
    29   14   78 1    
    30   15   16 1    
    31   15   79 1    
    32   15   80 1    
    33   16   17 1    
    34   17   18 1    
    35   17   81 1    
    36   17   82 1    
    37   18   19 1    
    38   18   22 1    
    39   18   83 1    
    40   19   20 am   BACKBONE|DICT|INTERRES
    41   19   21 2    
    42   20   84 1    
    43   20   85 1    
    44   22   23 am   BACKBONE|DICT|INTERRES
    45   22   86 1    
    46   23   24 2    
    47   23   25 1    
    48   25   26 1    
    49   25   27 1    
    50   25   87 1    
    51   26   88 1    
    52   26   89 1    
    53   26   90 1    
    54   27   28 am   BACKBONE|DICT|INTERRES
    55   27   91 1    
    56   28   29 2    
    57   28   30 1    
    58   30   31 1    
    59   30   32 1    
    60   30   92 1    
    61   31   93 1    
    62   31   94 1    
    63   31   95 1    
    64   32   33 am   BACKBONE|DICT|INTERRES
    65   32   96 1    
    66   33   34 2    
    67   33   35 1    
    68   35   36 1    
    69   35   37 1    
    70   35   97 1    
    71   36   98 1    
    72   36   99 1    
    73   36  100 1    
    74   37   38 am   BACKBONE|DICT|INTERRES
    75   37  101 1    
    76   38   39 2    
    77   38   40 1    
    78   40   41 1    
    79   40   42 1    
    80   40  102 1    
    81   41  103 1    
    82   41  104 1    
    83   41  105 1    
    84   42   43 am   BACKBONE|DICT|INTERRES
    85   42  106 1    
    86   43   44 2    
    87   43   45 1    
    88   45   46 1    
    89   45   49 1    
    90   45  107 1    
    91   46   47 1    
    92   46  108 1    
    93   46  109 1    
    94   47   48 1    
    95   48  110 1    
    96   48  111 1    
    97   49   50 am   BACKBONE|DICT|INTERRES
    98   49  112 1    
    99   50   51 2    
   100   50   52 1    
   101   52   53 1    
   102   52   54 1    
   103   52  113 1    
   104   53  114 1    
   105   53  115 1    
   106   53  116 1    
   107   54   55 am   BACKBONE|DICT|INTERRES
   108   54  117 1    
   109   55   56 2    
   110   55   57 1    
   111   57   58 1    
   112   57   59 1    
   113   57  118 1    
   114   58  119 1    
   115   58  120 1    
   116   58  121 1    
   117   59   60 am   BACKBONE|DICT|INTERRES
   118   59  122 1    
   119   60   61 2    
   120   60   62 1    
   121   62   63 1    
   122   62   64 1    
   123   62  123 1    
   124   63  124 1    
   125   63  125 1    
   126   63  126 1    
   127   64   65 am   BACKBONE|DICT|INTERRES
   128   64  127 1    
   129   65   66 2    
@<TRIPOS>SUBSTRUCTURE
     1 UNK         1 GROUP             0       ****    0 ROOT    
