@<TRIPOS>MOLECULE
3R134
127   129    1
SMALL
USER_CHARGES


@<TRIPOS>ATOM
      1 CA         28.9959  -46.5110  -49.5046 C.3       0 UNK        -0.1968 
      2 C          30.3463  -46.0285  -50.0139 C.2       0 UNK         0.4852 
      3 O          30.6479  -44.8386  -49.9132 O.2       0 UNK        -0.5359 
      4 N          31.1565  -46.9408  -50.5610 N.am      1 UNK        -0.4300 
      5 CA         32.4931  -46.6767  -51.0823 C.3       1 UNK         0.0863 
      6 C6         32.4519  -46.1544  -52.5413 C.3       11 UNK        -0.0953 
      7 S7         34.0647  -45.5174  -53.1067 S.3       11 UNK        -0.2369 
      8 C8         33.6863  -43.7604  -53.4123 C.3       11 UNK         0.0226 
      9 C9         32.7810  -43.5675  -54.6228 C.ar      11 UNK        -0.0699 
     10 C10        33.1916  -44.0171  -55.8807 C.ar      11 UNK        -0.0804 
     11 C11        32.3582  -43.8754  -56.9933 C.ar      11 UNK        -0.0871 
     12 C12        31.1352  -43.2166  -56.8552 C.ar      11 UNK        -0.1008 
     13 C13        30.7118  -42.7540  -55.6054 C.ar      11 UNK        -0.0735 
     14 C14        31.5370  -42.9410  -54.4902 C.ar      11 UNK        -0.0945 
     15 C15        29.3700  -42.0466  -55.4593 C.3       11 UNK         0.0169 
     16 S16        27.9665  -43.2046  -55.5715 S.3       11 UNK        -0.2669 
     17 C17        27.7698  -43.3884  -57.3801 C.3       11 UNK        -0.0850 
     18 CA         26.2837  -43.4003  -57.8230 C.3       10 UNK         0.0855 
     19 C          26.1579  -43.2836  -59.3732 C.2       10 UNK         0.5543 
     20 N          25.5358  -44.2213  -60.0792 N.am      10 UNK        -0.7343 
     21 O          26.6331  -42.3087  -59.9499 O.2       10 UNK        -0.5027 
     22 N          25.5691  -44.5428  -57.2385 N.am      10 UNK        -0.4495 
     23 C          24.2418  -44.6427  -57.1034 C.2       10 UNK         0.4903 
     24 O          23.4535  -43.7301  -57.3558 O.2       10 UNK        -0.4860 
     25 CA         23.7219  -46.0130  -56.6265 C.3       9 UNK         0.0227 
     26 CB         22.2155  -46.2152  -56.8957 C.3       9 UNK        -0.1964 
     27 N          24.5098  -47.1312  -57.1666 N.am      9 UNK        -0.4231 
     28 C          24.6860  -47.4531  -58.4606 C.2       9 UNK         0.5014 
     29 O          24.1621  -46.8322  -59.3866 O.2       9 UNK        -0.5270 
     30 CA         25.6393  -48.6187  -58.8027 C.3       8 UNK         0.0284 
     31 CB         26.6920  -48.1771  -59.8356 C.3       8 UNK        -0.1977 
     32 N          26.3302  -49.1646  -57.6322 N.am      8 UNK        -0.4342 
     33 C          25.7992  -50.0389  -56.7641 C.2       8 UNK         0.5039 
     34 O          24.6983  -50.5676  -56.9195 O.2       8 UNK        -0.5547 
     35 CA         26.6007  -50.3409  -55.4824 C.3       7 UNK         0.0281 
     36 CB         27.2875  -51.7113  -55.5906 C.3       7 UNK        -0.1963 
     37 N          27.5936  -49.3090  -55.1533 N.am      7 UNK        -0.4444 
     38 C          27.2872  -48.0403  -54.8319 C.2       7 UNK         0.5104 
     39 O          26.1289  -47.6374  -54.7234 O.2       7 UNK        -0.5100 
     40 CA         28.4370  -47.0284  -54.6590 C.3       6 UNK         0.0396 
     41 CB         28.6604  -46.7128  -53.1739 C.3       6 UNK        -0.1801 
     42 N          29.7083  -47.4312  -55.2652 N.am      6 UNK        -0.4747 
     43 C          29.9105  -47.6583  -56.5722 C.2       6 UNK         0.5012 
     44 O          29.0259  -47.5411  -57.4220 O.2       6 UNK        -0.5003 
     45 CA         31.3030  -48.2028  -56.9750 C.3       5 UNK         0.0782 
     46 C46        32.3127  -47.0885  -57.3453 C.3       11 UNK        -0.0868 
     47 S47        31.8116  -45.9862  -58.7138 S.3       11 UNK        -0.2515 
     48 C48        32.7583  -44.4705  -58.3360 C.3       11 UNK         0.0199 
     49 N          31.8952  -49.0538  -55.9342 N.am      5 UNK        -0.4607 
     50 C          31.3735  -50.1690  -55.4069 C.2       4 UNK         0.5031 
     51 O          30.2777  -50.6189  -55.7366 O.2       4 UNK        -0.5119 
     52 CA         32.1674  -50.8652  -54.2824 C.3       4 UNK         0.0263 
     53 CB         32.2806  -52.3864  -54.5131 C.3       4 UNK        -0.1967 
     54 N          33.4777  -50.2593  -53.9927 N.am      4 UNK        -0.4237 
     55 C          34.5753  -50.2454  -54.7698 C.2       3 UNK         0.4908 
     56 O          34.6382  -50.7927  -55.8703 O.2       3 UNK        -0.5102 
     57 CA         35.7963  -49.4403  -54.2796 C.3       3 UNK         0.0241 
     58 CB         36.0458  -48.2348  -55.2038 C.3       3 UNK        -0.1971 
     59 N          35.6672  -48.9539  -52.9044 N.am      3 UNK        -0.4139 
     60 C          35.8143  -49.7024  -51.8023 C.2       2 UNK         0.5016 
     61 O          36.1566  -50.8848  -51.8173 O.2       2 UNK        -0.5319 
     62 CA         35.4920  -49.0242  -50.4571 C.3       2 UNK         0.0286 
     63 CB         36.7835  -48.5502  -49.7713 C.3       2 UNK        -0.1963 
     64 N          34.5628  -47.8915  -50.5723 N.am      2 UNK        -0.4790 
     65 C          33.2852  -47.9866  -50.9667 C.2       1 UNK         0.5024 
     66 O          32.7428  -49.0490  -51.2820 O.2       1 UNK        -0.4888 
     67 H67        28.1926  -45.9601  -49.9932 H         1 UNK         0.0892 
     68 H68        28.8428  -47.5730  -49.6961 H         1 UNK         0.0892 
     69 H69        28.9189  -46.3448  -48.4304 H         1 UNK         0.0892 
     70 H70        30.8951  -47.9190  -50.5854 H         1 UNK         0.3107 
     71 H71        32.9694  -45.9284  -50.4443 H         1 UNK         0.0773 
     72 H72        32.1206  -46.9325  -53.2308 H         1 UNK         0.0680 
     73 H73        31.7156  -45.3540  -52.6230 H         1 UNK         0.0680 
     74 H74        33.2422  -43.3284  -52.5139 H         1 UNK         0.0650 
     75 H75        34.6210  -43.2250  -53.5831 H         1 UNK         0.0650 
     76 H76        34.1458  -44.5164  -55.9818 H         1 UNK         0.1397 
     77 H77        30.5056  -43.0920  -57.7234 H         1 UNK         0.1363 
     78 H78        31.2131  -42.5927  -53.5189 H         1 UNK         0.1355 
     79 H79        29.3170  -41.5418  -54.4935 H         1 UNK         0.0707 
     80 H80        29.2764  -41.2614  -56.2107 H         1 UNK         0.0707 
     81 H81        28.2897  -42.5647  -57.8716 H         1 UNK         0.1034 
     82 H82        28.2755  -44.3027  -57.6982 H         1 UNK         0.1034 
     83 H83        25.8206  -42.4938  -57.4283 H         1 UNK         0.0482 
     84 H84        25.4685  -44.1127  -61.0784 H         1 UNK         0.3460 
     85 H85        25.1041  -45.0231  -59.6353 H         1 UNK         0.3460 
     86 H86        26.1361  -45.3411  -56.9970 H         1 UNK         0.2989 
     87 H87        23.8686  -46.0330  -55.5456 H         1 UNK         0.0559 
     88 H88        21.6217  -45.4590  -56.3809 H         1 UNK         0.0848 
     89 H89        21.8762  -47.1883  -56.5411 H         1 UNK         0.0848 
     90 H90        21.9794  -46.1439  -57.9579 H         1 UNK         0.0848 
     91 H91        25.0167  -47.6639  -56.4675 H         1 UNK         0.3144 
     92 H92        25.0339  -49.4077  -59.2536 H         1 UNK         0.0727 
     93 H93        27.2819  -47.3331  -59.4758 H         1 UNK         0.0790 
     94 H94        26.2204  -47.8673  -60.7691 H         1 UNK         0.0790 
     95 H95        27.3791  -48.9883  -60.0768 H         1 UNK         0.0790 
     96 H96        27.2449  -48.7733  -57.4318 H         1 UNK         0.3215 
     97 H97        25.8866  -50.3840  -54.6571 H         1 UNK         0.0863 
     98 H98        27.8494  -51.9497  -54.6873 H         1 UNK         0.0808 
     99 H99        27.9757  -51.7515  -56.4357 H         1 UNK         0.0808 
    100 H100       26.5524  -52.5044  -55.7342 H         1 UNK         0.0808 
    101 H101       28.5684  -49.5735  -55.2567 H         1 UNK         0.3118 
    102 H102       28.1210  -46.1101  -55.1555 H         1 UNK         0.0546 
    103 H103       29.0387  -47.5786  -52.6299 H         1 UNK         0.0828 
    104 H104       27.7293  -46.4063  -52.6948 H         1 UNK         0.0828 
    105 H105       29.3668  -45.8925  -53.0483 H         1 UNK         0.0828 
    106 H106       30.4830  -47.5794  -54.6371 H         1 UNK         0.3005 
    107 H107       31.1486  -48.8312  -57.8549 H         1 UNK         0.1257 
    108 H108       32.5215  -46.4998  -56.4539 H         1 UNK         0.0775 
    109 H109       33.2656  -47.5370  -57.6317 H         1 UNK         0.0775 
    110 H110       33.8253  -44.6981  -58.3583 H         1 UNK         0.0840 
    111 H111       32.5857  -43.7372  -59.1251 H         1 UNK         0.0840 
    112 H112       32.8078  -48.7776  -55.6068 H         1 UNK         0.2987 
    113 H113       31.5760  -50.7202  -53.3770 H         1 UNK         0.0785 
    114 H114       31.2933  -52.8474  -54.5624 H         1 UNK         0.0798 
    115 H115       32.8230  -52.8714  -53.7016 H         1 UNK         0.0798 
    116 H116       32.7909  -52.6214  -55.4474 H         1 UNK         0.0798 
    117 H117       33.5260  -49.7863  -53.0969 H         1 UNK         0.3079 
    118 H118       36.6640  -50.1012  -54.3345 H         1 UNK         0.0794 
    119 H119       36.9339  -47.6797  -54.9009 H         1 UNK         0.0786 
    120 H120       35.2031  -47.5425  -55.2064 H         1 UNK         0.0786 
    121 H121       36.2055  -48.5561  -56.2341 H         1 UNK         0.0786 
    122 H122       35.4006  -47.9862  -52.7872 H         1 UNK         0.3032 
    123 H123       35.0224  -49.7795  -49.8225 H         1 UNK         0.1094 
    124 H124       37.2894  -47.7770  -50.3510 H         1 UNK         0.0794 
    125 H125       36.5820  -48.1492  -48.7778 H         1 UNK         0.0794 
    126 H126       37.4857  -49.3762  -49.6478 H         1 UNK         0.0794 
    127 H127       34.9352  -46.9786  -50.3489 H         1 UNK         0.3016 
@<TRIPOS>BOND
     1    1    2 1    
     2    1   67 1    
     3    1   68 1    
     4    1   69 1    
     5    2    3 2    
     6    2    4 am   BACKBONE|DICT|INTERRES
     7    4    5 1    
     8    4   70 1    
     9    5    6 1    
    10    5   65 1    
    11    5   71 1    
    12    6    7 1    
    13    6   72 1    
    14    6   73 1    
    15    7    8 1    
    16    8    9 1    
    17    8   74 1    
    18    8   75 1    
    19    9   10 ar   
    20    9   14 ar   
    21   10   11 ar   
    22   10   76 1    
    23   11   12 ar   
    24   11   48 1    
    25   12   13 ar   
    26   12   77 1    
    27   13   14 ar   
    28   13   15 1    
    29   14   78 1    
    30   15   16 1    
    31   15   79 1    
    32   15   80 1    
    33   16   17 1    
    34   17   18 1    
    35   17   81 1    
    36   17   82 1    
    37   18   19 1    
    38   18   22 1    
    39   18   83 1    
    40   19   20 am   BACKBONE|DICT|INTERRES
    41   19   21 2    
    42   20   84 1    
    43   20   85 1    
    44   22   23 am   BACKBONE|DICT|INTERRES
    45   22   86 1    
    46   23   24 2    
    47   23   25 1    
    48   25   26 1    
    49   25   27 1    
    50   25   87 1    
    51   26   88 1    
    52   26   89 1    
    53   26   90 1    
    54   27   28 am   BACKBONE|DICT|INTERRES
    55   27   91 1    
    56   28   29 2    
    57   28   30 1    
    58   30   31 1    
    59   30   32 1    
    60   30   92 1    
    61   31   93 1    
    62   31   94 1    
    63   31   95 1    
    64   32   33 am   BACKBONE|DICT|INTERRES
    65   32   96 1    
    66   33   34 2    
    67   33   35 1    
    68   35   36 1    
    69   35   37 1    
    70   35   97 1    
    71   36   98 1    
    72   36   99 1    
    73   36  100 1    
    74   37   38 am   BACKBONE|DICT|INTERRES
    75   37  101 1    
    76   38   39 2    
    77   38   40 1    
    78   40   41 1    
    79   40   42 1    
    80   40  102 1    
    81   41  103 1    
    82   41  104 1    
    83   41  105 1    
    84   42   43 am   BACKBONE|DICT|INTERRES
    85   42  106 1    
    86   43   44 2    
    87   43   45 1    
    88   45   46 1    
    89   45   49 1    
    90   45  107 1    
    91   46   47 1    
    92   46  108 1    
    93   46  109 1    
    94   47   48 1    
    95   48  110 1    
    96   48  111 1    
    97   49   50 am   BACKBONE|DICT|INTERRES
    98   49  112 1    
    99   50   51 2    
   100   50   52 1    
   101   52   53 1    
   102   52   54 1    
   103   52  113 1    
   104   53  114 1    
   105   53  115 1    
   106   53  116 1    
   107   54   55 am   BACKBONE|DICT|INTERRES
   108   54  117 1    
   109   55   56 2    
   110   55   57 1    
   111   57   58 1    
   112   57   59 1    
   113   57  118 1    
   114   58  119 1    
   115   58  120 1    
   116   58  121 1    
   117   59   60 am   BACKBONE|DICT|INTERRES
   118   59  122 1    
   119   60   61 2    
   120   60   62 1    
   121   62   63 1    
   122   62   64 1    
   123   62  123 1    
   124   63  124 1    
   125   63  125 1    
   126   63  126 1    
   127   64   65 am   BACKBONE|DICT|INTERRES
   128   64  127 1    
   129   65   66 2    
@<TRIPOS>SUBSTRUCTURE
     1 UNK         1 GROUP             0       ****    0 ROOT    
