@<TRIPOS>MOLECULE
3R134
127   129    1
SMALL
USER_CHARGES


@<TRIPOS>ATOM
      1 CA         30.8818  -45.1548  -52.0637 C.3       0 UNK        -0.1968 
      2 C          32.2149  -44.8991  -52.7483 C.2       0 UNK         0.4852 
      3 O          33.1785  -44.5115  -52.0865 O.2       0 UNK        -0.5359 
      4 N          32.2796  -45.1222  -54.0678 N.am      1 UNK        -0.4300 
      5 CA         33.4952  -45.0093  -54.8846 C.3       1 UNK         0.0863 
      6 C6         33.1696  -44.8852  -56.3954 C.3       11 UNK        -0.0953 
      7 S7         32.1330  -46.2393  -57.0559 S.3       11 UNK        -0.2369 
      8 C8         30.6139  -45.3655  -57.5460 C.3       11 UNK         0.0226 
      9 C9         29.7609  -44.9869  -56.3445 C.ar      11 UNK        -0.0699 
     10 C10        28.8734  -45.9144  -55.7934 C.ar      11 UNK        -0.0804 
     11 C11        28.0818  -45.5744  -54.6915 C.ar      11 UNK        -0.0871 
     12 C12        28.1773  -44.2886  -54.1496 C.ar      11 UNK        -0.1008 
     13 C13        29.0449  -43.3435  -54.7059 C.ar      11 UNK        -0.0735 
     14 C14        29.8419  -43.7048  -55.7958 C.ar      11 UNK        -0.0945 
     15 C15        29.1342  -41.9356  -54.1281 C.3       11 UNK         0.0169 
     16 S16        28.7762  -40.6496  -55.3738 S.3       11 UNK        -0.2669 
     17 C17        26.9598  -40.4410  -55.2767 C.3       11 UNK        -0.0850 
     18 CA         26.1134  -41.7173  -55.5585 C.3       10 UNK         0.0855 
     19 C          24.5799  -41.4532  -55.4499 C.2       10 UNK         0.5543 
     20 N          23.7347  -42.1414  -56.2073 N.am      10 UNK        -0.7343 
     21 O          24.1434  -40.6363  -54.6424 O.2       10 UNK        -0.5027 
     22 N          26.5518  -42.4522  -56.7600 N.am      10 UNK        -0.4495 
     23 C          26.4651  -42.0331  -58.0316 C.2       10 UNK         0.4903 
     24 O          25.9423  -40.9750  -58.3802 O.2       10 UNK        -0.4860 
     25 CA         27.0542  -42.9660  -59.0993 C.3       9 UNK         0.0227 
     26 CB         28.5523  -42.6483  -59.2876 C.3       9 UNK        -0.1964 
     27 N          26.8168  -44.3666  -58.7304 N.am      9 UNK        -0.4231 
     28 C          27.1370  -45.4555  -59.4375 C.2       9 UNK         0.5014 
     29 O          27.7360  -45.4484  -60.5158 O.2       9 UNK        -0.5270 
     30 CA         26.6808  -46.7916  -58.8434 C.3       8 UNK         0.0284 
     31 CB         25.2790  -47.1753  -59.3484 C.3       8 UNK        -0.1977 
     32 N          27.6428  -47.8251  -59.2165 N.am      8 UNK        -0.4342 
     33 C          28.0023  -48.8439  -58.4305 C.2       8 UNK         0.5039 
     34 O          27.4837  -49.0629  -57.3311 O.2       8 UNK        -0.5547 
     35 CA         29.1360  -49.7615  -58.9226 C.3       7 UNK         0.0281 
     36 CB         30.3411  -48.9547  -59.4582 C.3       7 UNK        -0.1963 
     37 N          29.5233  -50.5793  -57.7760 N.am      7 UNK        -0.4444 
     38 C          30.4541  -51.5345  -57.6885 C.2       7 UNK         0.5104 
     39 O          31.0869  -51.9637  -58.6547 O.2       7 UNK        -0.5100 
     40 CA         30.7132  -52.1178  -56.2788 C.3       6 UNK         0.0396 
     41 CB         32.1834  -52.5441  -56.0847 C.3       6 UNK        -0.1801 
     42 N          30.2844  -51.2456  -55.1724 N.am      6 UNK        -0.4747 
     43 C          30.7112  -50.0031  -54.8958 C.2       6 UNK         0.5012 
     44 O          31.5648  -49.4084  -55.5501 O.2       6 UNK        -0.5003 
     45 CA         30.0551  -49.2876  -53.7006 C.3       5 UNK         0.0782 
     46 C46        28.5552  -48.9927  -53.9664 C.3       11 UNK        -0.0868 
     47 S47        27.8902  -47.6871  -52.8834 S.3       11 UNK        -0.2515 
     48 C48        27.1010  -46.5776  -54.0976 C.3       11 UNK         0.0199 
     49 N          30.3292  -49.9755  -52.4330 N.am      5 UNK        -0.4607 
     50 C          29.8578  -51.1587  -52.0103 C.2       4 UNK         0.5031 
     51 O          29.0471  -51.8377  -52.6440 O.2       4 UNK        -0.5119 
     52 CA         30.3899  -51.6735  -50.6548 C.3       4 UNK         0.0263 
     53 CB         30.2379  -53.2017  -50.4927 C.3       4 UNK        -0.1967 
     54 N          31.7685  -51.2481  -50.3739 N.am      4 UNK        -0.4237 
     55 C          32.8634  -51.5363  -51.0934 C.2       3 UNK         0.4908 
     56 O          32.8855  -52.2917  -52.0674 O.2       3 UNK        -0.5102 
     57 CA         34.1561  -50.8196  -50.6676 C.3       3 UNK         0.0241 
     58 CB         35.2028  -51.8275  -50.1642 C.3       3 UNK        -0.1971 
     59 N          34.7220  -50.0345  -51.7684 N.am      3 UNK        -0.4139 
     60 C          34.0909  -49.0365  -52.4027 C.2       2 UNK         0.5016 
     61 O          32.9639  -48.6289  -52.0957 O.2       2 UNK        -0.5319 
     62 CA         34.8451  -48.3857  -53.5711 C.3       2 UNK         0.0286 
     63 CB         35.0756  -49.3729  -54.7309 C.3       2 UNK        -0.1963 
     64 N          34.0573  -47.2515  -54.0375 N.am      2 UNK        -0.4790 
     65 C          34.5203  -46.1338  -54.6059 C.2       1 UNK         0.5024 
     66 O          35.7057  -45.9580  -54.8925 O.2       1 UNK        -0.4888 
     67 H67        30.2135  -45.7390  -52.6941 H         1 UNK         0.0892 
     68 H68        31.0331  -45.7088  -51.1376 H         1 UNK         0.0892 
     69 H69        30.3921  -44.2113  -51.8248 H         1 UNK         0.0892 
     70 H70        31.4508  -45.4062  -54.5734 H         1 UNK         0.3107 
     71 H71        33.9900  -44.0807  -54.5917 H         1 UNK         0.0773 
     72 H72        34.0891  -44.8449  -56.9823 H         1 UNK         0.0680 
     73 H73        32.6767  -43.9307  -56.5795 H         1 UNK         0.0680 
     74 H74        30.0376  -46.0092  -58.2115 H         1 UNK         0.0650 
     75 H75        30.8750  -44.4845  -58.1335 H         1 UNK         0.0650 
     76 H76        28.8027  -46.8994  -56.2305 H         1 UNK         0.1397 
     77 H77        27.5673  -44.0213  -53.2973 H         1 UNK         0.1363 
     78 H78        30.5177  -42.9767  -56.2231 H         1 UNK         0.1355 
     79 H79        28.4677  -41.8126  -53.2731 H         1 UNK         0.0707 
     80 H80        30.1467  -41.7828  -53.7519 H         1 UNK         0.0707 
     81 H81        26.7251  -40.0447  -54.2870 H         1 UNK         0.1034 
     82 H82        26.6836  -39.6551  -55.9818 H         1 UNK         0.1034 
     83 H83        26.2986  -42.3999  -54.7318 H         1 UNK         0.0482 
     84 H84        24.0756  -42.8131  -56.8743 H         1 UNK         0.3460 
     85 H85        22.7450  -41.9712  -56.1216 H         1 UNK         0.3460 
     86 H86        27.0770  -43.2921  -56.5658 H         1 UNK         0.2989 
     87 H87        26.5319  -42.7754  -60.0389 H         1 UNK         0.0559 
     88 H88        29.0024  -43.2319  -60.0896 H         1 UNK         0.0848 
     89 H89        29.1190  -42.8323  -58.3769 H         1 UNK         0.0848 
     90 H90        28.6942  -41.5978  -59.5449 H         1 UNK         0.0848 
     91 H91        26.2659  -44.4981  -57.8938 H         1 UNK         0.3144 
     92 H92        26.6530  -46.6892  -57.7561 H         1 UNK         0.0727 
     93 H93        25.2595  -47.2889  -60.4331 H         1 UNK         0.0790 
     94 H94        24.5434  -46.4143  -59.0852 H         1 UNK         0.0790 
     95 H95        24.9444  -48.1147  -58.9078 H         1 UNK         0.0790 
     96 H96        28.1291  -47.6511  -60.0876 H         1 UNK         0.3215 
     97 H97        28.7406  -50.4107  -59.7056 H         1 UNK         0.0863 
     98 H98        31.1291  -49.6080  -59.8312 H         1 UNK         0.0808 
     99 H99        30.7765  -48.3299  -58.6790 H         1 UNK         0.0808 
    100 H100       30.0633  -48.3055  -60.2887 H         1 UNK         0.0808 
    101 H101       29.0010  -50.3336  -56.9423 H         1 UNK         0.3118 
    102 H102       30.0976  -53.0152  -56.2068 H         1 UNK         0.0546 
    103 H103       32.8679  -51.7080  -56.2303 H         1 UNK         0.0828 
    104 H104       32.4645  -53.3208  -56.7967 H         1 UNK         0.0828 
    105 H105       32.3529  -52.9447  -55.0849 H         1 UNK         0.0828 
    106 H106       29.6133  -51.6470  -54.5221 H         1 UNK         0.3005 
    107 H107       30.5664  -48.3261  -53.6240 H         1 UNK         0.1257 
    108 H108       27.9386  -49.8842  -53.8521 H         1 UNK         0.0775 
    109 H109       28.4143  -48.6846  -54.9992 H         1 UNK         0.0775 
    110 H110       26.6280  -47.1609  -54.8897 H         1 UNK         0.0840 
    111 H111       26.2887  -46.0469  -53.5987 H         1 UNK         0.0840 
    112 H112       31.0599  -49.5368  -51.8834 H         1 UNK         0.2987 
    113 H113       29.7660  -51.2014  -49.8943 H         1 UNK         0.0785 
    114 H114       29.1902  -53.4989  -50.5513 H         1 UNK         0.0798 
    115 H115       30.6145  -53.5383  -49.5269 H         1 UNK         0.0798 
    116 H116       30.7725  -53.7475  -51.2707 H         1 UNK         0.0798 
    117 H117       31.8694  -50.6053  -49.5998 H         1 UNK         0.3079 
    118 H118       33.9306  -50.1273  -49.8536 H         1 UNK         0.0794 
    119 H119       34.8100  -52.4142  -49.3326 H         1 UNK         0.0786 
    120 H120       36.1016  -51.3238  -49.8077 H         1 UNK         0.0786 
    121 H121       35.4974  -52.5286  -50.9464 H         1 UNK         0.0786 
    122 H122       35.6322  -50.3197  -52.0988 H         1 UNK         0.3032 
    123 H123       35.8056  -48.0269  -53.1941 H         1 UNK         0.1094 
    124 H124       35.5679  -48.8874  -55.5736 H         1 UNK         0.0794 
    125 H125       35.7094  -50.2059  -54.4258 H         1 UNK         0.0794 
    126 H126       34.1371  -49.7930  -55.0923 H         1 UNK         0.0794 
    127 H127       33.0813  -47.2987  -53.7747 H         1 UNK         0.3016 
@<TRIPOS>BOND
     1    1    2 1    
     2    1   67 1    
     3    1   68 1    
     4    1   69 1    
     5    2    3 2    
     6    2    4 am   BACKBONE|DICT|INTERRES
     7    4    5 1    
     8    4   70 1    
     9    5    6 1    
    10    5   65 1    
    11    5   71 1    
    12    6    7 1    
    13    6   72 1    
    14    6   73 1    
    15    7    8 1    
    16    8    9 1    
    17    8   74 1    
    18    8   75 1    
    19    9   10 ar   
    20    9   14 ar   
    21   10   11 ar   
    22   10   76 1    
    23   11   12 ar   
    24   11   48 1    
    25   12   13 ar   
    26   12   77 1    
    27   13   14 ar   
    28   13   15 1    
    29   14   78 1    
    30   15   16 1    
    31   15   79 1    
    32   15   80 1    
    33   16   17 1    
    34   17   18 1    
    35   17   81 1    
    36   17   82 1    
    37   18   19 1    
    38   18   22 1    
    39   18   83 1    
    40   19   20 am   BACKBONE|DICT|INTERRES
    41   19   21 2    
    42   20   84 1    
    43   20   85 1    
    44   22   23 am   BACKBONE|DICT|INTERRES
    45   22   86 1    
    46   23   24 2    
    47   23   25 1    
    48   25   26 1    
    49   25   27 1    
    50   25   87 1    
    51   26   88 1    
    52   26   89 1    
    53   26   90 1    
    54   27   28 am   BACKBONE|DICT|INTERRES
    55   27   91 1    
    56   28   29 2    
    57   28   30 1    
    58   30   31 1    
    59   30   32 1    
    60   30   92 1    
    61   31   93 1    
    62   31   94 1    
    63   31   95 1    
    64   32   33 am   BACKBONE|DICT|INTERRES
    65   32   96 1    
    66   33   34 2    
    67   33   35 1    
    68   35   36 1    
    69   35   37 1    
    70   35   97 1    
    71   36   98 1    
    72   36   99 1    
    73   36  100 1    
    74   37   38 am   BACKBONE|DICT|INTERRES
    75   37  101 1    
    76   38   39 2    
    77   38   40 1    
    78   40   41 1    
    79   40   42 1    
    80   40  102 1    
    81   41  103 1    
    82   41  104 1    
    83   41  105 1    
    84   42   43 am   BACKBONE|DICT|INTERRES
    85   42  106 1    
    86   43   44 2    
    87   43   45 1    
    88   45   46 1    
    89   45   49 1    
    90   45  107 1    
    91   46   47 1    
    92   46  108 1    
    93   46  109 1    
    94   47   48 1    
    95   48  110 1    
    96   48  111 1    
    97   49   50 am   BACKBONE|DICT|INTERRES
    98   49  112 1    
    99   50   51 2    
   100   50   52 1    
   101   52   53 1    
   102   52   54 1    
   103   52  113 1    
   104   53  114 1    
   105   53  115 1    
   106   53  116 1    
   107   54   55 am   BACKBONE|DICT|INTERRES
   108   54  117 1    
   109   55   56 2    
   110   55   57 1    
   111   57   58 1    
   112   57   59 1    
   113   57  118 1    
   114   58  119 1    
   115   58  120 1    
   116   58  121 1    
   117   59   60 am   BACKBONE|DICT|INTERRES
   118   59  122 1    
   119   60   61 2    
   120   60   62 1    
   121   62   63 1    
   122   62   64 1    
   123   62  123 1    
   124   63  124 1    
   125   63  125 1    
   126   63  126 1    
   127   64   65 am   BACKBONE|DICT|INTERRES
   128   64  127 1    
   129   65   66 2    
@<TRIPOS>SUBSTRUCTURE
     1 UNK         1 GROUP             0       ****    0 ROOT    
