@<TRIPOS>MOLECULE
3R134
127   129    1
SMALL
USER_CHARGES


@<TRIPOS>ATOM
      1 CA         30.4260  -46.9700  -54.7903 C.3       0 UNK        -0.1968 
      2 C          30.5022  -46.1577  -53.5105 C.2       0 UNK         0.4852 
      3 O          29.7740  -46.4473  -52.5600 O.2       0 UNK        -0.5359 
      4 N          31.3852  -45.1513  -53.4662 N.am      1 UNK        -0.4300 
      5 CA         31.6263  -44.2695  -52.3176 C.3       1 UNK         0.0863 
      6 C6         32.2344  -42.9112  -52.7618 C.3       11 UNK        -0.0953 
      7 S7         33.8136  -43.0305  -53.6801 S.3       11 UNK        -0.2369 
      8 C8         33.3910  -42.3155  -55.2979 C.3       11 UNK         0.0226 
      9 C9         32.6773  -43.3149  -56.1948 C.ar      11 UNK        -0.0699 
     10 C10        33.3861  -44.3857  -56.7462 C.ar      11 UNK        -0.0804 
     11 C11        32.7573  -45.2878  -57.6086 C.ar      11 UNK        -0.0871 
     12 C12        31.4033  -45.1160  -57.9150 C.ar      11 UNK        -0.1008 
     13 C13        30.6824  -44.0491  -57.3657 C.ar      11 UNK        -0.0735 
     14 C14        31.3258  -43.1507  -56.5085 C.ar      11 UNK        -0.0945 
     15 C15        29.2180  -43.8463  -57.7273 C.3       11 UNK         0.0169 
     16 S16        28.1067  -44.7438  -56.6035 S.3       11 UNK        -0.2669 
     17 C17        28.1086  -43.6642  -55.1342 C.3       11 UNK        -0.0850 
     18 CA         27.2088  -44.2093  -53.9871 C.3       10 UNK         0.0855 
     19 C          27.3383  -43.3732  -52.6766 C.2       10 UNK         0.5543 
     20 N          26.3208  -43.3286  -51.8248 N.am      10 UNK        -0.7343 
     21 O          28.3762  -42.7714  -52.4132 O.2       10 UNK        -0.5027 
     22 N          25.8197  -44.4786  -54.4071 N.am      10 UNK        -0.4495 
     23 C          24.9311  -43.5717  -54.8370 C.2       10 UNK         0.4903 
     24 O          25.1725  -42.3676  -54.9385 O.2       10 UNK        -0.4860 
     25 CA         23.5224  -44.1017  -55.1793 C.3       9 UNK         0.0227 
     26 CB         22.7104  -43.1265  -56.0601 C.3       9 UNK        -0.1964 
     27 N          23.5187  -45.4571  -55.7503 N.am      9 UNK        -0.4231 
     28 C          24.0603  -45.8500  -56.9130 C.2       9 UNK         0.5014 
     29 O          24.6445  -45.1036  -57.7019 O.2       9 UNK        -0.5270 
     30 CA         23.8541  -47.3280  -57.2795 C.3       8 UNK         0.0284 
     31 CB         22.5573  -47.5026  -58.0880 C.3       8 UNK        -0.1977 
     32 N          24.9779  -47.8361  -58.0665 N.am      8 UNK        -0.4342 
     33 C          26.1245  -48.2845  -57.5443 C.2       8 UNK         0.5039 
     34 O          26.3482  -48.3580  -56.3325 O.2       8 UNK        -0.5547 
     35 CA         27.2019  -48.7194  -58.5488 C.3       7 UNK         0.0281 
     36 CB         28.1185  -47.5421  -58.9190 C.3       7 UNK        -0.1963 
     37 N          28.0226  -49.7815  -57.9741 N.am      7 UNK        -0.4444 
     38 C          27.8313  -51.0942  -58.1493 C.2       7 UNK         0.5104 
     39 O          26.9380  -51.5663  -58.8550 O.2       7 UNK        -0.5100 
     40 CA         28.8076  -52.0329  -57.4050 C.3       6 UNK         0.0396 
     41 CB         28.9423  -53.4131  -58.0827 C.3       6 UNK        -0.1801 
     42 N          30.1303  -51.4333  -57.1669 N.am      6 UNK        -0.4747 
     43 C          31.0115  -51.0103  -58.0908 C.2       6 UNK         0.5012 
     44 O          30.8450  -51.1236  -59.3054 O.2       6 UNK        -0.5003 
     45 CA         32.2811  -50.3084  -57.5702 C.3       5 UNK         0.0782 
     46 C46        32.0955  -48.7720  -57.6287 C.3       11 UNK        -0.0868 
     47 S47        33.6092  -47.8808  -57.1370 S.3       11 UNK        -0.2515 
     48 C48        33.5606  -46.4233  -58.2258 C.3       11 UNK         0.0199 
     49 N          32.6444  -50.7673  -56.2242 N.am      5 UNK        -0.4607 
     50 C          33.2639  -51.9198  -55.9481 C.2       4 UNK         0.5031 
     51 O          33.6122  -52.7224  -56.8156 O.2       4 UNK        -0.5119 
     52 CA         33.5427  -52.2196  -54.4587 C.3       4 UNK         0.0263 
     53 CB         34.4455  -53.4528  -54.2637 C.3       4 UNK        -0.1967 
     54 N          34.1305  -51.0845  -53.7355 N.am      4 UNK        -0.4237 
     55 C          33.4596  -50.0133  -53.2949 C.2       3 UNK         0.4908 
     56 O          32.2594  -49.8230  -53.5108 O.2       3 UNK        -0.5102 
     57 CA         34.2635  -48.9674  -52.5161 C.3       3 UNK         0.0241 
     58 CB         34.9559  -47.9828  -53.4747 C.3       3 UNK        -0.1971 
     59 N          33.3420  -48.2302  -51.6593 N.am      3 UNK        -0.4139 
     60 C          33.5785  -47.8126  -50.4107 C.2       2 UNK         0.5016 
     61 O          34.6407  -47.9953  -49.8124 O.2       2 UNK        -0.5319 
     62 CA         32.4207  -47.0471  -49.7378 C.3       2 UNK         0.0286 
     63 CB         32.8080  -46.4072  -48.3868 C.3       2 UNK        -0.1963 
     64 N          31.8264  -46.0618  -50.6526 N.am      2 UNK        -0.4790 
     65 C          32.4198  -44.9879  -51.1968 C.2       1 UNK         0.5024 
     66 O          33.5384  -44.5910  -50.8679 O.2       1 UNK        -0.4888 
     67 H67        31.0834  -46.5660  -55.5576 H         1 UNK         0.0892 
     68 H68        30.7165  -48.0009  -54.5971 H         1 UNK         0.0892 
     69 H69        29.4075  -46.9730  -55.1766 H         1 UNK         0.0892 
     70 H70        31.9709  -44.9653  -54.2694 H         1 UNK         0.3107 
     71 H71        30.6550  -44.0360  -51.8774 H         1 UNK         0.0773 
     72 H72        31.5043  -42.3825  -53.3763 H         1 UNK         0.0680 
     73 H73        32.3950  -42.2696  -51.8937 H         1 UNK         0.0680 
     74 H74        34.3130  -41.9989  -55.7875 H         1 UNK         0.0650 
     75 H75        32.7971  -41.4108  -55.1593 H         1 UNK         0.0650 
     76 H76        34.4345  -44.5100  -56.5099 H         1 UNK         0.1397 
     77 H77        30.9113  -45.8078  -58.5849 H         1 UNK         0.1363 
     78 H78        30.7767  -42.3153  -56.0964 H         1 UNK         0.1355 
     79 H79        29.0397  -44.1985  -58.7444 H         1 UNK         0.0707 
     80 H80        28.9644  -42.7850  -57.7268 H         1 UNK         0.0707 
     81 H81        29.1383  -43.5748  -54.7865 H         1 UNK         0.1034 
     82 H82        27.7954  -42.6611  -55.4271 H         1 UNK         0.1034 
     83 H83        27.6066  -45.1873  -53.7170 H         1 UNK         0.0482 
     84 H84        25.4658  -43.8228  -52.0228 H         1 UNK         0.3460 
     85 H85        26.4106  -42.7915  -50.9769 H         1 UNK         0.3460 
     86 H86        25.5325  -45.4452  -54.3627 H         1 UNK         0.2989 
     87 H87        23.0000  -44.1812  -54.2249 H         1 UNK         0.0559 
     88 H88        22.5810  -42.1645  -55.5627 H         1 UNK         0.0848 
     89 H89        21.7146  -43.5157  -56.2714 H         1 UNK         0.0848 
     90 H90        23.2048  -42.9334  -57.0127 H         1 UNK         0.0848 
     91 H91        23.0505  -46.1574  -55.1906 H         1 UNK         0.3144 
     92 H92        23.7698  -47.9144  -56.3616 H         1 UNK         0.0727 
     93 H93        22.5800  -46.9322  -59.0177 H         1 UNK         0.0790 
     94 H94        21.6917  -47.1608  -57.5187 H         1 UNK         0.0790 
     95 H95        22.3842  -48.5491  -58.3400 H         1 UNK         0.0790 
     96 H96        24.8991  -47.7455  -59.0693 H         1 UNK         0.3215 
     97 H97        26.7134  -49.0784  -59.4577 H         1 UNK         0.0863 
     98 H98        28.8197  -47.8203  -59.7060 H         1 UNK         0.0808 
     99 H99        28.7003  -47.2024  -58.0620 H         1 UNK         0.0808 
    100 H100       27.5423  -46.6897  -59.2819 H         1 UNK         0.0808 
    101 H101       28.7239  -49.4921  -57.3099 H         1 UNK         0.3118 
    102 H102       28.3696  -52.1956  -56.4192 H         1 UNK         0.0546 
    103 H103       29.3039  -53.3284  -59.1078 H         1 UNK         0.0828 
    104 H104       27.9805  -53.9260  -58.1208 H         1 UNK         0.0828 
    105 H105       29.6298  -54.0585  -57.5365 H         1 UNK         0.0828 
    106 H106       30.3773  -51.2946  -56.1965 H         1 UNK         0.3005 
    107 H107       33.0911  -50.5772  -58.2529 H         1 UNK         0.1257 
    108 H108       31.8185  -48.4685  -58.6401 H         1 UNK         0.0775 
    109 H109       31.2756  -48.4555  -56.9851 H         1 UNK         0.0775 
    110 H110       34.5849  -46.0898  -58.3995 H         1 UNK         0.0840 
    111 H111       33.1672  -46.6880  -59.2082 H         1 UNK         0.0840 
    112 H112       32.4070  -50.1607  -55.4459 H         1 UNK         0.2987 
    113 H113       32.5762  -52.4492  -54.0047 H         1 UNK         0.0785 
    114 H114       34.0060  -54.3386  -54.7246 H         1 UNK         0.0798 
    115 H115       34.5856  -53.6799  -53.2066 H         1 UNK         0.0798 
    116 H116       35.4300  -53.3068  -54.7100 H         1 UNK         0.0798 
    117 H117       35.1242  -51.1365  -53.5608 H         1 UNK         0.3079 
    118 H118       35.0112  -49.4827  -51.9092 H         1 UNK         0.0794 
    119 H119       35.5384  -47.2422  -52.9262 H         1 UNK         0.0786 
    120 H120       34.2331  -47.4455  -54.0907 H         1 UNK         0.0786 
    121 H121       35.6394  -48.5001  -54.1490 H         1 UNK         0.0786 
    122 H122       32.4173  -48.1101  -52.0517 H         1 UNK         0.3032 
    123 H123       31.6455  -47.7885  -49.5363 H         1 UNK         0.1094 
    124 H124       33.1185  -47.1702  -47.6719 H         1 UNK         0.0794 
    125 H125       33.6364  -45.7056  -48.4874 H         1 UNK         0.0794 
    126 H126       31.9669  -45.8732  -47.9449 H         1 UNK         0.0794 
    127 H127       30.9183  -46.3091  -51.0425 H         1 UNK         0.3016 
@<TRIPOS>BOND
     1    1    2 1    
     2    1   67 1    
     3    1   68 1    
     4    1   69 1    
     5    2    3 2    
     6    2    4 am   BACKBONE|DICT|INTERRES
     7    4    5 1    
     8    4   70 1    
     9    5    6 1    
    10    5   65 1    
    11    5   71 1    
    12    6    7 1    
    13    6   72 1    
    14    6   73 1    
    15    7    8 1    
    16    8    9 1    
    17    8   74 1    
    18    8   75 1    
    19    9   10 ar   
    20    9   14 ar   
    21   10   11 ar   
    22   10   76 1    
    23   11   12 ar   
    24   11   48 1    
    25   12   13 ar   
    26   12   77 1    
    27   13   14 ar   
    28   13   15 1    
    29   14   78 1    
    30   15   16 1    
    31   15   79 1    
    32   15   80 1    
    33   16   17 1    
    34   17   18 1    
    35   17   81 1    
    36   17   82 1    
    37   18   19 1    
    38   18   22 1    
    39   18   83 1    
    40   19   20 am   BACKBONE|DICT|INTERRES
    41   19   21 2    
    42   20   84 1    
    43   20   85 1    
    44   22   23 am   BACKBONE|DICT|INTERRES
    45   22   86 1    
    46   23   24 2    
    47   23   25 1    
    48   25   26 1    
    49   25   27 1    
    50   25   87 1    
    51   26   88 1    
    52   26   89 1    
    53   26   90 1    
    54   27   28 am   BACKBONE|DICT|INTERRES
    55   27   91 1    
    56   28   29 2    
    57   28   30 1    
    58   30   31 1    
    59   30   32 1    
    60   30   92 1    
    61   31   93 1    
    62   31   94 1    
    63   31   95 1    
    64   32   33 am   BACKBONE|DICT|INTERRES
    65   32   96 1    
    66   33   34 2    
    67   33   35 1    
    68   35   36 1    
    69   35   37 1    
    70   35   97 1    
    71   36   98 1    
    72   36   99 1    
    73   36  100 1    
    74   37   38 am   BACKBONE|DICT|INTERRES
    75   37  101 1    
    76   38   39 2    
    77   38   40 1    
    78   40   41 1    
    79   40   42 1    
    80   40  102 1    
    81   41  103 1    
    82   41  104 1    
    83   41  105 1    
    84   42   43 am   BACKBONE|DICT|INTERRES
    85   42  106 1    
    86   43   44 2    
    87   43   45 1    
    88   45   46 1    
    89   45   49 1    
    90   45  107 1    
    91   46   47 1    
    92   46  108 1    
    93   46  109 1    
    94   47   48 1    
    95   48  110 1    
    96   48  111 1    
    97   49   50 am   BACKBONE|DICT|INTERRES
    98   49  112 1    
    99   50   51 2    
   100   50   52 1    
   101   52   53 1    
   102   52   54 1    
   103   52  113 1    
   104   53  114 1    
   105   53  115 1    
   106   53  116 1    
   107   54   55 am   BACKBONE|DICT|INTERRES
   108   54  117 1    
   109   55   56 2    
   110   55   57 1    
   111   57   58 1    
   112   57   59 1    
   113   57  118 1    
   114   58  119 1    
   115   58  120 1    
   116   58  121 1    
   117   59   60 am   BACKBONE|DICT|INTERRES
   118   59  122 1    
   119   60   61 2    
   120   60   62 1    
   121   62   63 1    
   122   62   64 1    
   123   62  123 1    
   124   63  124 1    
   125   63  125 1    
   126   63  126 1    
   127   64   65 am   BACKBONE|DICT|INTERRES
   128   64  127 1    
   129   65   66 2    
@<TRIPOS>SUBSTRUCTURE
     1 UNK         1 GROUP             0       ****    0 ROOT    
