@<TRIPOS>MOLECULE
3R134
127   129    1
SMALL
USER_CHARGES


@<TRIPOS>ATOM
      1 CA         39.0938  -46.4367  -54.4216 C.3       0 UNK        -0.1968 
      2 C          37.6365  -46.8539  -54.2929 C.2       0 UNK         0.4852 
      3 O          37.2806  -47.9679  -54.6827 O.2       0 UNK        -0.5359 
      4 N          36.7889  -45.9770  -53.7387 N.am      1 UNK        -0.4300 
      5 CA         35.3474  -46.1801  -53.5426 C.3       1 UNK         0.0863 
      6 C6         34.5881  -44.8326  -53.4408 C.3       11 UNK        -0.0953 
      7 S7         34.7177  -43.8554  -54.9725 S.3       11 UNK        -0.2369 
      8 C8         33.6079  -42.4650  -54.5925 C.3       11 UNK         0.0226 
      9 C9         32.1422  -42.8741  -54.6304 C.ar      11 UNK        -0.0699 
     10 C10        31.4257  -43.0612  -53.4438 C.ar      11 UNK        -0.0804 
     11 C11        30.0708  -43.4085  -53.4769 C.ar      11 UNK        -0.0871 
     12 C12        29.4348  -43.5669  -54.7116 C.ar      11 UNK        -0.1008 
     13 C13        30.1427  -43.3898  -55.9039 C.ar      11 UNK        -0.0735 
     14 C14        31.4953  -43.0417  -55.8579 C.ar      11 UNK        -0.0945 
     15 C15        29.4387  -43.5652  -57.2385 C.3       11 UNK         0.0169 
     16 S16        28.4139  -42.1109  -57.6210 S.3       11 UNK        -0.2669 
     17 C17        27.6093  -42.6242  -59.1761 C.3       11 UNK        -0.0850 
     18 CA         26.1743  -43.1661  -58.9477 C.3       10 UNK         0.0855 
     19 C          25.4506  -43.3864  -60.3026 C.2       10 UNK         0.5543 
     20 N          24.4998  -42.5303  -60.6497 N.am      10 UNK        -0.7343 
     21 O          25.7824  -44.2957  -61.0599 O.2       10 UNK        -0.5027 
     22 N          26.2016  -44.3895  -58.1383 N.am      10 UNK        -0.4495 
     23 C          25.1459  -44.9912  -57.5792 C.2       10 UNK         0.4903 
     24 O          23.9976  -44.5471  -57.6233 O.2       10 UNK        -0.4860 
     25 CA         25.4465  -46.3016  -56.8218 C.3       9 UNK         0.0227 
     26 CB         24.1942  -47.1736  -56.5932 C.3       9 UNK        -0.1964 
     27 N          26.5300  -47.0867  -57.4297 N.am      9 UNK        -0.4231 
     28 C          26.5550  -47.6107  -58.6666 C.2       9 UNK         0.5014 
     29 O          25.6296  -47.5346  -59.4747 O.2       9 UNK        -0.5270 
     30 CA         27.8328  -48.3590  -59.0629 C.3       8 UNK         0.0284 
     31 CB         28.9933  -47.3805  -59.3218 C.3       8 UNK        -0.1977 
     32 N          28.1990  -49.3127  -58.0149 N.am      8 UNK        -0.4342 
     33 C          28.0021  -50.6347  -58.0976 C.2       8 UNK         0.5039 
     34 O          27.5743  -51.2075  -59.1010 O.2       8 UNK        -0.5547 
     35 CA         28.3349  -51.4694  -56.8517 C.3       7 UNK         0.0281 
     36 CB         29.8350  -51.8047  -56.8072 C.3       7 UNK        -0.1963 
     37 N          27.9360  -50.8333  -55.5942 N.am      7 UNK        -0.4444 
     38 C          26.6676  -50.6631  -55.1918 C.2       7 UNK         0.5104 
     39 O          25.6867  -50.9586  -55.8743 O.2       7 UNK        -0.5100 
     40 CA         26.4512  -50.0865  -53.7842 C.3       6 UNK         0.0396 
     41 CB         26.6456  -51.1818  -52.7229 C.3       6 UNK        -0.1801 
     42 N          27.3746  -48.9854  -53.5132 N.am      6 UNK        -0.4747 
     43 C          27.0248  -47.6957  -53.4007 C.2       6 UNK         0.5012 
     44 O          25.8611  -47.2959  -53.4333 O.2       6 UNK        -0.5003 
     45 CA         28.1623  -46.6644  -53.2277 C.3       5 UNK         0.0782 
     46 C46        28.2522  -46.1990  -51.7517 C.3       11 UNK        -0.0868 
     47 S47        29.7015  -45.1557  -51.3605 S.3       11 UNK        -0.2515 
     48 C48        29.2978  -43.5784  -52.1757 C.3       11 UNK         0.0199 
     49 N          29.4522  -47.1319  -53.7404 N.am      5 UNK        -0.4607 
     50 C          29.7219  -47.4311  -55.0155 C.2       4 UNK         0.5031 
     51 O          28.8977  -47.3593  -55.9278 O.2       4 UNK        -0.5119 
     52 CA         31.1322  -47.9647  -55.3116 C.3       4 UNK         0.0263 
     53 CB         32.0600  -46.8005  -55.6904 C.3       4 UNK        -0.1967 
     54 N          31.7329  -48.7473  -54.2184 N.am      4 UNK        -0.4237 
     55 C          31.1870  -49.8320  -53.6410 C.2       3 UNK         0.4908 
     56 O          30.0545  -50.2374  -53.9061 O.2       3 UNK        -0.5102 
     57 CA         32.0123  -50.5985  -52.5947 C.3       3 UNK         0.0241 
     58 CB         32.0713  -52.1014  -52.9268 C.3       3 UNK        -0.1971 
     59 N          33.3755  -50.0796  -52.4473 N.am      3 UNK        -0.4139 
     60 C          34.0099  -49.9207  -51.2777 C.2       2 UNK         0.5016 
     61 O          33.5191  -50.1929  -50.1813 O.2       2 UNK        -0.5319 
     62 CA         35.4377  -49.3524  -51.3423 C.3       2 UNK         0.0286 
     63 CB         36.4608  -50.4770  -51.5703 C.3       2 UNK        -0.1963 
     64 N          35.5990  -48.3299  -52.3803 N.am      2 UNK        -0.4790 
     65 C          35.0652  -47.1020  -52.3344 C.2       1 UNK         0.5024 
     66 O          34.3871  -46.6978  -51.3888 O.2       1 UNK        -0.4888 
     67 H67        39.7309  -47.1238  -53.8654 H         1 UNK         0.0892 
     68 H68        39.2653  -45.4302  -54.0403 H         1 UNK         0.0892 
     69 H69        39.3986  -46.4594  -55.4675 H         1 UNK         0.0892 
     70 H70        37.1422  -45.0846  -53.4241 H         1 UNK         0.3107 
     71 H71        34.9595  -46.7032  -54.4191 H         1 UNK         0.0773 
     72 H72        34.9648  -44.2355  -52.6082 H         1 UNK         0.0680 
     73 H73        33.5296  -45.0062  -53.2413 H         1 UNK         0.0680 
     74 H74        33.8706  -42.0451  -53.6202 H         1 UNK         0.0650 
     75 H75        33.7785  -41.6721  -55.3221 H         1 UNK         0.0650 
     76 H76        31.9204  -42.9319  -52.4907 H         1 UNK         0.1397 
     77 H77        28.3827  -43.8093  -54.7539 H         1 UNK         0.1363 
     78 H78        32.0466  -42.8955  -56.7768 H         1 UNK         0.1355 
     79 H79        28.8216  -44.4631  -57.1998 H         1 UNK         0.0707 
     80 H80        30.1638  -43.7206  -58.0391 H         1 UNK         0.0707 
     81 H81        28.2290  -43.3585  -59.6949 H         1 UNK         0.1034 
     82 H82        27.5803  -41.7474  -59.8264 H         1 UNK         0.1034 
     83 H83        25.6177  -42.4167  -58.3807 H         1 UNK         0.0482 
     84 H84        24.0323  -42.6486  -61.5350 H         1 UNK         0.3460 
     85 H85        24.2275  -41.7775  -60.0365 H         1 UNK         0.3460 
     86 H86        27.0934  -44.8521  -58.0734 H         1 UNK         0.2989 
     87 H87        25.8143  -45.9957  -55.8421 H         1 UNK         0.0559 
     88 H88        23.7298  -47.4722  -57.5333 H         1 UNK         0.0848 
     89 H89        23.4429  -46.6347  -56.0149 H         1 UNK         0.0848 
     90 H90        24.4401  -48.0783  -56.0365 H         1 UNK         0.0848 
     91 H91        27.3656  -47.1913  -56.8552 H         1 UNK         0.3144 
     92 H92        27.6317  -48.8816  -60.0006 H         1 UNK         0.0727 
     93 H93        29.8865  -47.9110  -59.6521 H         1 UNK         0.0790 
     94 H94        29.2601  -46.8033  -58.4371 H         1 UNK         0.0790 
     95 H95        28.7317  -46.6691  -60.1065 H         1 UNK         0.0790 
     96 H96        28.5241  -48.9186  -57.1390 H         1 UNK         0.3215 
     97 H97        27.7848  -52.4096  -56.9329 H         1 UNK         0.0863 
     98 H98        30.0711  -52.4561  -55.9654 H         1 UNK         0.0808 
     99 H99        30.4490  -50.9088  -56.7176 H         1 UNK         0.0808 
    100 H100       30.1456  -52.3232  -57.7153 H         1 UNK         0.0808 
    101 H101       28.6912  -50.5969  -54.9516 H         1 UNK         0.3118 
    102 H102       25.4164  -49.7426  -53.7254 H         1 UNK         0.0546 
    103 H103       25.9762  -52.0240  -52.9032 H         1 UNK         0.0828 
    104 H104       26.4292  -50.8048  -51.7233 H         1 UNK         0.0828 
    105 H105       27.6656  -51.5690  -52.7201 H         1 UNK         0.0828 
    106 H106       28.3614  -49.2207  -53.4928 H         1 UNK         0.3005 
    107 H107       27.8739  -45.8065  -53.8342 H         1 UNK         0.1257 
    108 H108       28.3045  -47.0648  -51.0883 H         1 UNK         0.0775 
    109 H109       27.3464  -45.6605  -51.4663 H         1 UNK         0.0775 
    110 H110       28.2228  -43.5020  -52.3455 H         1 UNK         0.0840 
    111 H111       29.5530  -42.7612  -51.4994 H         1 UNK         0.0840 
    112 H112       30.1937  -47.2047  -53.0596 H         1 UNK         0.2987 
    113 H113       31.0502  -48.6259  -56.1758 H         1 UNK         0.0785 
    114 H114       33.0471  -47.1527  -55.9893 H         1 UNK         0.0798 
    115 H115       32.1821  -46.0973  -54.8663 H         1 UNK         0.0798 
    116 H116       31.6534  -46.2369  -56.5318 H         1 UNK         0.0798 
    117 H117       32.6388  -48.4443  -53.8997 H         1 UNK         0.3079 
    118 H118       31.4708  -50.4784  -51.6539 H         1 UNK         0.0794 
    119 H119       32.5784  -52.2844  -53.8748 H         1 UNK         0.0786 
    120 H120       31.0708  -52.5298  -53.0031 H         1 UNK         0.0786 
    121 H121       32.5990  -52.6572  -52.1515 H         1 UNK         0.0786 
    122 H122       33.8873  -49.8837  -53.2958 H         1 UNK         0.3032 
    123 H123       35.6488  -48.8903  -50.3749 H         1 UNK         0.1094 
    124 H124       37.4818  -50.0966  -51.5335 H         1 UNK         0.0794 
    125 H125       36.3745  -51.2448  -50.8000 H         1 UNK         0.0794 
    126 H126       36.3197  -50.9653  -52.5353 H         1 UNK         0.0794 
    127 H127       36.1881  -48.5531  -53.1793 H         1 UNK         0.3016 
@<TRIPOS>BOND
     1    1    2 1    
     2    1   67 1    
     3    1   68 1    
     4    1   69 1    
     5    2    3 2    
     6    2    4 am   BACKBONE|DICT|INTERRES
     7    4    5 1    
     8    4   70 1    
     9    5    6 1    
    10    5   65 1    
    11    5   71 1    
    12    6    7 1    
    13    6   72 1    
    14    6   73 1    
    15    7    8 1    
    16    8    9 1    
    17    8   74 1    
    18    8   75 1    
    19    9   10 ar   
    20    9   14 ar   
    21   10   11 ar   
    22   10   76 1    
    23   11   12 ar   
    24   11   48 1    
    25   12   13 ar   
    26   12   77 1    
    27   13   14 ar   
    28   13   15 1    
    29   14   78 1    
    30   15   16 1    
    31   15   79 1    
    32   15   80 1    
    33   16   17 1    
    34   17   18 1    
    35   17   81 1    
    36   17   82 1    
    37   18   19 1    
    38   18   22 1    
    39   18   83 1    
    40   19   20 am   BACKBONE|DICT|INTERRES
    41   19   21 2    
    42   20   84 1    
    43   20   85 1    
    44   22   23 am   BACKBONE|DICT|INTERRES
    45   22   86 1    
    46   23   24 2    
    47   23   25 1    
    48   25   26 1    
    49   25   27 1    
    50   25   87 1    
    51   26   88 1    
    52   26   89 1    
    53   26   90 1    
    54   27   28 am   BACKBONE|DICT|INTERRES
    55   27   91 1    
    56   28   29 2    
    57   28   30 1    
    58   30   31 1    
    59   30   32 1    
    60   30   92 1    
    61   31   93 1    
    62   31   94 1    
    63   31   95 1    
    64   32   33 am   BACKBONE|DICT|INTERRES
    65   32   96 1    
    66   33   34 2    
    67   33   35 1    
    68   35   36 1    
    69   35   37 1    
    70   35   97 1    
    71   36   98 1    
    72   36   99 1    
    73   36  100 1    
    74   37   38 am   BACKBONE|DICT|INTERRES
    75   37  101 1    
    76   38   39 2    
    77   38   40 1    
    78   40   41 1    
    79   40   42 1    
    80   40  102 1    
    81   41  103 1    
    82   41  104 1    
    83   41  105 1    
    84   42   43 am   BACKBONE|DICT|INTERRES
    85   42  106 1    
    86   43   44 2    
    87   43   45 1    
    88   45   46 1    
    89   45   49 1    
    90   45  107 1    
    91   46   47 1    
    92   46  108 1    
    93   46  109 1    
    94   47   48 1    
    95   48  110 1    
    96   48  111 1    
    97   49   50 am   BACKBONE|DICT|INTERRES
    98   49  112 1    
    99   50   51 2    
   100   50   52 1    
   101   52   53 1    
   102   52   54 1    
   103   52  113 1    
   104   53  114 1    
   105   53  115 1    
   106   53  116 1    
   107   54   55 am   BACKBONE|DICT|INTERRES
   108   54  117 1    
   109   55   56 2    
   110   55   57 1    
   111   57   58 1    
   112   57   59 1    
   113   57  118 1    
   114   58  119 1    
   115   58  120 1    
   116   58  121 1    
   117   59   60 am   BACKBONE|DICT|INTERRES
   118   59  122 1    
   119   60   61 2    
   120   60   62 1    
   121   62   63 1    
   122   62   64 1    
   123   62  123 1    
   124   63  124 1    
   125   63  125 1    
   126   63  126 1    
   127   64   65 am   BACKBONE|DICT|INTERRES
   128   64  127 1    
   129   65   66 2    
@<TRIPOS>SUBSTRUCTURE
     1 UNK         1 GROUP             0       ****    0 ROOT    
