@<TRIPOS>MOLECULE
3R134
127   129    1
SMALL
USER_CHARGES


@<TRIPOS>ATOM
      1 CA         34.1718  -41.9929  -57.8670 C.3       0 UNK        -0.1968 
      2 C          33.6628  -42.8142  -56.6919 C.2       0 UNK         0.4852 
      3 O          32.4521  -42.8907  -56.4868 O.2       0 UNK        -0.5359 
      4 N          34.5796  -43.4237  -55.9309 N.am      1 UNK        -0.4300 
      5 CA         34.2994  -44.3008  -54.7862 C.3       1 UNK         0.0863 
      6 C6         34.5944  -43.6185  -53.4211 C.3       11 UNK        -0.0953 
      7 S7         33.7393  -42.0254  -53.1762 S.3       11 UNK        -0.2369 
      8 C8         32.6755  -42.3750  -51.7346 C.3       11 UNK         0.0226 
      9 C9         31.3544  -43.0921  -52.0237 C.ar      11 UNK        -0.0699 
     10 C10        30.6574  -43.6415  -50.9427 C.ar      11 UNK        -0.0804 
     11 C11        29.3998  -44.2251  -51.1191 C.ar      11 UNK        -0.0871 
     12 C12        28.8344  -44.2621  -52.3942 C.ar      11 UNK        -0.1008 
     13 C13        29.5273  -43.7476  -53.4931 C.ar      11 UNK        -0.0735 
     14 C14        30.7835  -43.1616  -53.3031 C.ar      11 UNK        -0.0945 
     15 C15        28.8850  -43.7746  -54.8724 C.3       11 UNK         0.0169 
     16 S16        28.5557  -45.4683  -55.4557 S.3       11 UNK        -0.2669 
     17 C17        30.1588  -45.9374  -56.1955 C.3       11 UNK        -0.0850 
     18 CA         30.3846  -45.3661  -57.6304 C.3       10 UNK         0.0855 
     19 C          31.7443  -45.8087  -58.2517 C.2       10 UNK         0.5543 
     20 N          31.8825  -45.8305  -59.5716 N.am      10 UNK        -0.7343 
     21 O          32.6935  -46.1238  -57.5397 O.2       10 UNK        -0.5027 
     22 N          29.2217  -45.5290  -58.5229 N.am      10 UNK        -0.4495 
     23 C          28.7263  -46.6904  -58.9626 C.2       10 UNK         0.4903 
     24 O          29.2185  -47.7944  -58.7259 O.2       10 UNK        -0.4860 
     25 CA         27.4269  -46.6051  -59.7754 C.3       9 UNK         0.0227 
     26 CB         27.5260  -47.4036  -61.0861 C.3       9 UNK        -0.1964 
     27 N          26.3516  -47.1508  -58.9563 N.am      9 UNK        -0.4231 
     28 C          25.7175  -46.4978  -57.9766 C.2       9 UNK         0.5014 
     29 O          25.7837  -45.2785  -57.8166 O.2       9 UNK        -0.5270 
     30 CA         24.8935  -47.3432  -56.9861 C.3       8 UNK         0.0284 
     31 CB         23.4793  -47.6267  -57.5288 C.3       8 UNK        -0.1977 
     32 N          25.5636  -48.5757  -56.5375 N.am      8 UNK        -0.4342 
     33 C          25.8903  -49.6678  -57.2495 C.2       8 UNK         0.5039 
     34 O          25.6412  -49.8006  -58.4488 O.2       8 UNK        -0.5547 
     35 CA         26.6572  -50.7915  -56.5303 C.3       7 UNK         0.0281 
     36 CB         28.1343  -50.7792  -56.9579 C.3       7 UNK        -0.1963 
     37 N          26.5686  -50.7086  -55.0701 N.am      7 UNK        -0.4444 
     38 C          25.4695  -51.0274  -54.3686 C.2       7 UNK         0.5104 
     39 O          24.4472  -51.4824  -54.8829 O.2       7 UNK        -0.5100 
     40 CA         25.4894  -50.8015  -52.8443 C.3       6 UNK         0.0396 
     41 CB         25.6303  -52.1437  -52.1080 C.3       6 UNK        -0.1801 
     42 N          26.5362  -49.8922  -52.3732 N.am      6 UNK        -0.4747 
     43 C          26.6426  -48.5880  -52.6694 C.2       6 UNK         0.5012 
     44 O          25.8536  -47.9820  -53.3958 O.2       6 UNK        -0.5003 
     45 CA         27.8703  -47.8594  -52.0804 C.3       5 UNK         0.0782 
     46 C46        27.5121  -47.2945  -50.6801 C.3       11 UNK        -0.0868 
     47 S47        28.9223  -46.5819  -49.7604 S.3       11 UNK        -0.2515 
     48 C48        28.6466  -44.7910  -49.9260 C.3       11 UNK         0.0199 
     49 N          29.0851  -48.6889  -52.0530 N.am      5 UNK        -0.4607 
     50 C          29.6244  -49.3266  -53.0997 C.2       4 UNK         0.5031 
     51 O          29.0929  -49.3999  -54.2090 O.2       4 UNK        -0.5119 
     52 CA         30.9510  -50.0585  -52.8411 C.3       4 UNK         0.0263 
     53 CB         30.6815  -51.4534  -52.2527 C.3       4 UNK        -0.1967 
     54 N          31.7351  -50.2031  -54.0694 N.am      4 UNK        -0.4237 
     55 C          32.3056  -49.1874  -54.7294 C.2       3 UNK         0.4908 
     56 O          32.3095  -48.0203  -54.3281 O.2       3 UNK        -0.5102 
     57 CA         32.9628  -49.5471  -56.0698 C.3       3 UNK         0.0241 
     58 CB         31.9044  -49.6876  -57.1763 C.3       3 UNK        -0.1971 
     59 N          33.9076  -48.5018  -56.4517 N.am      3 UNK        -0.4139 
     60 C          35.2288  -48.5503  -56.2490 C.2       2 UNK         0.5016 
     61 O          35.8284  -49.5386  -55.8225 O.2       2 UNK        -0.5319 
     62 CA         36.0162  -47.2698  -56.5664 C.3       2 UNK         0.0286 
     63 CB         36.3826  -47.2139  -58.0584 C.3       2 UNK        -0.1963 
     64 N          35.2757  -46.0590  -56.2054 N.am      2 UNK        -0.4790 
     65 C          35.1045  -45.6097  -54.9535 C.2       1 UNK         0.5024 
     66 O          35.5988  -46.1640  -53.9699 O.2       1 UNK        -0.4888 
     67 H67        33.7737  -42.3905  -58.8002 H         1 UNK         0.0892 
     68 H68        33.8446  -40.9582  -57.7694 H         1 UNK         0.0892 
     69 H69        35.2597  -42.0000  -57.9313 H         1 UNK         0.0892 
     70 H70        35.5593  -43.3232  -56.1586 H         1 UNK         0.3107 
     71 H71        33.2483  -44.5977  -54.7965 H         1 UNK         0.0773 
     72 H72        35.6643  -43.4287  -53.3167 H         1 UNK         0.0680 
     73 H73        34.3269  -44.2910  -52.6041 H         1 UNK         0.0680 
     74 H74        32.4356  -41.4198  -51.2661 H         1 UNK         0.0650 
     75 H75        33.2518  -42.9358  -50.9972 H         1 UNK         0.0650 
     76 H76        31.0868  -43.5931  -49.9510 H         1 UNK         0.1397 
     77 H77        27.8522  -44.6913  -52.5357 H         1 UNK         0.1363 
     78 H78        31.2955  -42.7352  -54.1535 H         1 UNK         0.1355 
     79 H79        27.9374  -43.2365  -54.8244 H         1 UNK         0.0707 
     80 H80        29.4979  -43.2448  -55.6031 H         1 UNK         0.0707 
     81 H81        30.9598  -45.6178  -55.5258 H         1 UNK         0.1034 
     82 H82        30.2027  -47.0272  -56.2111 H         1 UNK         0.1034 
     83 H83        30.4854  -44.2875  -57.5207 H         1 UNK         0.0482 
     84 H84        31.1126  -45.5768  -60.1688 H         1 UNK         0.3460 
     85 H85        32.7612  -46.1163  -59.9717 H         1 UNK         0.3460 
     86 H86        28.7303  -44.6778  -58.7542 H         1 UNK         0.2989 
     87 H87        27.2096  -45.5636  -60.0220 H         1 UNK         0.0559 
     88 H88        28.3368  -47.0270  -61.7109 H         1 UNK         0.0848 
     89 H89        26.6062  -47.3274  -61.6661 H         1 UNK         0.0848 
     90 H90        27.7187  -48.4620  -60.9040 H         1 UNK         0.0848 
     91 H91        26.2253  -48.1619  -58.9791 H         1 UNK         0.3144 
     92 H92        24.7804  -46.7379  -56.0849 H         1 UNK         0.0727 
     93 H93        23.5019  -48.2141  -58.4470 H         1 UNK         0.0790 
     94 H94        22.9576  -46.6957  -57.7543 H         1 UNK         0.0790 
     95 H95        22.8769  -48.1679  -56.7992 H         1 UNK         0.0790 
     96 H96        25.8439  -48.5640  -55.5629 H         1 UNK         0.3215 
     97 H97        26.2208  -51.7413  -56.8472 H         1 UNK         0.0863 
     98 H98        28.7072  -51.5530  -56.4470 H         1 UNK         0.0808 
     99 H99        28.6059  -49.8175  -56.7509 H         1 UNK         0.0808 
    100 H100       28.2306  -50.9559  -58.0300 H         1 UNK         0.0808 
    101 H101       27.3758  -50.3192  -54.5893 H         1 UNK         0.3118 
    102 H102       24.5272  -50.3626  -52.5726 H         1 UNK         0.0546 
    103 H103       26.5862  -52.6232  -52.3224 H         1 UNK         0.0828 
    104 H104       24.8439  -52.8384  -52.4068 H         1 UNK         0.0828 
    105 H105       25.5513  -52.0162  -51.0282 H         1 UNK         0.0828 
    106 H106       27.2518  -50.2966  -51.7864 H         1 UNK         0.3005 
    107 H107       28.0880  -47.0252  -52.7492 H         1 UNK         0.1257 
    108 H108       27.1044  -48.0863  -50.0480 H         1 UNK         0.0775 
    109 H109       26.7172  -46.5517  -50.7668 H         1 UNK         0.0775 
    110 H110       27.5821  -44.5657  -50.0028 H         1 UNK         0.0840 
    111 H111       28.9853  -44.3046  -49.0098 H         1 UNK         0.0840 
    112 H112       29.5850  -48.6830  -51.1751 H         1 UNK         0.2987 
    113 H113       31.5386  -49.4772  -52.1270 H         1 UNK         0.0785 
    114 H114       30.1337  -51.3845  -51.3119 H         1 UNK         0.0798 
    115 H115       31.6114  -51.9829  -52.0438 H         1 UNK         0.0798 
    116 H116       30.0885  -52.0697  -52.9301 H         1 UNK         0.0798 
    117 H117       31.7455  -51.1211  -54.4888 H         1 UNK         0.3079 
    118 H118       33.4814  -50.5020  -55.9599 H         1 UNK         0.0794 
    119 H119       31.1867  -50.4736  -56.9398 H         1 UNK         0.0786 
    120 H120       32.3620  -49.9439  -58.1319 H         1 UNK         0.0786 
    121 H121       31.3410  -48.7658  -57.3163 H         1 UNK         0.0786 
    122 H122       33.4988  -47.6208  -56.7567 H         1 UNK         0.3032 
    123 H123       36.9417  -47.2978  -55.9863 H         1 UNK         0.1094 
    124 H124       37.0026  -46.3457  -58.2822 H         1 UNK         0.0794 
    125 H125       36.9468  -48.0994  -58.3544 H         1 UNK         0.0794 
    126 H126       35.4950  -47.1654  -58.6909 H         1 UNK         0.0794 
    127 H127       34.7491  -45.6080  -56.9438 H         1 UNK         0.3016 
@<TRIPOS>BOND
     1    1    2 1    
     2    1   67 1    
     3    1   68 1    
     4    1   69 1    
     5    2    3 2    
     6    2    4 am   BACKBONE|DICT|INTERRES
     7    4    5 1    
     8    4   70 1    
     9    5    6 1    
    10    5   65 1    
    11    5   71 1    
    12    6    7 1    
    13    6   72 1    
    14    6   73 1    
    15    7    8 1    
    16    8    9 1    
    17    8   74 1    
    18    8   75 1    
    19    9   10 ar   
    20    9   14 ar   
    21   10   11 ar   
    22   10   76 1    
    23   11   12 ar   
    24   11   48 1    
    25   12   13 ar   
    26   12   77 1    
    27   13   14 ar   
    28   13   15 1    
    29   14   78 1    
    30   15   16 1    
    31   15   79 1    
    32   15   80 1    
    33   16   17 1    
    34   17   18 1    
    35   17   81 1    
    36   17   82 1    
    37   18   19 1    
    38   18   22 1    
    39   18   83 1    
    40   19   20 am   BACKBONE|DICT|INTERRES
    41   19   21 2    
    42   20   84 1    
    43   20   85 1    
    44   22   23 am   BACKBONE|DICT|INTERRES
    45   22   86 1    
    46   23   24 2    
    47   23   25 1    
    48   25   26 1    
    49   25   27 1    
    50   25   87 1    
    51   26   88 1    
    52   26   89 1    
    53   26   90 1    
    54   27   28 am   BACKBONE|DICT|INTERRES
    55   27   91 1    
    56   28   29 2    
    57   28   30 1    
    58   30   31 1    
    59   30   32 1    
    60   30   92 1    
    61   31   93 1    
    62   31   94 1    
    63   31   95 1    
    64   32   33 am   BACKBONE|DICT|INTERRES
    65   32   96 1    
    66   33   34 2    
    67   33   35 1    
    68   35   36 1    
    69   35   37 1    
    70   35   97 1    
    71   36   98 1    
    72   36   99 1    
    73   36  100 1    
    74   37   38 am   BACKBONE|DICT|INTERRES
    75   37  101 1    
    76   38   39 2    
    77   38   40 1    
    78   40   41 1    
    79   40   42 1    
    80   40  102 1    
    81   41  103 1    
    82   41  104 1    
    83   41  105 1    
    84   42   43 am   BACKBONE|DICT|INTERRES
    85   42  106 1    
    86   43   44 2    
    87   43   45 1    
    88   45   46 1    
    89   45   49 1    
    90   45  107 1    
    91   46   47 1    
    92   46  108 1    
    93   46  109 1    
    94   47   48 1    
    95   48  110 1    
    96   48  111 1    
    97   49   50 am   BACKBONE|DICT|INTERRES
    98   49  112 1    
    99   50   51 2    
   100   50   52 1    
   101   52   53 1    
   102   52   54 1    
   103   52  113 1    
   104   53  114 1    
   105   53  115 1    
   106   53  116 1    
   107   54   55 am   BACKBONE|DICT|INTERRES
   108   54  117 1    
   109   55   56 2    
   110   55   57 1    
   111   57   58 1    
   112   57   59 1    
   113   57  118 1    
   114   58  119 1    
   115   58  120 1    
   116   58  121 1    
   117   59   60 am   BACKBONE|DICT|INTERRES
   118   59  122 1    
   119   60   61 2    
   120   60   62 1    
   121   62   63 1    
   122   62   64 1    
   123   62  123 1    
   124   63  124 1    
   125   63  125 1    
   126   63  126 1    
   127   64   65 am   BACKBONE|DICT|INTERRES
   128   64  127 1    
   129   65   66 2    
@<TRIPOS>SUBSTRUCTURE
     1 UNK         1 GROUP             0       ****    0 ROOT    
