@<TRIPOS>MOLECULE
3R134
127   129    1
SMALL
USER_CHARGES


@<TRIPOS>ATOM
      1 CA         33.1359  -45.1779  -46.4076 C.3       0 UNK        -0.1968 
      2 C          33.6239  -45.8104  -47.7030 C.2       0 UNK         0.4852 
      3 O          34.4018  -46.7655  -47.6617 O.2       0 UNK        -0.5359 
      4 N          33.1822  -45.2788  -48.8498 N.am      1 UNK        -0.4300 
      5 CA         33.4798  -45.7957  -50.1886 C.3       1 UNK         0.0863 
      6 C6         33.2468  -44.7318  -51.2946 C.3       11 UNK        -0.0953 
      7 S7         31.6454  -43.8595  -51.1913 S.3       11 UNK        -0.2369 
      8 C8         31.8908  -42.5436  -52.4243 C.3       11 UNK         0.0226 
      9 C9         31.5565  -43.0144  -53.8326 C.ar      11 UNK        -0.0699 
     10 C10        32.5400  -43.5850  -54.6482 C.ar      11 UNK        -0.0804 
     11 C11        32.2305  -43.9962  -55.9491 C.ar      11 UNK        -0.0871 
     12 C12        30.9320  -43.8211  -56.4293 C.ar      11 UNK        -0.1008 
     13 C13        29.9331  -43.2713  -55.6228 C.ar      11 UNK        -0.0735 
     14 C14        30.2556  -42.8660  -54.3242 C.ar      11 UNK        -0.0945 
     15 C15        28.4944  -43.1741  -56.1176 C.3       11 UNK         0.0169 
     16 S16        28.3075  -42.2338  -57.6698 S.3       11 UNK        -0.2669 
     17 C17        28.3269  -43.5377  -58.9561 C.3       11 UNK        -0.0850 
     18 CA         26.9123  -44.0977  -59.2637 C.3       10 UNK         0.0855 
     19 C          26.8644  -44.8898  -60.6048 C.2       10 UNK         0.5543 
     20 N          26.2033  -46.0396  -60.6840 N.am      10 UNK        -0.7343 
     21 O          27.4238  -44.4457  -61.6044 O.2       10 UNK        -0.5027 
     22 N          26.4093  -44.8807  -58.1267 N.am      10 UNK        -0.4495 
     23 C          25.1837  -44.7897  -57.6011 C.2       10 UNK         0.4903 
     24 O          24.3289  -43.9864  -57.9786 O.2       10 UNK        -0.4860 
     25 CA         24.8662  -45.7832  -56.4657 C.3       9 UNK         0.0227 
     26 CB         23.3587  -45.8718  -56.1485 C.3       9 UNK        -0.1964 
     27 N          25.4230  -47.1226  -56.6994 N.am      9 UNK        -0.4231 
     28 C          25.1928  -47.9272  -57.7509 C.2       9 UNK         0.5014 
     29 O          24.4707  -47.6147  -58.6989 O.2       9 UNK        -0.5270 
     30 CA         25.9073  -49.2929  -57.7958 C.3       8 UNK         0.0284 
     31 CB         26.8256  -49.3751  -59.0279 C.3       8 UNK        -0.1977 
     32 N          26.7006  -49.5899  -56.6021 N.am      8 UNK        -0.4342 
     33 C          26.2130  -49.9364  -55.4039 C.2       8 UNK         0.5039 
     34 O          25.0184  -50.1287  -55.1776 O.2       8 UNK        -0.5547 
     35 CA         27.2298  -50.0256  -54.2525 C.3       7 UNK         0.0281 
     36 CB         27.8783  -51.4181  -54.1976 C.3       7 UNK        -0.1963 
     37 N          28.2708  -48.9951  -54.3430 N.am      7 UNK        -0.4444 
     38 C          28.0540  -47.6787  -54.2026 C.2       7 UNK         0.5104 
     39 O          26.9511  -47.1888  -53.9619 O.2       7 UNK        -0.5100 
     40 CA         29.2585  -46.7503  -54.4145 C.3       6 UNK         0.0396 
     41 CB         30.0630  -46.5873  -53.1200 C.3       6 UNK        -0.1801 
     42 N          30.1340  -47.2188  -55.4897 N.am      6 UNK        -0.4747 
     43 C          29.8219  -47.1301  -56.7916 C.2       6 UNK         0.5012 
     44 O          28.7711  -46.6380  -57.2127 O.2       6 UNK        -0.5003 
     45 CA         30.8237  -47.7387  -57.7936 C.3       5 UNK         0.0782 
     46 C46        31.9546  -46.7548  -58.1950 C.3       11 UNK        -0.0868 
     47 S47        33.1991  -46.4332  -56.8886 S.3       11 UNK        -0.2515 
     48 C48        33.2967  -44.6125  -56.8450 C.3       11 UNK         0.0199 
     49 N          31.3520  -49.0389  -57.3707 N.am      5 UNK        -0.4607 
     50 C          30.6333  -50.1388  -57.1194 C.2       4 UNK         0.5031 
     51 O          29.4056  -50.1658  -57.1712 O.2       4 UNK        -0.5119 
     52 CA         31.3821  -51.4264  -56.7239 C.3       4 UNK         0.0263 
     53 CB         31.7195  -52.2715  -57.9673 C.3       4 UNK        -0.1967 
     54 N          32.5590  -51.2153  -55.8683 N.am      4 UNK        -0.4237 
     55 C          33.7143  -50.5989  -56.1592 C.2       3 UNK         0.4908 
     56 O          33.9976  -50.1713  -57.2795 O.2       3 UNK        -0.5102 
     57 CA         34.6968  -50.3903  -54.9882 C.3       3 UNK         0.0241 
     58 CB         35.6812  -49.2306  -55.2512 C.3       3 UNK        -0.1971 
     59 N          34.0568  -50.2094  -53.6745 N.am      3 UNK        -0.4139 
     60 C          33.1234  -49.3058  -53.3327 C.2       2 UNK         0.5016 
     61 O          32.5564  -48.5557  -54.1285 O.2       2 UNK        -0.5319 
     62 CA         32.7738  -49.1937  -51.8431 C.3       2 UNK         0.0286 
     63 CB         33.3178  -50.3356  -50.9576 C.3       2 UNK        -0.1963 
     64 N          33.3006  -47.9143  -51.3799 N.am      2 UNK        -0.4790 
     65 C          32.7264  -47.1118  -50.4786 C.2       1 UNK         0.5024 
     66 O          31.6634  -47.3683  -49.9068 O.2       1 UNK        -0.4888 
     67 H67        33.9821  -44.8114  -45.8267 H         1 UNK         0.0892 
     68 H68        32.4625  -44.3406  -46.5911 H         1 UNK         0.0892 
     69 H69        32.6035  -45.9155  -45.8075 H         1 UNK         0.0892 
     70 H70        32.5175  -44.5181  -48.8284 H         1 UNK         0.3107 
     71 H71        34.5450  -46.0393  -50.2028 H         1 UNK         0.0773 
     72 H72        33.3456  -45.1727  -52.2883 H         1 UNK         0.0680 
     73 H73        34.0362  -43.9817  -51.2267 H         1 UNK         0.0680 
     74 H74        32.9152  -42.1710  -52.3785 H         1 UNK         0.0650 
     75 H75        31.2532  -41.6988  -52.1592 H         1 UNK         0.0650 
     76 H76        33.5458  -43.7065  -54.2706 H         1 UNK         0.1397 
     77 H77        30.6978  -44.1302  -57.4323 H         1 UNK         0.1363 
     78 H78        29.4912  -42.4434  -53.6866 H         1 UNK         0.1355 
     79 H79        28.0960  -44.1798  -56.2340 H         1 UNK         0.0707 
     80 H80        27.8696  -42.6928  -55.3639 H         1 UNK         0.0707 
     81 H81        28.7642  -43.0828  -59.8468 H         1 UNK         0.1034 
     82 H82        28.9941  -44.3527  -58.6821 H         1 UNK         0.1034 
     83 H83        26.2569  -43.2407  -59.4283 H         1 UNK         0.0482 
     84 H84        25.6832  -46.4010  -59.8937 H         1 UNK         0.3460 
     85 H85        26.1789  -46.5286  -61.5643 H         1 UNK         0.3460 
     86 H86        27.0457  -45.5864  -57.7703 H         1 UNK         0.2989 
     87 H87        25.3683  -45.3972  -55.5774 H         1 UNK         0.0559 
     88 H88        22.7831  -46.2091  -57.0112 H         1 UNK         0.0848 
     89 H89        22.9622  -44.8997  -55.8528 H         1 UNK         0.0848 
     90 H90        23.1668  -46.5618  -55.3267 H         1 UNK         0.0848 
     91 H91        26.0468  -47.4585  -55.9756 H         1 UNK         0.3144 
     92 H92        25.1348  -50.0584  -57.8919 H         1 UNK         0.0727 
     93 H93        27.3058  -50.3510  -59.1011 H         1 UNK         0.0790 
     94 H94        27.6101  -48.6178  -58.9947 H         1 UNK         0.0790 
     95 H95        26.2639  -49.2230  -59.9505 H         1 UNK         0.0790 
     96 H96        27.7123  -49.5532  -56.7165 H         1 UNK         0.3215 
     97 H97        26.6853  -49.8668  -53.3190 H         1 UNK         0.0863 
     98 H98        28.5709  -51.5027  -53.3601 H         1 UNK         0.0808 
     99 H99        28.4238  -51.6495  -55.1123 H         1 UNK         0.0808 
    100 H100       27.1206  -52.1923  -54.0693 H         1 UNK         0.0808 
    101 H101       29.2017  -49.2981  -54.5885 H         1 UNK         0.3118 
    102 H102       28.8765  -45.7669  -54.6889 H         1 UNK         0.0546 
    103 H103       29.4682  -46.0960  -52.3492 H         1 UNK         0.0828 
    104 H104       30.9524  -45.9785  -53.2827 H         1 UNK         0.0828 
    105 H105       30.3834  -47.5473  -52.7204 H         1 UNK         0.0828 
    106 H106       31.0286  -47.6214  -55.2218 H         1 UNK         0.3005 
    107 H107       30.2423  -47.9362  -58.6971 H         1 UNK         0.1257 
    108 H108       31.5341  -45.8197  -58.5632 H         1 UNK         0.0775 
    109 H109       32.4945  -47.1703  -59.0472 H         1 UNK         0.0775 
    110 H110       34.2879  -44.3316  -56.4860 H         1 UNK         0.0840 
    111 H111       33.2216  -44.2096  -57.8561 H         1 UNK         0.0840 
    112 H112       32.3624  -49.1120  -57.3014 H         1 UNK         0.2987 
    113 H113       30.6870  -52.0096  -56.1183 H         1 UNK         0.0785 
    114 H114       30.8145  -52.5176  -58.5245 H         1 UNK         0.0798 
    115 H115       32.1956  -53.2121  -57.6906 H         1 UNK         0.0798 
    116 H116       32.3856  -51.7464  -58.6524 H         1 UNK         0.0798 
    117 H117       32.4373  -51.5009  -54.9069 H         1 UNK         0.3079 
    118 H118       35.2802  -51.3099  -54.9230 H         1 UNK         0.0794 
    119 H119       35.1588  -48.2797  -55.3621 H         1 UNK         0.0786 
    120 H120       36.2548  -49.3963  -56.1640 H         1 UNK         0.0786 
    121 H121       36.3978  -49.1255  -54.4368 H         1 UNK         0.0786 
    122 H122       34.4297  -50.7862  -52.9329 H         1 UNK         0.3032 
    123 H123       31.6844  -49.1988  -51.7738 H         1 UNK         0.1094 
    124 H124       32.9693  -51.3091  -51.3056 H         1 UNK         0.0794 
    125 H125       34.4080  -50.3545  -50.9290 H         1 UNK         0.0794 
    126 H126       32.9695  -50.2258  -49.9301 H         1 UNK         0.0794 
    127 H127       34.1405  -47.6006  -51.8475 H         1 UNK         0.3016 
@<TRIPOS>BOND
     1    1    2 1    
     2    1   67 1    
     3    1   68 1    
     4    1   69 1    
     5    2    3 2    
     6    2    4 am   BACKBONE|DICT|INTERRES
     7    4    5 1    
     8    4   70 1    
     9    5    6 1    
    10    5   65 1    
    11    5   71 1    
    12    6    7 1    
    13    6   72 1    
    14    6   73 1    
    15    7    8 1    
    16    8    9 1    
    17    8   74 1    
    18    8   75 1    
    19    9   10 ar   
    20    9   14 ar   
    21   10   11 ar   
    22   10   76 1    
    23   11   12 ar   
    24   11   48 1    
    25   12   13 ar   
    26   12   77 1    
    27   13   14 ar   
    28   13   15 1    
    29   14   78 1    
    30   15   16 1    
    31   15   79 1    
    32   15   80 1    
    33   16   17 1    
    34   17   18 1    
    35   17   81 1    
    36   17   82 1    
    37   18   19 1    
    38   18   22 1    
    39   18   83 1    
    40   19   20 am   BACKBONE|DICT|INTERRES
    41   19   21 2    
    42   20   84 1    
    43   20   85 1    
    44   22   23 am   BACKBONE|DICT|INTERRES
    45   22   86 1    
    46   23   24 2    
    47   23   25 1    
    48   25   26 1    
    49   25   27 1    
    50   25   87 1    
    51   26   88 1    
    52   26   89 1    
    53   26   90 1    
    54   27   28 am   BACKBONE|DICT|INTERRES
    55   27   91 1    
    56   28   29 2    
    57   28   30 1    
    58   30   31 1    
    59   30   32 1    
    60   30   92 1    
    61   31   93 1    
    62   31   94 1    
    63   31   95 1    
    64   32   33 am   BACKBONE|DICT|INTERRES
    65   32   96 1    
    66   33   34 2    
    67   33   35 1    
    68   35   36 1    
    69   35   37 1    
    70   35   97 1    
    71   36   98 1    
    72   36   99 1    
    73   36  100 1    
    74   37   38 am   BACKBONE|DICT|INTERRES
    75   37  101 1    
    76   38   39 2    
    77   38   40 1    
    78   40   41 1    
    79   40   42 1    
    80   40  102 1    
    81   41  103 1    
    82   41  104 1    
    83   41  105 1    
    84   42   43 am   BACKBONE|DICT|INTERRES
    85   42  106 1    
    86   43   44 2    
    87   43   45 1    
    88   45   46 1    
    89   45   49 1    
    90   45  107 1    
    91   46   47 1    
    92   46  108 1    
    93   46  109 1    
    94   47   48 1    
    95   48  110 1    
    96   48  111 1    
    97   49   50 am   BACKBONE|DICT|INTERRES
    98   49  112 1    
    99   50   51 2    
   100   50   52 1    
   101   52   53 1    
   102   52   54 1    
   103   52  113 1    
   104   53  114 1    
   105   53  115 1    
   106   53  116 1    
   107   54   55 am   BACKBONE|DICT|INTERRES
   108   54  117 1    
   109   55   56 2    
   110   55   57 1    
   111   57   58 1    
   112   57   59 1    
   113   57  118 1    
   114   58  119 1    
   115   58  120 1    
   116   58  121 1    
   117   59   60 am   BACKBONE|DICT|INTERRES
   118   59  122 1    
   119   60   61 2    
   120   60   62 1    
   121   62   63 1    
   122   62   64 1    
   123   62  123 1    
   124   63  124 1    
   125   63  125 1    
   126   63  126 1    
   127   64   65 am   BACKBONE|DICT|INTERRES
   128   64  127 1    
   129   65   66 2    
@<TRIPOS>SUBSTRUCTURE
     1 UNK         1 GROUP             0       ****    0 ROOT    
