@<TRIPOS>MOLECULE
3R134
127   129    1
SMALL
USER_CHARGES


@<TRIPOS>ATOM
      1 CA         34.6007  -51.0158  -57.1564 C.3       0 UNK        -0.1968 
      2 C          34.8352  -49.6462  -57.7907 C.2       0 UNK         0.4852 
      3 O          35.5552  -49.5633  -58.7845 O.2       0 UNK        -0.5359 
      4 N          34.2504  -48.5519  -57.2823 N.am      1 UNK        -0.4300 
      5 CA         33.4486  -48.4468  -56.0607 C.3       1 UNK         0.0863 
      6 C6         32.5740  -47.1612  -56.0198 C.3       11 UNK        -0.0953 
      7 S7         33.4286  -45.6294  -56.5453 S.3       11 UNK        -0.2369 
      8 C8         33.3970  -44.5982  -55.0380 C.3       11 UNK         0.0226 
      9 C9         31.9924  -44.1988  -54.6015 C.ar      11 UNK        -0.0699 
     10 C10        31.6143  -44.3309  -53.2631 C.ar      11 UNK        -0.0804 
     11 C11        30.3279  -43.9743  -52.8493 C.ar      11 UNK        -0.0871 
     12 C12        29.4135  -43.4817  -53.7863 C.ar      11 UNK        -0.1008 
     13 C13        29.7847  -43.3212  -55.1266 C.ar      11 UNK        -0.0735 
     14 C14        31.0775  -43.6779  -55.5210 C.ar      11 UNK        -0.0945 
     15 C15        28.8101  -42.8260  -56.1910 C.3       11 UNK         0.0169 
     16 S16        27.5388  -41.6539  -55.6126 S.3       11 UNK        -0.2669 
     17 C17        26.6624  -41.3596  -57.1897 C.3       11 UNK        -0.0850 
     18 CA         25.3719  -42.2052  -57.3705 C.3       10 UNK         0.0855 
     19 C          24.7192  -41.8905  -58.7495 C.2       10 UNK         0.5543 
     20 N          24.7598  -42.7936  -59.7235 N.am      10 UNK        -0.7343 
     21 O          24.1714  -40.8068  -58.9350 O.2       10 UNK        -0.5027 
     22 N          25.6065  -43.6388  -57.1326 N.am      10 UNK        -0.4495 
     23 C          24.6508  -44.5608  -56.9678 C.2       10 UNK         0.4903 
     24 O          23.4519  -44.2878  -56.8925 O.2       10 UNK        -0.4860 
     25 CA         25.0994  -46.0333  -56.8558 C.3       9 UNK         0.0227 
     26 CB         24.1122  -46.9896  -57.5568 C.3       9 UNK        -0.1964 
     27 N          26.4755  -46.3113  -57.2958 N.am      9 UNK        -0.4231 
     28 C          27.0084  -46.1408  -58.5172 C.2       9 UNK         0.5014 
     29 O          26.4211  -45.5897  -59.4494 O.2       9 UNK        -0.5270 
     30 CA         28.4324  -46.6802  -58.7396 C.3       8 UNK         0.0284 
     31 CB         29.4957  -45.6705  -58.2808 C.3       8 UNK        -0.1977 
     32 N          28.6412  -47.9438  -58.0307 N.am      8 UNK        -0.4342 
     33 C          28.6485  -49.1552  -58.6035 C.2       8 UNK         0.5039 
     34 O          28.5457  -49.3458  -59.8160 O.2       8 UNK        -0.5547 
     35 CA         28.7903  -50.3682  -57.6646 C.3       7 UNK         0.0281 
     36 CB         30.2668  -50.7735  -57.5349 C.3       7 UNK        -0.1963 
     37 N          28.2272  -50.1186  -56.3335 N.am      7 UNK        -0.4444 
     38 C          26.9108  -50.0014  -56.0955 C.2       7 UNK         0.5104 
     39 O          26.0493  -50.2030  -56.9513 O.2       7 UNK        -0.5100 
     40 CA         26.4579  -49.5713  -54.6860 C.3       6 UNK         0.0396 
     41 CB         25.8659  -50.7699  -53.9275 C.3       6 UNK        -0.1801 
     42 N          27.4966  -48.9530  -53.8575 N.am      6 UNK        -0.4747 
     43 C          28.1665  -47.8247  -54.1353 C.2       6 UNK         0.5012 
     44 O          28.0041  -47.1668  -55.1637 O.2       6 UNK        -0.5003 
     45 CA         29.2476  -47.4036  -53.1212 C.3       5 UNK         0.0782 
     46 C46        28.6118  -46.5452  -52.0010 C.3       11 UNK        -0.0868 
     47 S47        29.8651  -45.8659  -50.8638 S.3       11 UNK        -0.2515 
     48 C48        29.9277  -44.1228  -51.3878 C.3       11 UNK         0.0199 
     49 N          30.0016  -48.5417  -52.5726 N.am      5 UNK        -0.4607 
     50 C          30.6138  -49.5015  -53.2774 C.2       4 UNK         0.5031 
     51 O          30.6041  -49.5578  -54.5080 O.2       4 UNK        -0.5119 
     52 CA         31.3526  -50.5699  -52.4598 C.3       4 UNK         0.0263 
     53 CB         31.7418  -51.7949  -53.3096 C.3       4 UNK        -0.1967 
     54 N          32.5537  -49.9946  -51.8542 N.am      4 UNK        -0.4237 
     55 C          32.5964  -49.3982  -50.6536 C.2       3 UNK         0.4908 
     56 O          31.6071  -49.2700  -49.9310 O.2       3 UNK        -0.5102 
     57 CA         33.9549  -48.8668  -50.1552 C.3       3 UNK         0.0241 
     58 CB         34.5855  -49.8609  -49.1661 C.3       3 UNK        -0.1971 
     59 N          34.9078  -48.5989  -51.2350 N.am      3 UNK        -0.4139 
     60 C          34.8797  -47.5100  -52.0141 C.2       2 UNK         0.5016 
     61 O          34.0927  -46.5766  -51.8559 O.2       2 UNK        -0.5319 
     62 CA         35.8566  -47.4617  -53.2074 C.3       2 UNK         0.0286 
     63 CB         37.0208  -48.4765  -53.1259 C.3       2 UNK        -0.1963 
     64 N          35.1205  -47.6057  -54.4698 N.am      2 UNK        -0.4790 
     65 C          34.3147  -48.6239  -54.8019 C.2       1 UNK         0.5024 
     66 O          34.2366  -49.6693  -54.1567 O.2       1 UNK        -0.4888 
     67 H67        33.5500  -51.1825  -56.9231 H         1 UNK         0.0892 
     68 H68        34.9081  -51.8064  -57.8405 H         1 UNK         0.0892 
     69 H69        35.1864  -51.1229  -56.2442 H         1 UNK         0.0892 
     70 H70        34.4220  -47.6669  -57.7388 H         1 UNK         0.3107 
     71 H71        32.7484  -49.2811  -56.0518 H         1 UNK         0.0773 
     72 H72        32.1299  -47.0246  -55.0318 H         1 UNK         0.0680 
     73 H73        31.7259  -47.2933  -56.6933 H         1 UNK         0.0680 
     74 H74        33.9699  -43.6899  -55.2281 H         1 UNK         0.0650 
     75 H75        33.9129  -45.1228  -54.2340 H         1 UNK         0.0650 
     76 H76        32.3165  -44.7222  -52.5390 H         1 UNK         0.1397 
     77 H77        28.4121  -43.2259  -53.4695 H         1 UNK         0.1363 
     78 H78        31.3706  -43.5688  -56.5563 H         1 UNK         0.1355 
     79 H79        29.3645  -42.3559  -57.0052 H         1 UNK         0.0707 
     80 H80        28.3086  -43.6948  -56.6111 H         1 UNK         0.0707 
     81 H81        26.4140  -40.2970  -57.2281 H         1 UNK         0.1034 
     82 H82        27.3483  -41.5271  -58.0225 H         1 UNK         0.1034 
     83 H83        24.6592  -41.8745  -56.6125 H         1 UNK         0.0482 
     84 H84        24.3344  -42.5825  -60.6122 H         1 UNK         0.3460 
     85 H85        25.2185  -43.6845  -59.5809 H         1 UNK         0.3460 
     86 H86        26.5618  -43.9515  -57.1861 H         1 UNK         0.2989 
     87 H87        25.0810  -46.2671  -55.7904 H         1 UNK         0.0559 
     88 H88        24.0368  -46.7794  -58.6241 H         1 UNK         0.0848 
     89 H89        23.1097  -46.9015  -57.1364 H         1 UNK         0.0848 
     90 H90        24.4169  -48.0295  -57.4414 H         1 UNK         0.0848 
     91 H91        27.0758  -46.6897  -56.5632 H         1 UNK         0.3144 
     92 H92        28.5559  -46.8251  -59.8150 H         1 UNK         0.0727 
     93 H93        29.5227  -45.5803  -57.1949 H         1 UNK         0.0790 
     94 H94        29.3114  -44.6808  -58.7006 H         1 UNK         0.0790 
     95 H95        30.4902  -45.9768  -58.6060 H         1 UNK         0.0790 
     96 H96        28.6984  -47.8933  -57.0204 H         1 UNK         0.3215 
     97 H97        28.2464  -51.2028  -58.1128 H         1 UNK         0.0863 
     98 H98        30.3948  -51.6148  -56.8535 H         1 UNK         0.0808 
     99 H99        30.8733  -49.9470  -57.1677 H         1 UNK         0.0808 
    100 H100       30.6752  -51.0702  -58.5018 H         1 UNK         0.0808 
    101 H101       28.8882  -49.9444  -55.5824 H         1 UNK         0.3118 
    102 H102       25.6678  -48.8296  -54.8204 H         1 UNK         0.0546 
    103 H103       26.6166  -51.5381  -53.7381 H         1 UNK         0.0828 
    104 H104       25.0610  -51.2356  -54.4981 H         1 UNK         0.0828 
    105 H105       25.4440  -50.4663  -52.9693 H         1 UNK         0.0828 
    106 H106       27.7281  -49.4331  -52.9996 H         1 UNK         0.3005 
    107 H107       29.9602  -46.7845  -53.6703 H         1 UNK         0.1257 
    108 H108       27.9114  -47.1405  -51.4122 H         1 UNK         0.0775 
    109 H109       28.0268  -45.7248  -52.4217 H         1 UNK         0.0775 
    110 H110       28.9595  -43.6569  -51.1977 H         1 UNK         0.0840 
    111 H111       30.6485  -43.5924  -50.7639 H         1 UNK         0.0840 
    112 H112       30.1137  -48.5498  -51.5661 H         1 UNK         0.2987 
    113 H113       30.6749  -50.9186  -51.6775 H         1 UNK         0.0785 
    114 H114       30.8569  -52.2630  -53.7426 H         1 UNK         0.0798 
    115 H115       32.2465  -52.5504  -52.7074 H         1 UNK         0.0798 
    116 H116       32.4021  -51.5302  -54.1356 H         1 UNK         0.0798 
    117 H117       33.3788  -49.9814  -52.4471 H         1 UNK         0.3079 
    118 H118       33.7622  -47.9338  -49.6207 H         1 UNK         0.0794 
    119 H119       33.9131  -50.0593  -48.3302 H         1 UNK         0.0786 
    120 H120       35.5129  -49.4697  -48.7472 H         1 UNK         0.0786 
    121 H121       34.8072  -50.8181  -49.6400 H         1 UNK         0.0786 
    122 H122       35.5736  -49.3268  -51.4515 H         1 UNK         0.3032 
    123 H123       36.2904  -46.4601  -53.2037 H         1 UNK         0.1094 
    124 H124       37.7195  -48.3291  -53.9495 H         1 UNK         0.0794 
    125 H125       37.5882  -48.3495  -52.2028 H         1 UNK         0.0794 
    126 H126       36.6842  -49.5125  -53.1689 H         1 UNK         0.0794 
    127 H127       35.1071  -46.7909  -55.0688 H         1 UNK         0.3016 
@<TRIPOS>BOND
     1    1    2 1    
     2    1   67 1    
     3    1   68 1    
     4    1   69 1    
     5    2    3 2    
     6    2    4 am   BACKBONE|DICT|INTERRES
     7    4    5 1    
     8    4   70 1    
     9    5    6 1    
    10    5   65 1    
    11    5   71 1    
    12    6    7 1    
    13    6   72 1    
    14    6   73 1    
    15    7    8 1    
    16    8    9 1    
    17    8   74 1    
    18    8   75 1    
    19    9   10 ar   
    20    9   14 ar   
    21   10   11 ar   
    22   10   76 1    
    23   11   12 ar   
    24   11   48 1    
    25   12   13 ar   
    26   12   77 1    
    27   13   14 ar   
    28   13   15 1    
    29   14   78 1    
    30   15   16 1    
    31   15   79 1    
    32   15   80 1    
    33   16   17 1    
    34   17   18 1    
    35   17   81 1    
    36   17   82 1    
    37   18   19 1    
    38   18   22 1    
    39   18   83 1    
    40   19   20 am   BACKBONE|DICT|INTERRES
    41   19   21 2    
    42   20   84 1    
    43   20   85 1    
    44   22   23 am   BACKBONE|DICT|INTERRES
    45   22   86 1    
    46   23   24 2    
    47   23   25 1    
    48   25   26 1    
    49   25   27 1    
    50   25   87 1    
    51   26   88 1    
    52   26   89 1    
    53   26   90 1    
    54   27   28 am   BACKBONE|DICT|INTERRES
    55   27   91 1    
    56   28   29 2    
    57   28   30 1    
    58   30   31 1    
    59   30   32 1    
    60   30   92 1    
    61   31   93 1    
    62   31   94 1    
    63   31   95 1    
    64   32   33 am   BACKBONE|DICT|INTERRES
    65   32   96 1    
    66   33   34 2    
    67   33   35 1    
    68   35   36 1    
    69   35   37 1    
    70   35   97 1    
    71   36   98 1    
    72   36   99 1    
    73   36  100 1    
    74   37   38 am   BACKBONE|DICT|INTERRES
    75   37  101 1    
    76   38   39 2    
    77   38   40 1    
    78   40   41 1    
    79   40   42 1    
    80   40  102 1    
    81   41  103 1    
    82   41  104 1    
    83   41  105 1    
    84   42   43 am   BACKBONE|DICT|INTERRES
    85   42  106 1    
    86   43   44 2    
    87   43   45 1    
    88   45   46 1    
    89   45   49 1    
    90   45  107 1    
    91   46   47 1    
    92   46  108 1    
    93   46  109 1    
    94   47   48 1    
    95   48  110 1    
    96   48  111 1    
    97   49   50 am   BACKBONE|DICT|INTERRES
    98   49  112 1    
    99   50   51 2    
   100   50   52 1    
   101   52   53 1    
   102   52   54 1    
   103   52  113 1    
   104   53  114 1    
   105   53  115 1    
   106   53  116 1    
   107   54   55 am   BACKBONE|DICT|INTERRES
   108   54  117 1    
   109   55   56 2    
   110   55   57 1    
   111   57   58 1    
   112   57   59 1    
   113   57  118 1    
   114   58  119 1    
   115   58  120 1    
   116   58  121 1    
   117   59   60 am   BACKBONE|DICT|INTERRES
   118   59  122 1    
   119   60   61 2    
   120   60   62 1    
   121   62   63 1    
   122   62   64 1    
   123   62  123 1    
   124   63  124 1    
   125   63  125 1    
   126   63  126 1    
   127   64   65 am   BACKBONE|DICT|INTERRES
   128   64  127 1    
   129   65   66 2    
@<TRIPOS>SUBSTRUCTURE
     1 UNK         1 GROUP             0       ****    0 ROOT    
