@<TRIPOS>MOLECULE
3R134
127   129    1
SMALL
USER_CHARGES


@<TRIPOS>ATOM
      1 CA         35.2559  -45.1021  -57.0249 C.3       0 UNK        -0.1968 
      2 C          34.4438  -45.1491  -55.7404 C.2       0 UNK         0.4852 
      3 O          33.3987  -45.7980  -55.7008 O.2       0 UNK        -0.5359 
      4 N          34.9090  -44.4734  -54.6834 N.am      1 UNK        -0.4300 
      5 CA         34.2458  -44.3738  -53.3762 C.3       1 UNK         0.0863 
      6 C6         34.6886  -43.0960  -52.6105 C.3       11 UNK        -0.0953 
      7 S7         34.4932  -41.5533  -53.5717 S.3       11 UNK        -0.2369 
      8 C8         33.0669  -40.7611  -52.7657 C.3       11 UNK         0.0226 
      9 C9         31.7495  -41.3243  -53.2749 C.ar      11 UNK        -0.0699 
     10 C10        31.1693  -42.4326  -52.6530 C.ar      11 UNK        -0.0804 
     11 C11        29.9649  -42.9592  -53.1268 C.ar      11 UNK        -0.0871 
     12 C12        29.3191  -42.3466  -54.2033 C.ar      11 UNK        -0.1008 
     13 C13        29.8898  -41.2387  -54.8359 C.ar      11 UNK        -0.0735 
     14 C14        31.1077  -40.7342  -54.3689 C.ar      11 UNK        -0.0945 
     15 C15        29.1873  -40.5757  -56.0125 C.3       11 UNK         0.0169 
     16 S16        29.7556  -41.2358  -57.6120 S.3       11 UNK        -0.2669 
     17 C17        28.8206  -42.8003  -57.7166 C.3       11 UNK        -0.0850 
     18 CA         29.5234  -43.8789  -58.5900 C.3       10 UNK         0.0855 
     19 C          30.8089  -44.5239  -57.9898 C.2       10 UNK         0.5543 
     20 N          31.1499  -44.2876  -56.7309 N.am      10 UNK        -0.7343 
     21 O          31.5211  -45.2299  -58.6996 O.2       10 UNK        -0.5027 
     22 N          28.5832  -44.9103  -59.0570 N.am      10 UNK        -0.4495 
     23 C          27.9537  -45.7949  -58.2713 C.2       10 UNK         0.4903 
     24 O          28.0137  -45.7794  -57.0394 O.2       10 UNK        -0.4860 
     25 CA         27.1136  -46.8654  -58.9897 C.3       9 UNK         0.0227 
     26 CB         27.9974  -47.7941  -59.8421 C.3       9 UNK        -0.1964 
     27 N          26.4190  -47.6825  -57.9977 N.am      9 UNK        -0.4231 
     28 C          25.1010  -47.6985  -57.7714 C.2       9 UNK         0.5014 
     29 O          24.2815  -47.0870  -58.4607 O.2       9 UNK        -0.5270 
     30 CA         24.6216  -48.5130  -56.5517 C.3       8 UNK         0.0284 
     31 CB         23.1213  -48.8736  -56.6112 C.3       8 UNK        -0.1977 
     32 N          25.4438  -49.6983  -56.2775 N.am      8 UNK        -0.4342 
     33 C          25.6016  -50.7884  -57.0461 C.2       8 UNK         0.5039 
     34 O          25.0177  -50.9598  -58.1171 O.2       8 UNK        -0.5547 
     35 CA         26.5809  -51.8775  -56.5567 C.3       7 UNK         0.0281 
     36 CB         27.7045  -52.1048  -57.5835 C.3       7 UNK        -0.1963 
     37 N          27.1838  -51.5749  -55.2557 N.am      7 UNK        -0.4444 
     38 C          26.6017  -51.7852  -54.0673 C.2       7 UNK         0.5104 
     39 O          25.5148  -52.3453  -53.9260 O.2       7 UNK        -0.5100 
     40 CA         27.3356  -51.2355  -52.8301 C.3       6 UNK         0.0396 
     41 CB         28.2220  -52.3185  -52.1956 C.3       6 UNK        -0.1801 
     42 N          28.1442  -50.0484  -53.1293 N.am      6 UNK        -0.4747 
     43 C          27.6422  -48.8475  -53.4591 C.2       6 UNK         0.5012 
     44 O          26.4365  -48.6061  -53.5141 O.2       6 UNK        -0.5003 
     45 CA         28.6536  -47.7555  -53.8552 C.3       5 UNK         0.0782 
     46 C46        29.1802  -47.0230  -52.5973 C.3       11 UNK        -0.0868 
     47 S47        30.3207  -45.6694  -53.0304 S.3       11 UNK        -0.2515 
     48 C48        29.3780  -44.2104  -52.4989 C.3       11 UNK         0.0199 
     49 N          29.7357  -48.3049  -54.6791 N.am      5 UNK        -0.4607 
     50 C          29.5711  -48.8112  -55.9098 C.2       4 UNK         0.5031 
     51 O          28.4819  -48.8714  -56.4776 O.2       4 UNK        -0.5119 
     52 CA         30.8047  -49.4120  -56.6076 C.3       4 UNK         0.0263 
     53 CB         31.4996  -48.3550  -57.4757 C.3       4 UNK        -0.1967 
     54 N          31.7732  -49.9904  -55.6743 N.am      4 UNK        -0.4237 
     55 C          31.5136  -51.0105  -54.8443 C.2       3 UNK         0.4908 
     56 O          30.4509  -51.6328  -54.8454 O.2       3 UNK        -0.5102 
     57 CA         32.5948  -51.3762  -53.8100 C.3       3 UNK         0.0241 
     58 CB         33.3989  -52.5955  -54.2890 C.3       3 UNK        -0.1971 
     59 N          33.5243  -50.2924  -53.4565 N.am      3 UNK        -0.4139 
     60 C          33.1870  -49.0947  -52.9536 C.2       2 UNK         0.5016 
     61 O          32.0211  -48.7278  -52.8102 O.2       2 UNK        -0.5319 
     62 CA         34.3252  -48.1475  -52.5397 C.3       2 UNK         0.0286 
     63 CB         35.7389  -48.6305  -52.9350 C.3       2 UNK        -0.1963 
     64 N          34.0867  -46.8161  -53.0956 N.am      2 UNK        -0.4790 
     65 C          34.4734  -45.6605  -52.5432 C.2       1 UNK         0.5024 
     66 O          35.0333  -45.5960  -51.4465 O.2       1 UNK        -0.4888 
     67 H67        36.1195  -44.4431  -56.9385 H         1 UNK         0.0892 
     68 H68        35.6107  -46.1003  -57.2797 H         1 UNK         0.0892 
     69 H69        34.6336  -44.7424  -57.8443 H         1 UNK         0.0892 
     70 H70        35.7779  -43.9652  -54.7632 H         1 UNK         0.3107 
     71 H71        33.1698  -44.2977  -53.5466 H         1 UNK         0.0773 
     72 H72        35.7426  -43.1671  -52.3350 H         1 UNK         0.0680 
     73 H73        34.1412  -43.0081  -51.6708 H         1 UNK         0.0680 
     74 H74        33.1390  -40.8663  -51.6822 H         1 UNK         0.0650 
     75 H75        33.1085  -39.6893  -52.9659 H         1 UNK         0.0650 
     76 H76        31.6658  -42.9034  -51.8159 H         1 UNK         0.1397 
     77 H77        28.3752  -42.7413  -54.5526 H         1 UNK         0.1363 
     78 H78        31.5560  -39.8796  -54.8574 H         1 UNK         0.1355 
     79 H79        28.1053  -40.6912  -55.9295 H         1 UNK         0.0707 
     80 H80        29.3775  -39.5015  -55.9919 H         1 UNK         0.0707 
     81 H81        27.8486  -42.5574  -58.1487 H         1 UNK         0.1034 
     82 H82        28.6049  -43.1957  -56.7264 H         1 UNK         0.1034 
     83 H83        29.8564  -43.3791  -59.5008 H         1 UNK         0.0482 
     84 H84        31.9628  -44.7647  -56.3530 H         1 UNK         0.3460 
     85 H85        30.5998  -43.6828  -56.1426 H         1 UNK         0.3460 
     86 H86        28.4989  -45.0017  -60.0591 H         1 UNK         0.2989 
     87 H87        26.4014  -46.3554  -59.6411 H         1 UNK         0.0559 
     88 H88        28.7267  -48.3273  -59.2325 H         1 UNK         0.0848 
     89 H89        28.5468  -47.2417  -60.6049 H         1 UNK         0.0848 
     90 H90        27.3943  -48.5407  -60.3593 H         1 UNK         0.0848 
     91 H91        27.0363  -48.1620  -57.3425 H         1 UNK         0.3144 
     92 H92        24.7603  -47.8563  -55.6916 H         1 UNK         0.0727 
     93 H93        22.8823  -49.4721  -57.4907 H         1 UNK         0.0790 
     94 H94        22.5047  -47.9749  -56.6544 H         1 UNK         0.0790 
     95 H95        22.8128  -49.4340  -55.7287 H         1 UNK         0.0790 
     96 H96        25.9860  -49.6479  -55.4237 H         1 UNK         0.3215 
     97 H97        26.0118  -52.8055  -56.4694 H         1 UNK         0.0863 
     98 H98        28.2585  -51.1886  -57.7860 H         1 UNK         0.0808 
     99 H99        27.2982  -52.4518  -58.5344 H         1 UNK         0.0808 
    100 H100       28.4135  -52.8585  -57.2401 H         1 UNK         0.0808 
    101 H101       28.0915  -51.1273  -55.2690 H         1 UNK         0.3118 
    102 H102       26.5776  -50.9485  -52.0981 H         1 UNK         0.0546 
    103 H103       28.7094  -51.9546  -51.2910 H         1 UNK         0.0828 
    104 H104       28.9972  -52.6633  -52.8802 H         1 UNK         0.0828 
    105 H105       27.6286  -53.1895  -51.9144 H         1 UNK         0.0828 
    106 H106       29.1474  -50.1730  -53.1542 H         1 UNK         0.3005 
    107 H107       28.1167  -47.0297  -54.4716 H         1 UNK         0.1257 
    108 H108       29.7110  -47.7143  -51.9404 H         1 UNK         0.0775 
    109 H109       28.3513  -46.6259  -52.0083 H         1 UNK         0.0775 
    110 H110       28.3310  -44.3244  -52.7848 H         1 UNK         0.0840 
    111 H111       29.4007  -44.1338  -51.4108 H         1 UNK         0.0840 
    112 H112       30.6536  -48.3176  -54.2453 H         1 UNK         0.2987 
    113 H113       30.4560  -50.2144  -57.2604 H         1 UNK         0.0785 
    114 H114       32.3400  -48.7759  -58.0275 H         1 UNK         0.0798 
    115 H115       30.8109  -47.9328  -58.2074 H         1 UNK         0.0798 
    116 H116       31.8712  -47.5254  -56.8750 H         1 UNK         0.0798 
    117 H117       32.6689  -49.5311  -55.6028 H         1 UNK         0.3079 
    118 H118       32.0686  -51.6552  -52.8947 H         1 UNK         0.0794 
    119 H119       34.0857  -52.9473  -53.5188 H         1 UNK         0.0786 
    120 H120       33.9815  -52.3690  -55.1829 H         1 UNK         0.0786 
    121 H121       32.7378  -53.4285  -54.5335 H         1 UNK         0.0786 
    122 H122       34.5079  -50.5017  -53.5495 H         1 UNK         0.3032 
    123 H123       34.2756  -48.0886  -51.4501 H         1 UNK         0.1094 
    124 H124       35.8489  -48.7250  -54.0162 H         1 UNK         0.0794 
    125 H125       36.5015  -47.9319  -52.5898 H         1 UNK         0.0794 
    126 H126       35.9752  -49.5945  -52.4828 H         1 UNK         0.0794 
    127 H127       33.6034  -46.7710  -53.9897 H         1 UNK         0.3016 
@<TRIPOS>BOND
     1    1    2 1    
     2    1   67 1    
     3    1   68 1    
     4    1   69 1    
     5    2    3 2    
     6    2    4 am   BACKBONE|DICT|INTERRES
     7    4    5 1    
     8    4   70 1    
     9    5    6 1    
    10    5   65 1    
    11    5   71 1    
    12    6    7 1    
    13    6   72 1    
    14    6   73 1    
    15    7    8 1    
    16    8    9 1    
    17    8   74 1    
    18    8   75 1    
    19    9   10 ar   
    20    9   14 ar   
    21   10   11 ar   
    22   10   76 1    
    23   11   12 ar   
    24   11   48 1    
    25   12   13 ar   
    26   12   77 1    
    27   13   14 ar   
    28   13   15 1    
    29   14   78 1    
    30   15   16 1    
    31   15   79 1    
    32   15   80 1    
    33   16   17 1    
    34   17   18 1    
    35   17   81 1    
    36   17   82 1    
    37   18   19 1    
    38   18   22 1    
    39   18   83 1    
    40   19   20 am   BACKBONE|DICT|INTERRES
    41   19   21 2    
    42   20   84 1    
    43   20   85 1    
    44   22   23 am   BACKBONE|DICT|INTERRES
    45   22   86 1    
    46   23   24 2    
    47   23   25 1    
    48   25   26 1    
    49   25   27 1    
    50   25   87 1    
    51   26   88 1    
    52   26   89 1    
    53   26   90 1    
    54   27   28 am   BACKBONE|DICT|INTERRES
    55   27   91 1    
    56   28   29 2    
    57   28   30 1    
    58   30   31 1    
    59   30   32 1    
    60   30   92 1    
    61   31   93 1    
    62   31   94 1    
    63   31   95 1    
    64   32   33 am   BACKBONE|DICT|INTERRES
    65   32   96 1    
    66   33   34 2    
    67   33   35 1    
    68   35   36 1    
    69   35   37 1    
    70   35   97 1    
    71   36   98 1    
    72   36   99 1    
    73   36  100 1    
    74   37   38 am   BACKBONE|DICT|INTERRES
    75   37  101 1    
    76   38   39 2    
    77   38   40 1    
    78   40   41 1    
    79   40   42 1    
    80   40  102 1    
    81   41  103 1    
    82   41  104 1    
    83   41  105 1    
    84   42   43 am   BACKBONE|DICT|INTERRES
    85   42  106 1    
    86   43   44 2    
    87   43   45 1    
    88   45   46 1    
    89   45   49 1    
    90   45  107 1    
    91   46   47 1    
    92   46  108 1    
    93   46  109 1    
    94   47   48 1    
    95   48  110 1    
    96   48  111 1    
    97   49   50 am   BACKBONE|DICT|INTERRES
    98   49  112 1    
    99   50   51 2    
   100   50   52 1    
   101   52   53 1    
   102   52   54 1    
   103   52  113 1    
   104   53  114 1    
   105   53  115 1    
   106   53  116 1    
   107   54   55 am   BACKBONE|DICT|INTERRES
   108   54  117 1    
   109   55   56 2    
   110   55   57 1    
   111   57   58 1    
   112   57   59 1    
   113   57  118 1    
   114   58  119 1    
   115   58  120 1    
   116   58  121 1    
   117   59   60 am   BACKBONE|DICT|INTERRES
   118   59  122 1    
   119   60   61 2    
   120   60   62 1    
   121   62   63 1    
   122   62   64 1    
   123   62  123 1    
   124   63  124 1    
   125   63  125 1    
   126   63  126 1    
   127   64   65 am   BACKBONE|DICT|INTERRES
   128   64  127 1    
   129   65   66 2    
@<TRIPOS>SUBSTRUCTURE
     1 UNK         1 GROUP             0       ****    0 ROOT    
