@<TRIPOS>MOLECULE
3R134
127   129    1
SMALL
USER_CHARGES


@<TRIPOS>ATOM
      1 CA         33.2599  -51.1175  -56.5350 C.3       0 UNK        -0.1968 
      2 C          33.3880  -50.0661  -55.4440 C.2       0 UNK         0.4852 
      3 O          33.0621  -50.3457  -54.2905 O.2       0 UNK        -0.5359 
      4 N          33.8770  -48.8689  -55.7993 N.am      1 UNK        -0.4300 
      5 CA         33.9887  -47.6738  -54.9465 C.3       1 UNK         0.0863 
      6 C6         34.6291  -46.4869  -55.7068 C.3       11 UNK        -0.0953 
      7 S7         33.7890  -46.1064  -57.2805 S.3       11 UNK        -0.2369 
      8 C8         33.6897  -44.2923  -57.2187 C.3       11 UNK         0.0226 
      9 C9         32.4653  -43.8140  -56.4539 C.ar      11 UNK        -0.0699 
     10 C10        32.5676  -43.4038  -55.1208 C.ar      11 UNK        -0.0804 
     11 C11        31.4471  -42.9136  -54.4416 C.ar      11 UNK        -0.0871 
     12 C12        30.2180  -42.8354  -55.1075 C.ar      11 UNK        -0.1008 
     13 C13        30.1047  -43.2501  -56.4377 C.ar      11 UNK        -0.0735 
     14 C14        31.2299  -43.7431  -57.1027 C.ar      11 UNK        -0.0945 
     15 C15        28.7760  -43.1522  -57.1697 C.3       11 UNK         0.0169 
     16 S16        27.7507  -44.6151  -56.8402 S.3       11 UNK        -0.2669 
     17 C17        26.3929  -43.9310  -55.8120 C.3       11 UNK        -0.0850 
     18 CA         24.9964  -44.0647  -56.4773 C.3       10 UNK         0.0855 
     19 C          24.7529  -42.9461  -57.5343 C.2       10 UNK         0.5543 
     20 N          24.5881  -43.2478  -58.8170 N.am      10 UNK        -0.7343 
     21 O          24.7039  -41.7726  -57.1745 O.2       10 UNK        -0.5027 
     22 N          24.8000  -45.4375  -56.9529 N.am      10 UNK        -0.4495 
     23 C          23.6605  -46.0191  -57.3364 C.2       10 UNK         0.4903 
     24 O          22.5444  -45.5220  -57.1827 O.2       10 UNK        -0.4860 
     25 CA         23.8296  -47.3872  -58.0346 C.3       9 UNK         0.0227 
     26 CB         22.6365  -47.7441  -58.9460 C.3       9 UNK        -0.1964 
     27 N          25.1073  -47.4974  -58.7641 N.am      9 UNK        -0.4231 
     28 C          25.5302  -46.7043  -59.7656 C.2       9 UNK         0.5014 
     29 O          24.8375  -45.8133  -60.2597 O.2       9 UNK        -0.5270 
     30 CA         26.9831  -46.8802  -60.2440 C.3       8 UNK         0.0284 
     31 CB         27.5497  -45.5888  -60.8661 C.3       8 UNK        -0.1977 
     32 N          27.8513  -47.2817  -59.1356 N.am      8 UNK        -0.4342 
     33 C          28.4960  -48.4498  -59.0412 C.2       8 UNK         0.5039 
     34 O          28.4665  -49.3270  -59.9050 O.2       8 UNK        -0.5547 
     35 CA         29.2958  -48.6925  -57.7496 C.3       7 UNK         0.0281 
     36 CB         30.7350  -48.1773  -57.9084 C.3       7 UNK        -0.1963 
     37 N          28.7113  -48.0979  -56.5421 N.am      7 UNK        -0.4444 
     38 C          27.4905  -48.3499  -56.0431 C.2       7 UNK         0.5104 
     39 O          26.6442  -49.0277  -56.6269 O.2       7 UNK        -0.5100 
     40 CA         27.1520  -47.7405  -54.6700 C.3       6 UNK         0.0396 
     41 CB         26.4466  -48.7522  -53.7483 C.3       6 UNK        -0.1801 
     42 N          28.3492  -47.2228  -54.0059 N.am      6 UNK        -0.4747 
     43 C          28.4088  -46.1648  -53.1907 C.2       6 UNK         0.5012 
     44 O          27.4222  -45.5241  -52.8261 O.2       6 UNK        -0.5003 
     45 CA         29.8146  -45.7991  -52.6679 C.3       5 UNK         0.0782 
     46 C46        29.8484  -44.4143  -51.9744 C.3       11 UNK        -0.0868 
     47 S47        31.5572  -43.8038  -51.8021 S.3       11 UNK        -0.2515 
     48 C48        31.5778  -42.4316  -53.0019 C.3       11 UNK         0.0199 
     49 N          30.3058  -46.8580  -51.7791 N.am      5 UNK        -0.4607 
     50 C          30.7701  -48.0465  -52.1787 C.2       4 UNK         0.5031 
     51 O          30.9105  -48.3600  -53.3623 O.2       4 UNK        -0.5119 
     52 CA         31.0118  -49.0809  -51.0780 C.3       4 UNK         0.0263 
     53 CB         29.7135  -49.8689  -50.8085 C.3       4 UNK        -0.1967 
     54 N          32.0884  -49.9890  -51.4673 N.am      4 UNK        -0.4237 
     55 C          32.7472  -50.7885  -50.6164 C.2       3 UNK         0.4908 
     56 O          32.5011  -50.8594  -49.4113 O.2       3 UNK        -0.5102 
     57 CA         33.8895  -51.6363  -51.1905 C.3       3 UNK         0.0241 
     58 CB         33.3487  -52.8244  -52.0045 C.3       3 UNK        -0.1971 
     59 N          34.7717  -50.8150  -52.0174 N.am      3 UNK        -0.4139 
     60 C          35.8110  -50.1132  -51.5423 C.2       2 UNK         0.5016 
     61 O          36.1868  -50.1564  -50.3698 O.2       2 UNK        -0.5319 
     62 CA         36.5737  -49.2114  -52.5302 C.3       2 UNK         0.0286 
     63 CB         37.8419  -49.9191  -53.0344 C.3       2 UNK        -0.1963 
     64 N          35.7704  -48.7944  -53.6810 N.am      2 UNK        -0.4790 
     65 C          34.7595  -47.9141  -53.6309 C.2       1 UNK         0.5024 
     66 O          34.4264  -47.3139  -52.6090 O.2       1 UNK        -0.4888 
     67 H67        33.8468  -51.9985  -56.2772 H         1 UNK         0.0892 
     68 H68        32.2182  -51.4197  -56.6388 H         1 UNK         0.0892 
     69 H69        33.6042  -50.7488  -57.5011 H         1 UNK         0.0892 
     70 H70        34.1297  -48.7129  -56.7649 H         1 UNK         0.3107 
     71 H71        32.9719  -47.3875  -54.6727 H         1 UNK         0.0773 
     72 H72        34.6269  -45.5972  -55.0749 H         1 UNK         0.0680 
     73 H73        35.6765  -46.6944  -55.9346 H         1 UNK         0.0680 
     74 H74        33.6453  -43.9145  -58.2413 H         1 UNK         0.0650 
     75 H75        34.6045  -43.8819  -56.7882 H         1 UNK         0.0650 
     76 H76        33.5216  -43.4506  -54.6139 H         1 UNK         0.1397 
     77 H77        29.3482  -42.4465  -54.5962 H         1 UNK         0.1363 
     78 H78        31.1489  -44.0609  -58.1334 H         1 UNK         0.1355 
     79 H79        28.2583  -42.2331  -56.8933 H         1 UNK         0.0707 
     80 H80        28.9444  -43.0847  -58.2457 H         1 UNK         0.0707 
     81 H81        26.3809  -44.4829  -54.8745 H         1 UNK         0.1034 
     82 H82        26.5977  -42.8994  -55.5212 H         1 UNK         0.1034 
     83 H83        24.2483  -43.8948  -55.7008 H         1 UNK         0.0482 
     84 H84        24.6274  -44.2060  -59.1480 H         1 UNK         0.3460 
     85 H85        24.4273  -42.5030  -59.4755 H         1 UNK         0.3460 
     86 H86        25.6577  -45.9302  -57.1448 H         1 UNK         0.2989 
     87 H87        23.8708  -48.1309  -57.2374 H         1 UNK         0.0559 
     88 H88        21.7097  -47.7972  -58.3736 H         1 UNK         0.0848 
     89 H89        22.7771  -48.7141  -59.4224 H         1 UNK         0.0848 
     90 H90        22.4890  -47.0023  -59.7314 H         1 UNK         0.0848 
     91 H91        25.7523  -48.1898  -58.3964 H         1 UNK         0.3144 
     92 H92        26.9643  -47.6493  -61.0186 H         1 UNK         0.0727 
     93 H93        27.5288  -44.7581  -60.1592 H         1 UNK         0.0790 
     94 H94        26.9738  -45.2878  -61.7422 H         1 UNK         0.0790 
     95 H95        28.5810  -45.7258  -61.1916 H         1 UNK         0.0790 
     96 H96        27.9485  -46.6210  -58.3754 H         1 UNK         0.3215 
     97 H97        29.3339  -49.7722  -57.5901 H         1 UNK         0.0863 
     98 H98        31.3350  -48.4024  -57.0276 H         1 UNK         0.0808 
     99 H99        30.7641  -47.0976  -58.0632 H         1 UNK         0.0808 
    100 H100       31.2269  -48.6431  -58.7634 H         1 UNK         0.0808 
    101 H101       29.3091  -47.4729  -56.0224 H         1 UNK         0.3118 
    102 H102       26.4652  -46.9153  -54.8641 H         1 UNK         0.0546 
    103 H103       27.0846  -49.6100  -53.5328 H         1 UNK         0.0828 
    104 H104       25.5305  -49.1303  -54.2041 H         1 UNK         0.0828 
    105 H105       26.1671  -48.2958  -52.7988 H         1 UNK         0.0828 
    106 H106       29.2046  -47.7605  -54.1264 H         1 UNK         0.3005 
    107 H107       30.4640  -45.7455  -53.5461 H         1 UNK         0.1257 
    108 H108       29.2675  -43.6779  -52.5314 H         1 UNK         0.0775 
    109 H109       29.3888  -44.4636  -50.9856 H         1 UNK         0.0775 
    110 H110       30.7842  -41.7233  -52.7583 H         1 UNK         0.0840 
    111 H111       32.5134  -41.8821  -52.8880 H         1 UNK         0.0840 
    112 H112       30.1900  -46.6875  -50.7908 H         1 UNK         0.2987 
    113 H113       31.3135  -48.5532  -50.1705 H         1 UNK         0.0785 
    114 H114       28.8908  -49.1988  -50.5554 H         1 UNK         0.0798 
    115 H115       29.8276  -50.5625  -49.9757 H         1 UNK         0.0798 
    116 H116       29.4073  -50.4443  -51.6832 H         1 UNK         0.0798 
    117 H117       32.3373  -49.9748  -52.4558 H         1 UNK         0.3079 
    118 H118       34.4588  -52.0456  -50.3529 H         1 UNK         0.0794 
    119 H119       34.1607  -53.4360  -52.3981 H         1 UNK         0.0786 
    120 H120       32.7343  -52.5033  -52.8457 H         1 UNK         0.0786 
    121 H121       32.7296  -53.4703  -51.3805 H         1 UNK         0.0786 
    122 H122       34.4716  -50.6642  -52.9760 H         1 UNK         0.3032 
    123 H123       36.8752  -48.3154  -51.9824 H         1 UNK         0.1094 
    124 H124       37.6043  -50.8201  -53.6014 H         1 UNK         0.0794 
    125 H125       38.4350  -49.2647  -53.6736 H         1 UNK         0.0794 
    126 H126       38.4792  -50.2180  -52.2007 H         1 UNK         0.0794 
    127 H127       35.9717  -49.2386  -54.5656 H         1 UNK         0.3016 
@<TRIPOS>BOND
     1    1    2 1    
     2    1   67 1    
     3    1   68 1    
     4    1   69 1    
     5    2    3 2    
     6    2    4 am   BACKBONE|DICT|INTERRES
     7    4    5 1    
     8    4   70 1    
     9    5    6 1    
    10    5   65 1    
    11    5   71 1    
    12    6    7 1    
    13    6   72 1    
    14    6   73 1    
    15    7    8 1    
    16    8    9 1    
    17    8   74 1    
    18    8   75 1    
    19    9   10 ar   
    20    9   14 ar   
    21   10   11 ar   
    22   10   76 1    
    23   11   12 ar   
    24   11   48 1    
    25   12   13 ar   
    26   12   77 1    
    27   13   14 ar   
    28   13   15 1    
    29   14   78 1    
    30   15   16 1    
    31   15   79 1    
    32   15   80 1    
    33   16   17 1    
    34   17   18 1    
    35   17   81 1    
    36   17   82 1    
    37   18   19 1    
    38   18   22 1    
    39   18   83 1    
    40   19   20 am   BACKBONE|DICT|INTERRES
    41   19   21 2    
    42   20   84 1    
    43   20   85 1    
    44   22   23 am   BACKBONE|DICT|INTERRES
    45   22   86 1    
    46   23   24 2    
    47   23   25 1    
    48   25   26 1    
    49   25   27 1    
    50   25   87 1    
    51   26   88 1    
    52   26   89 1    
    53   26   90 1    
    54   27   28 am   BACKBONE|DICT|INTERRES
    55   27   91 1    
    56   28   29 2    
    57   28   30 1    
    58   30   31 1    
    59   30   32 1    
    60   30   92 1    
    61   31   93 1    
    62   31   94 1    
    63   31   95 1    
    64   32   33 am   BACKBONE|DICT|INTERRES
    65   32   96 1    
    66   33   34 2    
    67   33   35 1    
    68   35   36 1    
    69   35   37 1    
    70   35   97 1    
    71   36   98 1    
    72   36   99 1    
    73   36  100 1    
    74   37   38 am   BACKBONE|DICT|INTERRES
    75   37  101 1    
    76   38   39 2    
    77   38   40 1    
    78   40   41 1    
    79   40   42 1    
    80   40  102 1    
    81   41  103 1    
    82   41  104 1    
    83   41  105 1    
    84   42   43 am   BACKBONE|DICT|INTERRES
    85   42  106 1    
    86   43   44 2    
    87   43   45 1    
    88   45   46 1    
    89   45   49 1    
    90   45  107 1    
    91   46   47 1    
    92   46  108 1    
    93   46  109 1    
    94   47   48 1    
    95   48  110 1    
    96   48  111 1    
    97   49   50 am   BACKBONE|DICT|INTERRES
    98   49  112 1    
    99   50   51 2    
   100   50   52 1    
   101   52   53 1    
   102   52   54 1    
   103   52  113 1    
   104   53  114 1    
   105   53  115 1    
   106   53  116 1    
   107   54   55 am   BACKBONE|DICT|INTERRES
   108   54  117 1    
   109   55   56 2    
   110   55   57 1    
   111   57   58 1    
   112   57   59 1    
   113   57  118 1    
   114   58  119 1    
   115   58  120 1    
   116   58  121 1    
   117   59   60 am   BACKBONE|DICT|INTERRES
   118   59  122 1    
   119   60   61 2    
   120   60   62 1    
   121   62   63 1    
   122   62   64 1    
   123   62  123 1    
   124   63  124 1    
   125   63  125 1    
   126   63  126 1    
   127   64   65 am   BACKBONE|DICT|INTERRES
   128   64  127 1    
   129   65   66 2    
@<TRIPOS>SUBSTRUCTURE
     1 UNK         1 GROUP             0       ****    0 ROOT    
