@<TRIPOS>MOLECULE
3R134
127   129    1
SMALL
USER_CHARGES


@<TRIPOS>ATOM
      1 CA         36.4423  -44.4509  -50.5060 C.3       0 UNK        -0.1968 
      2 C          34.9473  -44.7121  -50.3949 C.2       0 UNK         0.4852 
      3 O          34.4218  -44.7719  -49.2827 O.2       0 UNK        -0.5359 
      4 N          34.2667  -44.8697  -51.5403 N.am      1 UNK        -0.4300 
      5 CA         32.8257  -45.1399  -51.6613 C.3       1 UNK         0.0863 
      6 C6         31.9478  -43.9738  -51.1246 C.3       11 UNK        -0.0953 
      7 S7         30.3433  -43.8082  -51.9835 S.3       11 UNK        -0.2369 
      8 C8         30.6578  -42.4616  -53.1684 C.3       11 UNK         0.0226 
      9 C9         31.0727  -42.9808  -54.5392 C.ar      11 UNK        -0.0699 
     10 C10        32.4000  -43.3385  -54.7926 C.ar      11 UNK        -0.0804 
     11 C11        32.7953  -43.7728  -56.0627 C.ar      11 UNK        -0.0871 
     12 C12        31.8481  -43.8164  -57.0943 C.ar      11 UNK        -0.1008 
     13 C13        30.5194  -43.4474  -56.8581 C.ar      11 UNK        -0.0735 
     14 C14        30.1352  -43.0494  -55.5742 C.ar      11 UNK        -0.0945 
     15 C15        29.5033  -43.4314  -57.9925 C.3       11 UNK         0.0169 
     16 S16        28.7015  -45.0483  -58.1861 S.3       11 UNK        -0.2669 
     17 C17        27.0961  -44.5920  -58.9215 C.3       11 UNK        -0.0850 
     18 CA         26.0107  -44.2697  -57.8582 C.3       10 UNK         0.0855 
     19 C          24.6585  -43.8962  -58.5338 C.2       10 UNK         0.5543 
     20 N          23.5601  -44.5997  -58.2789 N.am      10 UNK        -0.7343 
     21 O          24.6038  -42.9379  -59.3006 O.2       10 UNK        -0.5027 
     22 N          25.8940  -45.3249  -56.8392 N.am      10 UNK        -0.4495 
     23 C          25.4515  -45.1234  -55.5898 C.2       10 UNK         0.4903 
     24 O          25.1802  -44.0089  -55.1399 O.2       10 UNK        -0.4860 
     25 CA         25.2810  -46.3635  -54.6855 C.3       9 UNK         0.0227 
     26 CB         24.1854  -46.1711  -53.6154 C.3       9 UNK        -0.1964 
     27 N          25.0699  -47.6135  -55.4251 N.am      9 UNK        -0.4231 
     28 C          24.0754  -47.8928  -56.2848 C.2       9 UNK         0.5014 
     29 O          23.1455  -47.1207  -56.5287 O.2       9 UNK        -0.5270 
     30 CA         24.1724  -49.2415  -57.0333 C.3       8 UNK         0.0284 
     31 CB         23.3415  -49.2595  -58.3344 C.3       8 UNK        -0.1977 
     32 N          25.5595  -49.6530  -57.3008 N.am      8 UNK        -0.4342 
     33 C          26.4890  -48.9415  -57.9557 C.2       8 UNK         0.5039 
     34 O          26.2769  -47.8507  -58.4884 O.2       8 UNK        -0.5547 
     35 CA         27.9184  -49.5028  -57.9369 C.3       7 UNK         0.0281 
     36 CB         28.4645  -49.6829  -59.3624 C.3       7 UNK        -0.1963 
     37 N          28.8075  -48.6130  -57.1910 N.am      7 UNK        -0.4444 
     38 C          28.6947  -48.2885  -55.8977 C.2       7 UNK         0.5104 
     39 O          27.8253  -48.7514  -55.1543 O.2       7 UNK        -0.5100 
     40 CA         29.7246  -47.2800  -55.3502 C.3       6 UNK         0.0396 
     41 CB         29.5585  -47.0261  -53.8426 C.3       6 UNK        -0.1801 
     42 N          31.1087  -47.6807  -55.6049 N.am      6 UNK        -0.4747 
     43 C          31.7647  -47.6128  -56.7728 C.2       6 UNK         0.5012 
     44 O          31.2448  -47.2771  -57.8366 O.2       6 UNK        -0.5003 
     45 CA         33.2418  -48.0356  -56.7533 C.3       5 UNK         0.0782 
     46 C46        34.1398  -46.9486  -56.1077 C.3       11 UNK        -0.0868 
     47 S47        34.5406  -45.6218  -57.2949 S.3       11 UNK        -0.2515 
     48 C48        34.2641  -44.1037  -56.3205 C.3       11 UNK         0.0199 
     49 N          33.3660  -49.3288  -56.0780 N.am      5 UNK        -0.4607 
     50 C          33.4743  -50.5088  -56.7042 C.2       4 UNK         0.5031 
     51 O          33.5980  -50.6291  -57.9233 O.2       4 UNK        -0.5119 
     52 CA         33.4339  -51.7796  -55.8326 C.3       4 UNK         0.0263 
     53 CB         34.8578  -52.2080  -55.4428 C.3       4 UNK        -0.1967 
     54 N          32.6275  -51.6263  -54.6195 N.am      4 UNK        -0.4237 
     55 C          31.2993  -51.4429  -54.6001 C.2       3 UNK         0.4908 
     56 O          30.5876  -51.5070  -55.6025 O.2       3 UNK        -0.5102 
     57 CA         30.6494  -51.1090  -53.2417 C.3       3 UNK         0.0241 
     58 CB         29.9645  -52.3559  -52.6587 C.3       3 UNK        -0.1971 
     59 N          31.5428  -50.5316  -52.2233 N.am      3 UNK        -0.4139 
     60 C          32.2888  -49.4280  -52.3703 C.2       2 UNK         0.5016 
     61 O          32.4130  -48.8230  -53.4383 O.2       2 UNK        -0.5319 
     62 CA         33.0667  -48.9361  -51.1396 C.3       2 UNK         0.0286 
     63 CB         34.3968  -49.6952  -51.0076 C.3       2 UNK        -0.1963 
     64 N          33.3493  -47.5066  -51.2768 N.am      2 UNK        -0.4790 
     65 C          32.4339  -46.5382  -51.1257 C.2       1 UNK         0.5024 
     66 O          31.3241  -46.7342  -50.6271 O.2       1 UNK        -0.4888 
     67 H67        36.7767  -44.4166  -51.5427 H         1 UNK         0.0892 
     68 H68        36.6918  -43.4987  -50.0386 H         1 UNK         0.0892 
     69 H69        36.9990  -45.2368  -49.9962 H         1 UNK         0.0892 
     70 H70        34.7710  -44.8128  -52.4139 H         1 UNK         0.3107 
     71 H71        32.6523  -45.2137  -52.7350 H         1 UNK         0.0773 
     72 H72        31.7616  -44.0894  -50.0553 H         1 UNK         0.0680 
     73 H73        32.4830  -43.0283  -51.2181 H         1 UNK         0.0680 
     74 H74        31.4119  -41.7749  -52.7822 H         1 UNK         0.0650 
     75 H75        29.7440  -41.8725  -53.2589 H         1 UNK         0.0650 
     76 H76        33.1302  -43.2545  -54.0003 H         1 UNK         0.1397 
     77 H77        32.1465  -44.1242  -58.0872 H         1 UNK         0.1363 
     78 H78        29.1087  -42.7636  -55.3887 H         1 UNK         0.1355 
     79 H79        29.9859  -43.1548  -58.9309 H         1 UNK         0.0707 
     80 H80        28.7491  -42.6674  -57.7980 H         1 UNK         0.0707 
     81 H81        27.2419  -43.7465  -59.5964 H         1 UNK         0.1034 
     82 H82        26.7708  -45.4236  -59.5492 H         1 UNK         0.1034 
     83 H83        26.3388  -43.3620  -57.3483 H         1 UNK         0.0482 
     84 H84        23.5827  -45.3931  -57.6488 H         1 UNK         0.3460 
     85 H85        22.6945  -44.3383  -58.7230 H         1 UNK         0.3460 
     86 H86        26.0713  -46.2674  -57.1713 H         1 UNK         0.2989 
     87 H87        26.2303  -46.4839  -54.1634 H         1 UNK         0.0559 
     88 H88        24.4171  -45.3281  -52.9632 H         1 UNK         0.0848 
     89 H89        23.2113  -45.9750  -54.0644 H         1 UNK         0.0848 
     90 H90        24.0913  -47.0517  -52.9802 H         1 UNK         0.0848 
     91 H91        25.8240  -48.2887  -55.3355 H         1 UNK         0.3144 
     92 H92        23.7517  -49.9904  -56.3608 H         1 UNK         0.0727 
     93 H93        23.4138  -50.2230  -58.8387 H         1 UNK         0.0790 
     94 H94        23.6695  -48.4892  -59.0334 H         1 UNK         0.0790 
     95 H95        22.2853  -49.0819  -58.1278 H         1 UNK         0.0790 
     96 H96        25.8456  -50.5205  -56.8665 H         1 UNK         0.3215 
     97 H97        27.9237  -50.4749  -57.4394 H         1 UNK         0.0863 
     98 H98        27.8249  -50.3478  -59.9443 H         1 UNK         0.0808 
     99 H99        28.5192  -48.7323  -59.8952 H         1 UNK         0.0808 
    100 H100       29.4637  -50.1189  -59.3517 H         1 UNK         0.0808 
    101 H101       29.5442  -48.1466  -57.7138 H         1 UNK         0.3118 
    102 H102       29.5546  -46.3286  -55.8520 H         1 UNK         0.0546 
    103 H103       28.5793  -46.6027  -53.6198 H         1 UNK         0.0828 
    104 H104       30.3038  -46.3190  -53.4823 H         1 UNK         0.0828 
    105 H105       29.6609  -47.9415  -53.2602 H         1 UNK         0.0828 
    106 H106       31.6128  -48.0394  -54.7948 H         1 UNK         0.3005 
    107 H107       33.5525  -48.1523  -57.7945 H         1 UNK         0.1257 
    108 H108       35.0887  -47.3880  -55.7960 H         1 UNK         0.0775 
    109 H109       33.6916  -46.5358  -55.2013 H         1 UNK         0.0775 
    110 H110       34.8161  -44.1876  -55.3832 H         1 UNK         0.0840 
    111 H111       34.7091  -43.2664  -56.8595 H         1 UNK         0.0840 
    112 H112       33.2107  -49.3182  -55.0737 H         1 UNK         0.2987 
    113 H113       32.9881  -52.5756  -56.4332 H         1 UNK         0.0785 
    114 H114       35.4765  -52.3556  -56.3292 H         1 UNK         0.0798 
    115 H115       34.8534  -53.1494  -54.8931 H         1 UNK         0.0798 
    116 H116       35.3507  -51.4577  -54.8230 H         1 UNK         0.0798 
    117 H117       33.1270  -51.5683  -53.7447 H         1 UNK         0.3079 
    118 H118       29.8764  -50.3654  -53.4455 H         1 UNK         0.0794 
    119 H119       29.2701  -52.7935  -53.3777 H         1 UNK         0.0786 
    120 H120       29.3886  -52.1129  -51.7655 H         1 UNK         0.0786 
    121 H121       30.6889  -53.1273  -52.3942 H         1 UNK         0.0786 
    122 H122       31.5264  -50.9801  -51.3182 H         1 UNK         0.3032 
    123 H123       32.4631  -49.0997  -50.2437 H         1 UNK         0.1094 
    124 H124       34.9689  -49.3438  -50.1486 H         1 UNK         0.0794 
    125 H125       34.2280  -50.7635  -50.8653 H         1 UNK         0.0794 
    126 H126       35.0203  -49.5789  -51.8953 H         1 UNK         0.0794 
    127 H127       34.2264  -47.2644  -51.7127 H         1 UNK         0.3016 
@<TRIPOS>BOND
     1    1    2 1    
     2    1   67 1    
     3    1   68 1    
     4    1   69 1    
     5    2    3 2    
     6    2    4 am   BACKBONE|DICT|INTERRES
     7    4    5 1    
     8    4   70 1    
     9    5    6 1    
    10    5   65 1    
    11    5   71 1    
    12    6    7 1    
    13    6   72 1    
    14    6   73 1    
    15    7    8 1    
    16    8    9 1    
    17    8   74 1    
    18    8   75 1    
    19    9   10 ar   
    20    9   14 ar   
    21   10   11 ar   
    22   10   76 1    
    23   11   12 ar   
    24   11   48 1    
    25   12   13 ar   
    26   12   77 1    
    27   13   14 ar   
    28   13   15 1    
    29   14   78 1    
    30   15   16 1    
    31   15   79 1    
    32   15   80 1    
    33   16   17 1    
    34   17   18 1    
    35   17   81 1    
    36   17   82 1    
    37   18   19 1    
    38   18   22 1    
    39   18   83 1    
    40   19   20 am   BACKBONE|DICT|INTERRES
    41   19   21 2    
    42   20   84 1    
    43   20   85 1    
    44   22   23 am   BACKBONE|DICT|INTERRES
    45   22   86 1    
    46   23   24 2    
    47   23   25 1    
    48   25   26 1    
    49   25   27 1    
    50   25   87 1    
    51   26   88 1    
    52   26   89 1    
    53   26   90 1    
    54   27   28 am   BACKBONE|DICT|INTERRES
    55   27   91 1    
    56   28   29 2    
    57   28   30 1    
    58   30   31 1    
    59   30   32 1    
    60   30   92 1    
    61   31   93 1    
    62   31   94 1    
    63   31   95 1    
    64   32   33 am   BACKBONE|DICT|INTERRES
    65   32   96 1    
    66   33   34 2    
    67   33   35 1    
    68   35   36 1    
    69   35   37 1    
    70   35   97 1    
    71   36   98 1    
    72   36   99 1    
    73   36  100 1    
    74   37   38 am   BACKBONE|DICT|INTERRES
    75   37  101 1    
    76   38   39 2    
    77   38   40 1    
    78   40   41 1    
    79   40   42 1    
    80   40  102 1    
    81   41  103 1    
    82   41  104 1    
    83   41  105 1    
    84   42   43 am   BACKBONE|DICT|INTERRES
    85   42  106 1    
    86   43   44 2    
    87   43   45 1    
    88   45   46 1    
    89   45   49 1    
    90   45  107 1    
    91   46   47 1    
    92   46  108 1    
    93   46  109 1    
    94   47   48 1    
    95   48  110 1    
    96   48  111 1    
    97   49   50 am   BACKBONE|DICT|INTERRES
    98   49  112 1    
    99   50   51 2    
   100   50   52 1    
   101   52   53 1    
   102   52   54 1    
   103   52  113 1    
   104   53  114 1    
   105   53  115 1    
   106   53  116 1    
   107   54   55 am   BACKBONE|DICT|INTERRES
   108   54  117 1    
   109   55   56 2    
   110   55   57 1    
   111   57   58 1    
   112   57   59 1    
   113   57  118 1    
   114   58  119 1    
   115   58  120 1    
   116   58  121 1    
   117   59   60 am   BACKBONE|DICT|INTERRES
   118   59  122 1    
   119   60   61 2    
   120   60   62 1    
   121   62   63 1    
   122   62   64 1    
   123   62  123 1    
   124   63  124 1    
   125   63  125 1    
   126   63  126 1    
   127   64   65 am   BACKBONE|DICT|INTERRES
   128   64  127 1    
   129   65   66 2    
@<TRIPOS>SUBSTRUCTURE
     1 UNK         1 GROUP             0       ****    0 ROOT    
