@<TRIPOS>MOLECULE
3R134
127   129    1
SMALL
USER_CHARGES


@<TRIPOS>ATOM
      1 CA         34.7701  -46.9503  -51.8948 C.3       0 UNK        -0.1968 
      2 C          34.7004  -46.5999  -53.3737 C.2       0 UNK         0.4852 
      3 O          35.6690  -46.0725  -53.9219 O.2       0 UNK        -0.5359 
      4 N          33.5629  -46.8882  -54.0187 N.am      1 UNK        -0.4300 
      5 CA         33.3524  -46.7264  -55.4605 C.3       1 UNK         0.0863 
      6 C6         31.8622  -46.4309  -55.7803 C.3       11 UNK        -0.0953 
      7 S7         31.6511  -45.1838  -57.0881 S.3       11 UNK        -0.2369 
      8 C8         32.1634  -43.6532  -56.2345 C.3       11 UNK         0.0226 
      9 C9         31.2568  -43.3019  -55.0632 C.ar      11 UNK        -0.0699 
     10 C10        31.7002  -43.4522  -53.7445 C.ar      11 UNK        -0.0804 
     11 C11        30.8740  -43.0939  -52.6737 C.ar      11 UNK        -0.0871 
     12 C12        29.5855  -42.6106  -52.9346 C.ar      11 UNK        -0.1008 
     13 C13        29.1365  -42.4398  -54.2497 C.ar      11 UNK        -0.0735 
     14 C14        29.9850  -42.7799  -55.3063 C.ar      11 UNK        -0.0945 
     15 C15        27.7716  -41.8124  -54.5230 C.3       11 UNK         0.0169 
     16 S16        26.6039  -42.9492  -55.3430 S.3       11 UNK        -0.2669 
     17 C17        26.9428  -42.6494  -57.1138 C.3       11 UNK        -0.0850 
     18 CA         25.7791  -43.0980  -58.0361 C.3       10 UNK         0.0855 
     19 C          26.0113  -42.5921  -59.4929 C.2       10 UNK         0.5543 
     20 N          26.2176  -43.4518  -60.4847 N.am      10 UNK        -0.7343 
     21 O          26.0021  -41.3860  -59.7257 O.2       10 UNK        -0.5027 
     22 N          25.5452  -44.5451  -57.9226 N.am      10 UNK        -0.4495 
     23 C          24.4679  -45.1996  -58.3732 C.2       10 UNK         0.4903 
     24 O          23.4679  -44.6418  -58.8278 O.2       10 UNK        -0.4860 
     25 CA         24.5387  -46.7401  -58.3177 C.3       9 UNK         0.0227 
     26 CB         23.5863  -47.4184  -59.3253 C.3       9 UNK        -0.1964 
     27 N          25.9078  -47.2631  -58.4565 N.am      9 UNK        -0.4231 
     28 C          26.7424  -47.0954  -59.4980 C.2       9 UNK         0.5014 
     29 O          26.4326  -46.4710  -60.5139 O.2       9 UNK        -0.5270 
     30 CA         28.1788  -47.6520  -59.3831 C.3       8 UNK         0.0284 
     31 CB         29.2139  -46.5698  -59.7422 C.3       8 UNK        -0.1977 
     32 N          28.4957  -48.1653  -58.0490 N.am      8 UNK        -0.4342 
     33 C          28.2275  -49.3988  -57.5999 C.2       8 UNK         0.5039 
     34 O          27.7521  -50.2948  -58.2970 O.2       8 UNK        -0.5547 
     35 CA         28.4896  -49.6572  -56.1028 C.3       7 UNK         0.0281 
     36 CB         29.8593  -50.3208  -55.8942 C.3       7 UNK        -0.1963 
     37 N          28.4094  -48.4446  -55.2791 N.am      7 UNK        -0.4444 
     38 C          27.3032  -47.7050  -55.1056 C.2       7 UNK         0.5104 
     39 O          26.2222  -47.9830  -55.6247 O.2       7 UNK        -0.5100 
     40 CA         27.4358  -46.4024  -54.2926 C.3       6 UNK         0.0396 
     41 CB         26.1773  -46.0989  -53.4542 C.3       6 UNK        -0.1801 
     42 N          28.6552  -46.3065  -53.4816 N.am      6 UNK        -0.4747 
     43 C          29.0001  -47.0906  -52.4505 C.2       6 UNK         0.5012 
     44 O          28.2979  -48.0001  -52.0033 O.2       6 UNK        -0.5003 
     45 CA         30.3789  -46.8055  -51.8316 C.3       5 UNK         0.0782 
     46 C46        30.2951  -45.6912  -50.7629 C.3       11 UNK        -0.0868 
     47 S47        31.8800  -44.8016  -50.6723 S.3       11 UNK        -0.2515 
     48 C48        31.3995  -43.1364  -51.2398 C.3       11 UNK         0.0199 
     49 N          30.9570  -48.0431  -51.2982 N.am      5 UNK        -0.4607 
     50 C          31.4604  -49.0238  -52.0549 C.2       4 UNK         0.5031 
     51 O          31.6820  -48.9050  -53.2661 O.2       4 UNK        -0.5119 
     52 CA         31.7646  -50.3475  -51.3416 C.3       4 UNK         0.0263 
     53 CB         30.4716  -51.0304  -50.8577 C.3       4 UNK        -0.1967 
     54 N          32.4609  -51.2312  -52.2695 N.am      4 UNK        -0.4237 
     55 C          33.3454  -52.1829  -51.9480 C.2       3 UNK         0.4908 
     56 O          33.6505  -52.4693  -50.7896 O.2       3 UNK        -0.5102 
     57 CA         34.0045  -52.9531  -53.1116 C.3       3 UNK         0.0241 
     58 CB         33.3547  -54.3374  -53.2735 C.3       3 UNK        -0.1971 
     59 N          33.9440  -52.2426  -54.3948 N.am      3 UNK        -0.4139 
     60 C          34.6260  -51.1241  -54.6764 C.2       2 UNK         0.5016 
     61 O          35.4449  -50.6146  -53.9099 O.2       2 UNK        -0.5319 
     62 CA         34.2993  -50.4059  -55.9920 C.3       2 UNK         0.0286 
     63 CB         33.3810  -51.1876  -56.9550 C.3       2 UNK        -0.1963 
     64 N          33.6785  -49.1409  -55.6161 N.am      2 UNK        -0.4790 
     65 C          33.8800  -47.9621  -56.2156 C.2       1 UNK         0.5024 
     66 O          34.4875  -47.8248  -57.2780 O.2       1 UNK        -0.4888 
     67 H67        35.1620  -46.1070  -51.3268 H         1 UNK         0.0892 
     68 H68        33.7915  -47.1986  -51.4869 H         1 UNK         0.0892 
     69 H69        35.4310  -47.8034  -51.7431 H         1 UNK         0.0892 
     70 H70        32.8354  -47.4033  -53.5347 H         1 UNK         0.3107 
     71 H71        33.9615  -45.8833  -55.7901 H         1 UNK         0.0773 
     72 H72        31.3199  -47.3325  -56.0690 H         1 UNK         0.0680 
     73 H73        31.3401  -46.0594  -54.9007 H         1 UNK         0.0680 
     74 H74        32.1467  -42.8347  -56.9555 H         1 UNK         0.0650 
     75 H75        33.1998  -43.7382  -55.9067 H         1 UNK         0.0650 
     76 H76        32.6980  -43.8220  -53.5499 H         1 UNK         0.1397 
     77 H77        28.9468  -42.3194  -52.1117 H         1 UNK         0.1363 
     78 H78        29.6706  -42.6227  -56.3262 H         1 UNK         0.1355 
     79 H79        27.3160  -41.4883  -53.5862 H         1 UNK         0.0707 
     80 H80        27.8988  -40.9077  -55.1186 H         1 UNK         0.0707 
     81 H81        27.1439  -41.5845  -57.2473 H         1 UNK         0.1034 
     82 H82        27.8543  -43.1748  -57.3990 H         1 UNK         0.1034 
     83 H83        24.8715  -42.5990  -57.6907 H         1 UNK         0.0482 
     84 H84        26.3622  -43.0961  -61.4160 H         1 UNK         0.3460 
     85 H85        26.2162  -44.4534  -60.3278 H         1 UNK         0.3460 
     86 H86        26.3085  -45.0866  -57.5499 H         1 UNK         0.2989 
     87 H87        24.2086  -47.0190  -57.3162 H         1 UNK         0.0559 
     88 H88        22.5493  -47.1414  -59.1320 H         1 UNK         0.0848 
     89 H89        23.6469  -48.5046  -59.2591 H         1 UNK         0.0848 
     90 H90        23.8118  -47.1314  -60.3529 H         1 UNK         0.0848 
     91 H91        26.2449  -47.7681  -57.6430 H         1 UNK         0.3144 
     92 H92        28.2687  -48.4632  -60.1085 H         1 UNK         0.0727 
     93 H93        29.1379  -45.7022  -59.0853 H         1 UNK         0.0790 
     94 H94        29.0757  -46.2158  -60.7648 H         1 UNK         0.0790 
     95 H95        30.2320  -46.9540  -59.6726 H         1 UNK         0.0790 
     96 H96        28.8995  -47.5059  -57.4004 H         1 UNK         0.3215 
     97 H97        27.7182  -50.3466  -55.7526 H         1 UNK         0.0863 
     98 H98        30.0219  -50.5766  -54.8470 H         1 UNK         0.0808 
     99 H99        30.6761  -49.6735  -56.2139 H         1 UNK         0.0808 
    100 H100       29.9312  -51.2462  -56.4674 H         1 UNK         0.0808 
    101 H101       29.2490  -48.1656  -54.7939 H         1 UNK         0.3118 
    102 H102       27.5298  -45.6171  -55.0410 H         1 UNK         0.0546 
    103 H103       25.9702  -46.8863  -52.7292 H         1 UNK         0.0828 
    104 H104       25.2969  -46.0046  -54.0911 H         1 UNK         0.0828 
    105 H105       26.2810  -45.1590  -52.9122 H         1 UNK         0.0828 
    106 H106       29.2784  -45.5543  -53.7460 H         1 UNK         0.3005 
    107 H107       31.0184  -46.4570  -52.6431 H         1 UNK         0.1257 
    108 H108       30.0519  -46.0994  -49.7805 H         1 UNK         0.0775 
    109 H109       29.5047  -44.9711  -50.9855 H         1 UNK         0.0775 
    110 H110       30.6642  -42.7288  -50.5441 H         1 UNK         0.0840 
    111 H111       32.2706  -42.4834  -51.1699 H         1 UNK         0.0840 
    112 H112       30.7902  -48.2209  -50.3186 H         1 UNK         0.2987 
    113 H113       32.4119  -50.1303  -50.4891 H         1 UNK         0.0785 
    114 H114       29.9362  -50.4087  -50.1392 H         1 UNK         0.0798 
    115 H115       30.6848  -51.9786  -50.3638 H         1 UNK         0.0798 
    116 H116       29.7903  -51.2311  -51.6857 H         1 UNK         0.0798 
    117 H117       32.2945  -51.0203  -53.2436 H         1 UNK         0.3079 
    118 H118       35.0557  -53.0962  -52.8519 H         1 UNK         0.0794 
    119 H119       33.8576  -54.9251  -54.0419 H         1 UNK         0.0786 
    120 H120       32.3006  -54.2606  -53.5432 H         1 UNK         0.0786 
    121 H121       33.4123  -54.9066  -52.3445 H         1 UNK         0.0786 
    122 H122       33.2972  -52.5998  -55.0832 H         1 UNK         0.3032 
    123 H123       35.2522  -50.2171  -56.4923 H         1 UNK         0.1094 
    124 H124       32.4147  -51.4212  -56.5105 H         1 UNK         0.0794 
    125 H125       33.1925  -50.6141  -57.8629 H         1 UNK         0.0794 
    126 H126       33.8438  -52.1260  -57.2633 H         1 UNK         0.0794 
    127 H127       33.1785  -49.1431  -54.7345 H         1 UNK         0.3016 
@<TRIPOS>BOND
     1    1    2 1    
     2    1   67 1    
     3    1   68 1    
     4    1   69 1    
     5    2    3 2    
     6    2    4 am   BACKBONE|DICT|INTERRES
     7    4    5 1    
     8    4   70 1    
     9    5    6 1    
    10    5   65 1    
    11    5   71 1    
    12    6    7 1    
    13    6   72 1    
    14    6   73 1    
    15    7    8 1    
    16    8    9 1    
    17    8   74 1    
    18    8   75 1    
    19    9   10 ar   
    20    9   14 ar   
    21   10   11 ar   
    22   10   76 1    
    23   11   12 ar   
    24   11   48 1    
    25   12   13 ar   
    26   12   77 1    
    27   13   14 ar   
    28   13   15 1    
    29   14   78 1    
    30   15   16 1    
    31   15   79 1    
    32   15   80 1    
    33   16   17 1    
    34   17   18 1    
    35   17   81 1    
    36   17   82 1    
    37   18   19 1    
    38   18   22 1    
    39   18   83 1    
    40   19   20 am   BACKBONE|DICT|INTERRES
    41   19   21 2    
    42   20   84 1    
    43   20   85 1    
    44   22   23 am   BACKBONE|DICT|INTERRES
    45   22   86 1    
    46   23   24 2    
    47   23   25 1    
    48   25   26 1    
    49   25   27 1    
    50   25   87 1    
    51   26   88 1    
    52   26   89 1    
    53   26   90 1    
    54   27   28 am   BACKBONE|DICT|INTERRES
    55   27   91 1    
    56   28   29 2    
    57   28   30 1    
    58   30   31 1    
    59   30   32 1    
    60   30   92 1    
    61   31   93 1    
    62   31   94 1    
    63   31   95 1    
    64   32   33 am   BACKBONE|DICT|INTERRES
    65   32   96 1    
    66   33   34 2    
    67   33   35 1    
    68   35   36 1    
    69   35   37 1    
    70   35   97 1    
    71   36   98 1    
    72   36   99 1    
    73   36  100 1    
    74   37   38 am   BACKBONE|DICT|INTERRES
    75   37  101 1    
    76   38   39 2    
    77   38   40 1    
    78   40   41 1    
    79   40   42 1    
    80   40  102 1    
    81   41  103 1    
    82   41  104 1    
    83   41  105 1    
    84   42   43 am   BACKBONE|DICT|INTERRES
    85   42  106 1    
    86   43   44 2    
    87   43   45 1    
    88   45   46 1    
    89   45   49 1    
    90   45  107 1    
    91   46   47 1    
    92   46  108 1    
    93   46  109 1    
    94   47   48 1    
    95   48  110 1    
    96   48  111 1    
    97   49   50 am   BACKBONE|DICT|INTERRES
    98   49  112 1    
    99   50   51 2    
   100   50   52 1    
   101   52   53 1    
   102   52   54 1    
   103   52  113 1    
   104   53  114 1    
   105   53  115 1    
   106   53  116 1    
   107   54   55 am   BACKBONE|DICT|INTERRES
   108   54  117 1    
   109   55   56 2    
   110   55   57 1    
   111   57   58 1    
   112   57   59 1    
   113   57  118 1    
   114   58  119 1    
   115   58  120 1    
   116   58  121 1    
   117   59   60 am   BACKBONE|DICT|INTERRES
   118   59  122 1    
   119   60   61 2    
   120   60   62 1    
   121   62   63 1    
   122   62   64 1    
   123   62  123 1    
   124   63  124 1    
   125   63  125 1    
   126   63  126 1    
   127   64   65 am   BACKBONE|DICT|INTERRES
   128   64  127 1    
   129   65   66 2    
@<TRIPOS>SUBSTRUCTURE
     1 UNK         1 GROUP             0       ****    0 ROOT    
