@<TRIPOS>MOLECULE
3R134
127   129    1
SMALL
USER_CHARGES


@<TRIPOS>ATOM
      1 CA         37.7449  -46.7134  -58.7256 C.3       0 UNK        -0.1968 
      2 C          36.6532  -46.4780  -57.6921 C.2       0 UNK         0.4852 
      3 O          36.7966  -45.5896  -56.8503 O.2       0 UNK        -0.5359 
      4 N          35.5702  -47.2672  -57.7549 N.am      1 UNK        -0.4300 
      5 CA         34.4088  -47.2630  -56.8573 C.3       1 UNK         0.0863 
      6 C6         33.6495  -45.9071  -56.8341 C.3       11 UNK        -0.0953 
      7 S7         32.0670  -45.9579  -55.9270 S.3       11 UNK        -0.2369 
      8 C8         32.3391  -44.6216  -54.7246 C.3       11 UNK         0.0226 
      9 C9         31.1091  -44.3935  -53.8627 C.ar      11 UNK        -0.0699 
     10 C10        31.0624  -44.8845  -52.5570 C.ar      11 UNK        -0.0804 
     11 C11        29.9310  -44.6815  -51.7617 C.ar      11 UNK        -0.0871 
     12 C12        28.8421  -43.9736  -52.2791 C.ar      11 UNK        -0.1008 
     13 C13        28.8755  -43.4814  -53.5877 C.ar      11 UNK        -0.0735 
     14 C14        30.0164  -43.6851  -54.3687 C.ar      11 UNK        -0.0945 
     15 C15        27.6854  -42.7291  -54.1631 C.3       11 UNK         0.0169 
     16 S16        26.2046  -43.7833  -54.2406 S.3       11 UNK        -0.2669 
     17 C17        25.2332  -42.9373  -55.5322 C.3       11 UNK        -0.0850 
     18 CA         25.0737  -43.7826  -56.8269 C.3       10 UNK         0.0855 
     19 C          23.9922  -43.1723  -57.7549 C.2       10 UNK         0.5543 
     20 N          22.7207  -43.3991  -57.4567 N.am      10 UNK        -0.7343 
     21 O          24.2916  -42.4770  -58.7251 O.2       10 UNK        -0.5027 
     22 N          26.3282  -43.9475  -57.5766 N.am      10 UNK        -0.4495 
     23 C          27.1663  -44.9827  -57.4770 C.2       10 UNK         0.4903 
     24 O          27.0798  -45.8682  -56.6234 O.2       10 UNK        -0.4860 
     25 CA         28.2798  -45.0685  -58.5277 C.3       9 UNK         0.0227 
     26 CB         29.4010  -44.0460  -58.2777 C.3       9 UNK        -0.1964 
     27 N          28.8171  -46.4201  -58.4645 N.am      9 UNK        -0.4231 
     28 C          29.4148  -47.1040  -59.4414 C.2       9 UNK         0.5014 
     29 O          29.6726  -46.6389  -60.5526 O.2       9 UNK        -0.5270 
     30 CA         29.7764  -48.5648  -59.1245 C.3       8 UNK         0.0284 
     31 CB         31.2321  -48.6630  -58.6520 C.3       8 UNK        -0.1977 
     32 N          28.8890  -49.1606  -58.1150 N.am      8 UNK        -0.4342 
     33 C          27.6812  -49.6661  -58.4068 C.2       8 UNK         0.5039 
     34 O          27.2078  -49.6884  -59.5438 O.2       8 UNK        -0.5547 
     35 CA         26.8521  -50.2307  -57.2485 C.3       7 UNK         0.0281 
     36 CB         27.5468  -51.4230  -56.5670 C.3       7 UNK        -0.1963 
     37 N          26.5682  -49.1867  -56.2654 N.am      7 UNK        -0.4444 
     38 C          25.3433  -48.8285  -55.8543 C.2       7 UNK         0.5104 
     39 O          24.3066  -49.3409  -56.2805 O.2       7 UNK        -0.5100 
     40 CA         25.2429  -47.7057  -54.7974 C.3       6 UNK         0.0396 
     41 CB         24.0866  -47.9306  -53.7999 C.3       6 UNK        -0.1801 
     42 N          26.5036  -47.4267  -54.0959 N.am      6 UNK        -0.4747 
     43 C          27.1698  -48.2589  -53.2837 C.2       6 UNK         0.5012 
     44 O          26.7741  -49.3862  -52.9768 O.2       6 UNK        -0.5003 
     45 CA         28.5134  -47.7608  -52.7213 C.3       5 UNK         0.0782 
     46 C46        28.3697  -47.4840  -51.1994 C.3       11 UNK        -0.0868 
     47 S47        29.9383  -47.0670  -50.3627 S.3       11 UNK        -0.2515 
     48 C48        29.8844  -45.2480  -50.3518 C.3       11 UNK         0.0199 
     49 N          29.5760  -48.7254  -53.0086 N.am      5 UNK        -0.4607 
     50 C          29.9904  -49.1412  -54.2111 C.2       4 UNK         0.5031 
     51 O          29.5155  -48.7429  -55.2809 O.2       4 UNK        -0.5119 
     52 CA         31.1159  -50.1997  -54.2044 C.3       4 UNK         0.0263 
     53 CB         31.6320  -50.5285  -55.6153 C.3       4 UNK        -0.1967 
     54 N          32.2574  -49.8362  -53.3502 N.am      4 UNK        -0.4237 
     55 C          32.2849  -49.9442  -52.0120 C.2       3 UNK         0.4908 
     56 O          31.3169  -50.3323  -51.3560 O.2       3 UNK        -0.5102 
     57 CA         33.5805  -49.5874  -51.2582 C.3       3 UNK         0.0241 
     58 CB         34.1581  -50.8338  -50.5647 C.3       3 UNK        -0.1971 
     59 N          34.6208  -49.0047  -52.1063 N.am      3 UNK        -0.4139 
     60 C          34.7618  -47.6995  -52.3698 C.2       2 UNK         0.5016 
     61 O          34.0180  -46.8249  -51.9275 O.2       2 UNK        -0.5319 
     62 CA         35.9304  -47.2931  -53.2903 C.3       2 UNK         0.0286 
     63 CB         37.0931  -48.3117  -53.3118 C.3       2 UNK        -0.1963 
     64 N          35.4821  -47.0054  -54.6570 N.am      2 UNK        -0.4790 
     65 C          34.7754  -47.8099  -55.4630 C.2       1 UNK         0.5024 
     66 O          34.4290  -48.9516  -55.1568 O.2       1 UNK        -0.4888 
     67 H67        38.6799  -46.9730  -58.2298 H         1 UNK         0.0892 
     68 H68        37.4908  -47.5193  -59.4138 H         1 UNK         0.0892 
     69 H69        37.9089  -45.8083  -59.3098 H         1 UNK         0.0892 
     70 H70        35.5459  -47.9878  -58.4634 H         1 UNK         0.3107 
     71 H71        33.7271  -47.9957  -57.2897 H         1 UNK         0.0773 
     72 H72        33.4218  -45.6035  -57.8569 H         1 UNK         0.0680 
     73 H73        34.2770  -45.1140  -56.4265 H         1 UNK         0.0680 
     74 H74        32.5876  -43.7009  -55.2547 H         1 UNK         0.0650 
     75 H75        33.2017  -44.8687  -54.1033 H         1 UNK         0.0650 
     76 H76        31.9003  -45.4401  -52.1599 H         1 UNK         0.1397 
     77 H77        27.9593  -43.8176  -51.6738 H         1 UNK         0.1363 
     78 H78        30.0558  -43.2944  -55.3744 H         1 UNK         0.1355 
     79 H79        27.4745  -41.8507  -53.5518 H         1 UNK         0.0707 
     80 H80        27.9209  -42.3653  -55.1647 H         1 UNK         0.0707 
     81 H81        24.2560  -42.7247  -55.0944 H         1 UNK         0.1034 
     82 H82        25.6688  -41.9636  -55.7627 H         1 UNK         0.1034 
     83 H83        24.7092  -44.7736  -56.5505 H         1 UNK         0.0482 
     84 H84        22.0026  -43.0026  -58.0430 H         1 UNK         0.3460 
     85 H85        22.4617  -43.9634  -56.6622 H         1 UNK         0.3460 
     86 H86        26.4436  -43.2855  -58.3328 H         1 UNK         0.2989 
     87 H87        27.8351  -44.8988  -59.5104 H         1 UNK         0.0559 
     88 H88        29.0091  -43.0324  -58.1874 H         1 UNK         0.0848 
     89 H89        29.9472  -44.2758  -57.3646 H         1 UNK         0.0848 
     90 H90        30.1200  -44.0447  -59.0969 H         1 UNK         0.0848 
     91 H91        28.5998  -46.8920  -57.5948 H         1 UNK         0.3144 
     92 H92        29.6907  -49.1321  -60.0540 H         1 UNK         0.0727 
     93 H93        31.5404  -49.7010  -58.5287 H         1 UNK         0.0790 
     94 H94        31.3683  -48.1492  -57.7019 H         1 UNK         0.0790 
     95 H95        31.9118  -48.2060  -59.3726 H         1 UNK         0.0790 
     96 H96        29.2028  -49.1372  -57.1470 H         1 UNK         0.3215 
     97 H97        25.9222  -50.6025  -57.6843 H         1 UNK         0.0863 
     98 H98        27.8207  -52.1863  -57.2965 H         1 UNK         0.0808 
     99 H99        28.4545  -51.1281  -56.0433 H         1 UNK         0.0808 
    100 H100       26.8865  -51.8935  -55.8383 H         1 UNK         0.0808 
    101 H101       27.3642  -48.7002  -55.8705 H         1 UNK         0.3118 
    102 H102       25.0049  -46.7987  -55.3516 H         1 UNK         0.0546 
    103 H103       23.1264  -47.9624  -54.3158 H         1 UNK         0.0828 
    104 H104       24.0315  -47.1241  -53.0688 H         1 UNK         0.0828 
    105 H105       24.1919  -48.8707  -53.2582 H         1 UNK         0.0828 
    106 H106       26.9218  -46.5360  -54.3410 H         1 UNK         0.3005 
    107 H107       28.7846  -46.8316  -53.2270 H         1 UNK         0.1257 
    108 H108       27.9689  -48.3627  -50.6895 H         1 UNK         0.0775 
    109 H109       27.6478  -46.6836  -51.0260 H         1 UNK         0.0775 
    110 H110       28.9924  -44.9139  -49.8195 H         1 UNK         0.0840 
    111 H111       30.7387  -44.8719  -49.7873 H         1 UNK         0.0840 
    112 H112       30.0226  -49.1394  -52.1965 H         1 UNK         0.2987 
    113 H113       30.6717  -51.1147  -53.8067 H         1 UNK         0.0785 
    114 H114       30.8291  -50.8771  -56.2647 H         1 UNK         0.0798 
    115 H115       32.3877  -51.3135  -55.5886 H         1 UNK         0.0798 
    116 H116       32.0787  -49.6535  -56.0833 H         1 UNK         0.0798 
    117 H117       33.0813  -49.4881  -53.8326 H         1 UNK         0.3079 
    118 H118       33.3077  -48.8671  -50.4835 H         1 UNK         0.0794 
    119 H119       33.4312  -51.2755  -49.8814 H         1 UNK         0.0786 
    120 H120       35.0418  -50.5865  -49.9760 H         1 UNK         0.0786 
    121 H121       34.4379  -51.6038  -51.2848 H         1 UNK         0.0786 
    122 H122       35.2573  -49.6496  -52.5528 H         1 UNK         0.3032 
    123 H123       36.3216  -46.3580  -52.8857 H         1 UNK         0.1094 
    124 H124       37.9475  -47.9112  -53.8577 H         1 UNK         0.0794 
    125 H125       37.4387  -48.5367  -52.3017 H         1 UNK         0.0794 
    126 H126       36.8175  -49.2534  -53.7873 H         1 UNK         0.0794 
    127 H127       35.7749  -46.1156  -55.0460 H         1 UNK         0.3016 
@<TRIPOS>BOND
     1    1    2 1    
     2    1   67 1    
     3    1   68 1    
     4    1   69 1    
     5    2    3 2    
     6    2    4 am   BACKBONE|DICT|INTERRES
     7    4    5 1    
     8    4   70 1    
     9    5    6 1    
    10    5   65 1    
    11    5   71 1    
    12    6    7 1    
    13    6   72 1    
    14    6   73 1    
    15    7    8 1    
    16    8    9 1    
    17    8   74 1    
    18    8   75 1    
    19    9   10 ar   
    20    9   14 ar   
    21   10   11 ar   
    22   10   76 1    
    23   11   12 ar   
    24   11   48 1    
    25   12   13 ar   
    26   12   77 1    
    27   13   14 ar   
    28   13   15 1    
    29   14   78 1    
    30   15   16 1    
    31   15   79 1    
    32   15   80 1    
    33   16   17 1    
    34   17   18 1    
    35   17   81 1    
    36   17   82 1    
    37   18   19 1    
    38   18   22 1    
    39   18   83 1    
    40   19   20 am   BACKBONE|DICT|INTERRES
    41   19   21 2    
    42   20   84 1    
    43   20   85 1    
    44   22   23 am   BACKBONE|DICT|INTERRES
    45   22   86 1    
    46   23   24 2    
    47   23   25 1    
    48   25   26 1    
    49   25   27 1    
    50   25   87 1    
    51   26   88 1    
    52   26   89 1    
    53   26   90 1    
    54   27   28 am   BACKBONE|DICT|INTERRES
    55   27   91 1    
    56   28   29 2    
    57   28   30 1    
    58   30   31 1    
    59   30   32 1    
    60   30   92 1    
    61   31   93 1    
    62   31   94 1    
    63   31   95 1    
    64   32   33 am   BACKBONE|DICT|INTERRES
    65   32   96 1    
    66   33   34 2    
    67   33   35 1    
    68   35   36 1    
    69   35   37 1    
    70   35   97 1    
    71   36   98 1    
    72   36   99 1    
    73   36  100 1    
    74   37   38 am   BACKBONE|DICT|INTERRES
    75   37  101 1    
    76   38   39 2    
    77   38   40 1    
    78   40   41 1    
    79   40   42 1    
    80   40  102 1    
    81   41  103 1    
    82   41  104 1    
    83   41  105 1    
    84   42   43 am   BACKBONE|DICT|INTERRES
    85   42  106 1    
    86   43   44 2    
    87   43   45 1    
    88   45   46 1    
    89   45   49 1    
    90   45  107 1    
    91   46   47 1    
    92   46  108 1    
    93   46  109 1    
    94   47   48 1    
    95   48  110 1    
    96   48  111 1    
    97   49   50 am   BACKBONE|DICT|INTERRES
    98   49  112 1    
    99   50   51 2    
   100   50   52 1    
   101   52   53 1    
   102   52   54 1    
   103   52  113 1    
   104   53  114 1    
   105   53  115 1    
   106   53  116 1    
   107   54   55 am   BACKBONE|DICT|INTERRES
   108   54  117 1    
   109   55   56 2    
   110   55   57 1    
   111   57   58 1    
   112   57   59 1    
   113   57  118 1    
   114   58  119 1    
   115   58  120 1    
   116   58  121 1    
   117   59   60 am   BACKBONE|DICT|INTERRES
   118   59  122 1    
   119   60   61 2    
   120   60   62 1    
   121   62   63 1    
   122   62   64 1    
   123   62  123 1    
   124   63  124 1    
   125   63  125 1    
   126   63  126 1    
   127   64   65 am   BACKBONE|DICT|INTERRES
   128   64  127 1    
   129   65   66 2    
@<TRIPOS>SUBSTRUCTURE
     1 UNK         1 GROUP             0       ****    0 ROOT    
