@<TRIPOS>MOLECULE
3R134
127   129    1
SMALL
USER_CHARGES


@<TRIPOS>ATOM
      1 CA         29.8982  -45.9732  -52.5903 C.3       0 UNK        -0.1968 
      2 C          31.1874  -45.5730  -51.8915 C.2       0 UNK         0.4852 
      3 O          31.1639  -45.2355  -50.7062 O.2       0 UNK        -0.5359 
      4 N          32.3161  -45.6349  -52.6065 N.am      1 UNK        -0.4300 
      5 CA         33.6644  -45.4824  -52.0595 C.3       1 UNK         0.0863 
      6 C6         34.6413  -44.8743  -53.0974 C.3       11 UNK        -0.0953 
      7 S7         34.4606  -43.0627  -53.1747 S.3       11 UNK        -0.2369 
      8 C8         34.6568  -42.7180  -54.9539 C.3       11 UNK         0.0226 
      9 C9         33.3660  -42.8629  -55.7538 C.ar      11 UNK        -0.0699 
     10 C10        33.3676  -43.5690  -56.9620 C.ar      11 UNK        -0.0804 
     11 C11        32.2071  -43.6498  -57.7382 C.ar      11 UNK        -0.0871 
     12 C12        31.0409  -43.0171  -57.3027 C.ar      11 UNK        -0.1008 
     13 C13        31.0178  -42.3289  -56.0886 C.ar      11 UNK        -0.0735 
     14 C14        32.1851  -42.2445  -55.3243 C.ar      11 UNK        -0.0945 
     15 C15        29.7344  -41.6642  -55.6152 C.3       11 UNK         0.0169 
     16 S16        28.8297  -42.6828  -54.4048 S.3       11 UNK        -0.2669 
     17 C17        28.2938  -44.1262  -55.3882 C.3       11 UNK        -0.0850 
     18 CA         26.8897  -43.9459  -56.0210 C.3       10 UNK         0.0855 
     19 C          26.9658  -43.3219  -57.4381 C.2       10 UNK         0.5543 
     20 N          26.4874  -42.0975  -57.6104 N.am      10 UNK        -0.7343 
     21 O          27.4913  -43.9268  -58.3699 O.2       10 UNK        -0.5027 
     22 N          26.1652  -45.2208  -56.0526 N.am      10 UNK        -0.4495 
     23 C          24.8306  -45.3288  -56.0808 C.2       10 UNK         0.4903 
     24 O          24.0655  -44.3632  -56.0437 O.2       10 UNK        -0.4860 
     25 CA         24.2609  -46.7589  -56.1343 C.3       9 UNK         0.0227 
     26 CB         22.7420  -46.8031  -56.4088 C.3       9 UNK        -0.1964 
     27 N          24.9938  -47.6243  -57.0629 N.am      9 UNK        -0.4231 
     28 C          25.1129  -47.4829  -58.3940 C.2       9 UNK         0.5014 
     29 O          24.5558  -46.5961  -59.0423 O.2       9 UNK        -0.5270 
     30 CA         26.0095  -48.4902  -59.1422 C.3       8 UNK         0.0284 
     31 CB         27.1992  -47.7710  -59.8036 C.3       8 UNK        -0.1977 
     32 N          26.5192  -49.5558  -58.2756 N.am      8 UNK        -0.4342 
     33 C          25.8474  -50.6650  -57.9371 C.2       8 UNK         0.5039 
     34 O          24.7431  -50.9629  -58.3925 O.2       8 UNK        -0.5547 
     35 CA         26.5079  -51.5848  -56.8923 C.3       7 UNK         0.0281 
     36 CB         27.2453  -52.7422  -57.5850 C.3       7 UNK        -0.1963 
     37 N          27.4391  -50.8821  -56.0012 N.am      7 UNK        -0.4444 
     38 C          27.0852  -49.9589  -55.0944 C.2       7 UNK         0.5104 
     39 O          25.9237  -49.6072  -54.8922 O.2       7 UNK        -0.5100 
     40 CA         28.2329  -49.2528  -54.3543 C.3       6 UNK         0.0396 
     41 CB         28.7512  -50.1128  -53.1922 C.3       6 UNK        -0.1801 
     42 N          29.3388  -48.9210  -55.2562 N.am      6 UNK        -0.4747 
     43 C          29.2678  -48.0126  -56.2423 C.2       6 UNK         0.5012 
     44 O          28.2599  -47.3337  -56.4504 O.2       6 UNK        -0.5003 
     45 CA         30.4862  -47.8773  -57.1860 C.3       5 UNK         0.0782 
     46 C46        30.7504  -46.4041  -57.5924 C.3       11 UNK        -0.0868 
     47 S47        32.1527  -46.2349  -58.7534 S.3       11 UNK        -0.2515 
     48 C48        32.1948  -44.4370  -59.0401 C.3       11 UNK         0.0199 
     49 N          31.6824  -48.5786  -56.6960 N.am      5 UNK        -0.4607 
     50 C          32.4364  -48.2395  -55.6433 C.2       4 UNK         0.5031 
     51 O          32.2044  -47.2910  -54.8920 O.2       4 UNK        -0.5119 
     52 CA         33.6544  -49.1343  -55.3837 C.3       4 UNK         0.0263 
     53 CB         34.9643  -48.3420  -55.5221 C.3       4 UNK        -0.1967 
     54 N          33.5735  -49.7616  -54.0638 N.am      4 UNK        -0.4237 
     55 C          32.7095  -50.7433  -53.7579 C.2       3 UNK         0.4908 
     56 O          31.8638  -51.1692  -54.5468 O.2       3 UNK        -0.5102 
     57 CA         32.8079  -51.3888  -52.3631 C.3       3 UNK         0.0241 
     58 CB         33.6105  -52.6981  -52.4384 C.3       3 UNK        -0.1971 
     59 N          33.4147  -50.5127  -51.3601 N.am      3 UNK        -0.4139 
     60 C          32.7622  -49.5202  -50.7440 C.2       2 UNK         0.5016 
     61 O          31.5637  -49.2868  -50.9062 O.2       2 UNK        -0.5319 
     62 CA         33.5732  -48.5980  -49.8152 C.3       2 UNK         0.0286 
     63 CB         35.0009  -49.0939  -49.4845 C.3       2 UNK        -0.1963 
     64 N          33.5864  -47.2430  -50.3746 N.am      2 UNK        -0.4790 
     65 C          34.0971  -46.8713  -51.5586 C.2       1 UNK         0.5024 
     66 O          34.7992  -47.5990  -52.2632 O.2       1 UNK        -0.4888 
     67 H67        29.1440  -45.1986  -52.4570 H         1 UNK         0.0892 
     68 H68        30.0514  -46.1282  -53.6580 H         1 UNK         0.0892 
     69 H69        29.5168  -46.9014  -52.1655 H         1 UNK         0.0892 
     70 H70        32.2770  -46.0297  -53.5458 H         1 UNK         0.3107 
     71 H71        33.6426  -44.8226  -51.1890 H         1 UNK         0.0773 
     72 H72        34.4832  -45.3105  -54.0852 H         1 UNK         0.0680 
     73 H73        35.6795  -45.0794  -52.8294 H         1 UNK         0.0680 
     74 H74        35.4448  -43.3563  -55.3566 H         1 UNK         0.0650 
     75 H75        35.0093  -41.6919  -55.0654 H         1 UNK         0.0650 
     76 H76        34.2714  -44.0545  -57.3041 H         1 UNK         0.1397 
     77 H77        30.1412  -43.0804  -57.9000 H         1 UNK         0.1363 
     78 H78        32.1736  -41.6945  -54.3932 H         1 UNK         0.1355 
     79 H79        29.0854  -41.4340  -56.4608 H         1 UNK         0.0707 
     80 H80        29.9739  -40.7056  -55.1527 H         1 UNK         0.0707 
     81 H81        29.0452  -44.4083  -56.1243 H         1 UNK         0.1034 
     82 H82        28.2646  -44.9631  -54.6916 H         1 UNK         0.1034 
     83 H83        26.3190  -43.2739  -55.3759 H         1 UNK         0.0482 
     84 H84        26.0535  -41.5978  -56.8499 H         1 UNK         0.3460 
     85 H85        26.5388  -41.6748  -58.5238 H         1 UNK         0.3460 
     86 H86        26.7361  -46.0535  -56.1615 H         1 UNK         0.2989 
     87 H87        24.4228  -47.1820  -55.1419 H         1 UNK         0.0559 
     88 H88        22.4865  -46.3393  -57.3619 H         1 UNK         0.0848 
     89 H89        22.1901  -46.2716  -55.6327 H         1 UNK         0.0848 
     90 H90        22.3713  -47.8280  -56.4238 H         1 UNK         0.0848 
     91 H91        25.4880  -48.3903  -56.6212 H         1 UNK         0.3144 
     92 H92        25.4040  -48.9390  -59.9326 H         1 UNK         0.0727 
     93 H93        27.8053  -47.2319  -59.0755 H         1 UNK         0.0790 
     94 H94        26.8520  -47.0382  -60.5332 H         1 UNK         0.0790 
     95 H95        27.8462  -48.4703  -60.3335 H         1 UNK         0.0790 
     96 H96        27.4105  -49.3880  -57.8345 H         1 UNK         0.3215 
     97 H97        25.7086  -52.0056  -56.2780 H         1 UNK         0.0863 
     98 H98        27.6494  -53.4476  -56.8587 H         1 UNK         0.0808 
     99 H99        28.0697  -52.3856  -58.2039 H         1 UNK         0.0808 
    100 H100       26.5697  -53.3013  -58.2342 H         1 UNK         0.0808 
    101 H101       28.4193  -51.1080  -56.0936 H         1 UNK         0.3118 
    102 H102       27.8424  -48.3209  -53.9393 H         1 UNK         0.0546 
    103 H103       27.9480  -50.3507  -52.4936 H         1 UNK         0.0828 
    104 H104       29.5234  -49.5888  -52.6295 H         1 UNK         0.0828 
    105 H105       29.1741  -51.0565  -53.5387 H         1 UNK         0.0828 
    106 H106       30.2000  -49.4399  -55.1396 H         1 UNK         0.3005 
    107 H107       30.1926  -48.4053  -58.0947 H         1 UNK         0.1257 
    108 H108       30.9567  -45.8096  -56.7016 H         1 UNK         0.0775 
    109 H109       29.8676  -45.9644  -58.0612 H         1 UNK         0.0775 
    110 H110       33.0809  -44.1900  -59.6265 H         1 UNK         0.0840 
    111 H111       31.3362  -44.1563  -59.6525 H         1 UNK         0.0840 
    112 H112       31.9574  -49.3866  -57.2369 H         1 UNK         0.2987 
    113 H113       33.6773  -49.9324  -56.1293 H         1 UNK         0.0785 
    114 H114       35.0652  -47.9359  -56.5295 H         1 UNK         0.0798 
    115 H115       35.8338  -48.9725  -55.3364 H         1 UNK         0.0798 
    116 H116       35.0067  -47.5004  -54.8327 H         1 UNK         0.0798 
    117 H117       34.1709  -49.3749  -53.3427 H         1 UNK         0.3079 
    118 H118       31.7917  -51.6346  -52.0462 H         1 UNK         0.0794 
    119 H119       34.6419  -52.5241  -52.7480 H         1 UNK         0.0786 
    120 H120       33.1661  -53.3870  -53.1583 H         1 UNK         0.0786 
    121 H121       33.6296  -53.2078  -51.4749 H         1 UNK         0.0786 
    122 H122       34.4018  -50.6284  -51.1805 H         1 UNK         0.3032 
    123 H123       33.0163  -48.5470  -48.8780 H         1 UNK         0.1094 
    124 H124       35.4930  -48.4166  -48.7864 H         1 UNK         0.0794 
    125 H125       34.9735  -50.0745  -49.0074 H         1 UNK         0.0794 
    126 H126       35.6393  -49.1721  -50.3647 H         1 UNK         0.0794 
    127 H127       32.9547  -46.5888  -49.9280 H         1 UNK         0.3016 
@<TRIPOS>BOND
     1    1    2 1    
     2    1   67 1    
     3    1   68 1    
     4    1   69 1    
     5    2    3 2    
     6    2    4 am   BACKBONE|DICT|INTERRES
     7    4    5 1    
     8    4   70 1    
     9    5    6 1    
    10    5   65 1    
    11    5   71 1    
    12    6    7 1    
    13    6   72 1    
    14    6   73 1    
    15    7    8 1    
    16    8    9 1    
    17    8   74 1    
    18    8   75 1    
    19    9   10 ar   
    20    9   14 ar   
    21   10   11 ar   
    22   10   76 1    
    23   11   12 ar   
    24   11   48 1    
    25   12   13 ar   
    26   12   77 1    
    27   13   14 ar   
    28   13   15 1    
    29   14   78 1    
    30   15   16 1    
    31   15   79 1    
    32   15   80 1    
    33   16   17 1    
    34   17   18 1    
    35   17   81 1    
    36   17   82 1    
    37   18   19 1    
    38   18   22 1    
    39   18   83 1    
    40   19   20 am   BACKBONE|DICT|INTERRES
    41   19   21 2    
    42   20   84 1    
    43   20   85 1    
    44   22   23 am   BACKBONE|DICT|INTERRES
    45   22   86 1    
    46   23   24 2    
    47   23   25 1    
    48   25   26 1    
    49   25   27 1    
    50   25   87 1    
    51   26   88 1    
    52   26   89 1    
    53   26   90 1    
    54   27   28 am   BACKBONE|DICT|INTERRES
    55   27   91 1    
    56   28   29 2    
    57   28   30 1    
    58   30   31 1    
    59   30   32 1    
    60   30   92 1    
    61   31   93 1    
    62   31   94 1    
    63   31   95 1    
    64   32   33 am   BACKBONE|DICT|INTERRES
    65   32   96 1    
    66   33   34 2    
    67   33   35 1    
    68   35   36 1    
    69   35   37 1    
    70   35   97 1    
    71   36   98 1    
    72   36   99 1    
    73   36  100 1    
    74   37   38 am   BACKBONE|DICT|INTERRES
    75   37  101 1    
    76   38   39 2    
    77   38   40 1    
    78   40   41 1    
    79   40   42 1    
    80   40  102 1    
    81   41  103 1    
    82   41  104 1    
    83   41  105 1    
    84   42   43 am   BACKBONE|DICT|INTERRES
    85   42  106 1    
    86   43   44 2    
    87   43   45 1    
    88   45   46 1    
    89   45   49 1    
    90   45  107 1    
    91   46   47 1    
    92   46  108 1    
    93   46  109 1    
    94   47   48 1    
    95   48  110 1    
    96   48  111 1    
    97   49   50 am   BACKBONE|DICT|INTERRES
    98   49  112 1    
    99   50   51 2    
   100   50   52 1    
   101   52   53 1    
   102   52   54 1    
   103   52  113 1    
   104   53  114 1    
   105   53  115 1    
   106   53  116 1    
   107   54   55 am   BACKBONE|DICT|INTERRES
   108   54  117 1    
   109   55   56 2    
   110   55   57 1    
   111   57   58 1    
   112   57   59 1    
   113   57  118 1    
   114   58  119 1    
   115   58  120 1    
   116   58  121 1    
   117   59   60 am   BACKBONE|DICT|INTERRES
   118   59  122 1    
   119   60   61 2    
   120   60   62 1    
   121   62   63 1    
   122   62   64 1    
   123   62  123 1    
   124   63  124 1    
   125   63  125 1    
   126   63  126 1    
   127   64   65 am   BACKBONE|DICT|INTERRES
   128   64  127 1    
   129   65   66 2    
@<TRIPOS>SUBSTRUCTURE
     1 UNK         1 GROUP             0       ****    0 ROOT    
