@<TRIPOS>MOLECULE
3R134
127   129    1
SMALL
USER_CHARGES


@<TRIPOS>ATOM
      1 CA         32.8475  -46.5901  -57.7412 C.3       0 UNK        -0.1968 
      2 C          33.1938  -46.4925  -56.2644 C.2       0 UNK         0.4852 
      3 O          32.7666  -47.3428  -55.4831 O.2       0 UNK        -0.5359 
      4 N          33.9626  -45.4650  -55.8772 N.am      1 UNK        -0.4300 
      5 CA         34.3544  -45.1772  -54.4930 C.3       1 UNK         0.0863 
      6 C6         35.1805  -43.8729  -54.3659 C.3       11 UNK        -0.0953 
      7 S7         34.3414  -42.4134  -55.0688 S.3       11 UNK        -0.2369 
      8 C8         33.5499  -41.6910  -53.5969 C.3       11 UNK         0.0226 
      9 C9         32.3590  -42.5193  -53.1394 C.ar      11 UNK        -0.0699 
     10 C10        32.4642  -43.3671  -52.0330 C.ar      11 UNK        -0.0804 
     11 C11        31.3736  -44.1443  -51.6294 C.ar      11 UNK        -0.0871 
     12 C12        30.1613  -44.0418  -52.3198 C.ar      11 UNK        -0.1008 
     13 C13        30.0531  -43.2149  -53.4408 C.ar      11 UNK        -0.0735 
     14 C14        31.1521  -42.4497  -53.8400 C.ar      11 UNK        -0.0945 
     15 C15        28.7642  -43.1609  -54.2438 C.3       11 UNK         0.0169 
     16 S16        28.8248  -44.3465  -55.6264 S.3       11 UNK        -0.2669 
     17 C17        27.7983  -43.5077  -56.8863 C.3       11 UNK        -0.0850 
     18 CA         26.6488  -44.4006  -57.4365 C.3       10 UNK         0.0855 
     19 C          25.6580  -43.6147  -58.3524 C.2       10 UNK         0.5543 
     20 N          25.0627  -44.2253  -59.3712 N.am      10 UNK        -0.7343 
     21 O          25.3939  -42.4381  -58.1175 O.2       10 UNK        -0.5027 
     22 N          27.1197  -45.6755  -58.0068 N.am      10 UNK        -0.4495 
     23 C          27.8911  -45.8254  -59.0936 C.2       10 UNK         0.4903 
     24 O          28.4193  -44.8956  -59.7036 O.2       10 UNK        -0.4860 
     25 CA         28.0742  -47.2614  -59.6212 C.3       9 UNK         0.0227 
     26 CB         29.4025  -47.8494  -59.1217 C.3       9 UNK        -0.1964 
     27 N          26.9805  -48.1742  -59.2689 N.am      9 UNK        -0.4231 
     28 C          25.6913  -48.0394  -59.6085 C.2       9 UNK         0.5014 
     29 O          25.2594  -47.1016  -60.2802 O.2       9 UNK        -0.5270 
     30 CA         24.7018  -49.0921  -59.0729 C.3       8 UNK         0.0284 
     31 CB         24.6299  -50.3145  -60.0089 C.3       8 UNK        -0.1977 
     32 N          24.9309  -49.4876  -57.6728 N.am      8 UNK        -0.4342 
     33 C          25.9642  -50.1604  -57.1471 C.2       8 UNK         0.5039 
     34 O          26.9274  -50.5644  -57.8008 O.2       8 UNK        -0.5547 
     35 CA         25.9507  -50.3152  -55.6226 C.3       7 UNK         0.0281 
     36 CB         26.9242  -51.3984  -55.1237 C.3       7 UNK        -0.1963 
     37 N          26.3145  -49.0315  -55.0262 N.am      7 UNK        -0.4444 
     38 C          25.4422  -48.1101  -54.5967 C.2       7 UNK         0.5104 
     39 O          24.2219  -48.2471  -54.6965 O.2       7 UNK        -0.5100 
     40 CA         26.0067  -46.8063  -53.9892 C.3       6 UNK         0.0396 
     41 CB         25.1898  -46.3297  -52.7705 C.3       6 UNK        -0.1801 
     42 N          27.4412  -46.8445  -53.6750 N.am      6 UNK        -0.4747 
     43 C          28.0607  -47.6411  -52.7902 C.2       6 UNK         0.5012 
     44 O          27.4849  -48.4627  -52.0745 O.2       6 UNK        -0.5003 
     45 CA         29.5977  -47.5220  -52.7204 C.3       5 UNK         0.0782 
     46 C46        30.0405  -47.3970  -51.2397 C.3       11 UNK        -0.0868 
     47 S47        31.7566  -46.8209  -51.0425 S.3       11 UNK        -0.2515 
     48 C48        31.5172  -45.1080  -50.4614 C.3       11 UNK         0.0199 
     49 N          30.2674  -48.6355  -53.4087 N.am      5 UNK        -0.4607 
     50 C          30.0388  -49.0393  -54.6685 C.2       4 UNK         0.5031 
     51 O          29.2140  -48.5132  -55.4181 O.2       4 UNK        -0.5119 
     52 CA         30.8633  -50.2340  -55.1696 C.3       4 UNK         0.0263 
     53 CB         30.6855  -50.4975  -56.6807 C.3       4 UNK        -0.1967 
     54 N          32.2817  -50.0363  -54.8781 N.am      4 UNK        -0.4237 
     55 C          33.1617  -51.0279  -54.6900 C.2       3 UNK         0.4908 
     56 O          32.8479  -52.2172  -54.6192 O.2       3 UNK        -0.5102 
     57 CA         34.6475  -50.6459  -54.5987 C.3       3 UNK         0.0241 
     58 CB         35.2434  -50.4810  -56.0067 C.3       3 UNK        -0.1971 
     59 N          34.8942  -49.4276  -53.8305 N.am      3 UNK        -0.4139 
     60 C          34.7908  -49.3111  -52.5019 C.2       2 UNK         0.5016 
     61 O          34.4470  -50.2340  -51.7626 O.2       2 UNK        -0.5319 
     62 CA         35.1295  -47.9416  -51.8805 C.3       2 UNK         0.0286 
     63 CB         36.6258  -47.8454  -51.5227 C.3       2 UNK        -0.1963 
     64 N          34.6817  -46.7835  -52.6715 N.am      2 UNK        -0.4790 
     65 C          35.1211  -46.3557  -53.8633 C.2       1 UNK         0.5024 
     66 O          36.0583  -46.8686  -54.4791 O.2       1 UNK        -0.4888 
     67 H67        33.4880  -45.9544  -58.3522 H         1 UNK         0.0892 
     68 H68        32.9571  -47.6173  -58.0882 H         1 UNK         0.0892 
     69 H69        31.8134  -46.2840  -57.8945 H         1 UNK         0.0892 
     70 H70        34.2926  -44.8022  -56.5635 H         1 UNK         0.3107 
     71 H71        33.4218  -45.0520  -53.9418 H         1 UNK         0.0773 
     72 H72        36.1376  -43.9798  -54.8805 H         1 UNK         0.0680 
     73 H73        35.4234  -43.6723  -53.3207 H         1 UNK         0.0680 
     74 H74        33.2140  -40.6819  -53.8399 H         1 UNK         0.0650 
     75 H75        34.2841  -41.5826  -52.7970 H         1 UNK         0.0650 
     76 H76        33.4023  -43.4361  -51.4992 H         1 UNK         0.1397 
     77 H77        29.3096  -44.6270  -52.0042 H         1 UNK         0.1363 
     78 H78        31.0751  -41.8127  -54.7107 H         1 UNK         0.1355 
     79 H79        27.9023  -43.3825  -53.6123 H         1 UNK         0.0707 
     80 H80        28.6229  -42.1453  -54.6164 H         1 UNK         0.0707 
     81 H81        27.3827  -42.5960  -56.4550 H         1 UNK         0.1034 
     82 H82        28.4492  -43.1766  -57.6966 H         1 UNK         0.1034 
     83 H83        26.0356  -44.6821  -56.5819 H         1 UNK         0.0482 
     84 H84        25.2541  -45.1968  -59.5897 H         1 UNK         0.3460 
     85 H85        24.4172  -43.7046  -59.9432 H         1 UNK         0.3460 
     86 H86        26.7408  -46.5102  -57.5874 H         1 UNK         0.2989 
     87 H87        28.1111  -47.2082  -60.7110 H         1 UNK         0.0559 
     88 H88        30.2443  -47.2466  -59.4632 H         1 UNK         0.0848 
     89 H89        29.5587  -48.8619  -59.4942 H         1 UNK         0.0848 
     90 H90        29.4423  -47.8819  -58.0322 H         1 UNK         0.0848 
     91 H91        27.2208  -49.0039  -58.7272 H         1 UNK         0.3144 
     92 H92        23.7176  -48.6207  -59.0824 H         1 UNK         0.0727 
     93 H93        23.8814  -51.0303  -59.6693 H         1 UNK         0.0790 
     94 H94        25.5851  -50.8357  -60.0783 H         1 UNK         0.0790 
     95 H95        24.3540  -50.0123  -61.0201 H         1 UNK         0.0790 
     96 H96        24.2335  -49.1518  -57.0193 H         1 UNK         0.3215 
     97 H97        24.9443  -50.6104  -55.3172 H         1 UNK         0.0863 
     98 H98        26.8763  -51.5026  -54.0396 H         1 UNK         0.0808 
     99 H99        27.9556  -51.1743  -55.3906 H         1 UNK         0.0808 
    100 H100       26.6800  -52.3694  -55.5561 H         1 UNK         0.0808 
    101 H101       27.3063  -48.8080  -55.0056 H         1 UNK         0.3118 
    102 H102       25.8972  -46.0498  -54.7646 H         1 UNK         0.0546 
    103 H103       25.1898  -47.0674  -51.9676 H         1 UNK         0.0828 
    104 H104       24.1490  -46.1492  -53.0421 H         1 UNK         0.0828 
    105 H105       25.5832  -45.3958  -52.3694 H         1 UNK         0.0828 
    106 H106       28.0180  -46.2537  -54.2626 H         1 UNK         0.3005 
    107 H107       29.8933  -46.6157  -53.2517 H         1 UNK         0.1257 
    108 H108       29.9476  -48.3606  -50.7349 H         1 UNK         0.0775 
    109 H109       29.3828  -46.7205  -50.6908 H         1 UNK         0.0775 
    110 H110       30.6520  -45.0381  -49.8009 H         1 UNK         0.0840 
    111 H111       32.3773  -44.8298  -49.8502 H         1 UNK         0.0840 
    112 H112       30.9676  -49.1243  -52.8707 H         1 UNK         0.2987 
    113 H113       30.4968  -51.1051  -54.6226 H         1 UNK         0.0785 
    114 H114       31.2005  -51.4070  -56.9894 H         1 UNK         0.0798 
    115 H115       31.0803  -49.6723  -57.2742 H         1 UNK         0.0798 
    116 H116       29.6354  -50.6178  -56.9487 H         1 UNK         0.0798 
    117 H117       32.6062  -49.0700  -54.9468 H         1 UNK         0.3079 
    118 H118       35.1697  -51.4670  -54.1028 H         1 UNK         0.0794 
    119 H119       35.0913  -51.3814  -56.6037 H         1 UNK         0.0786 
    120 H120       36.3174  -50.2987  -55.9639 H         1 UNK         0.0786 
    121 H121       34.7837  -49.6504  -56.5445 H         1 UNK         0.0786 
    122 H122       35.2103  -48.6099  -54.3426 H         1 UNK         0.3032 
    123 H123       34.5732  -47.8901  -50.9430 H         1 UNK         0.1094 
    124 H124       36.8568  -46.8988  -51.0344 H         1 UNK         0.0794 
    125 H125       36.9101  -48.6426  -50.8345 H         1 UNK         0.0794 
    126 H126       37.2662  -47.9366  -52.4003 H         1 UNK         0.0794 
    127 H127       33.8620  -46.3266  -52.2915 H         1 UNK         0.3016 
@<TRIPOS>BOND
     1    1    2 1    
     2    1   67 1    
     3    1   68 1    
     4    1   69 1    
     5    2    3 2    
     6    2    4 am   BACKBONE|DICT|INTERRES
     7    4    5 1    
     8    4   70 1    
     9    5    6 1    
    10    5   65 1    
    11    5   71 1    
    12    6    7 1    
    13    6   72 1    
    14    6   73 1    
    15    7    8 1    
    16    8    9 1    
    17    8   74 1    
    18    8   75 1    
    19    9   10 ar   
    20    9   14 ar   
    21   10   11 ar   
    22   10   76 1    
    23   11   12 ar   
    24   11   48 1    
    25   12   13 ar   
    26   12   77 1    
    27   13   14 ar   
    28   13   15 1    
    29   14   78 1    
    30   15   16 1    
    31   15   79 1    
    32   15   80 1    
    33   16   17 1    
    34   17   18 1    
    35   17   81 1    
    36   17   82 1    
    37   18   19 1    
    38   18   22 1    
    39   18   83 1    
    40   19   20 am   BACKBONE|DICT|INTERRES
    41   19   21 2    
    42   20   84 1    
    43   20   85 1    
    44   22   23 am   BACKBONE|DICT|INTERRES
    45   22   86 1    
    46   23   24 2    
    47   23   25 1    
    48   25   26 1    
    49   25   27 1    
    50   25   87 1    
    51   26   88 1    
    52   26   89 1    
    53   26   90 1    
    54   27   28 am   BACKBONE|DICT|INTERRES
    55   27   91 1    
    56   28   29 2    
    57   28   30 1    
    58   30   31 1    
    59   30   32 1    
    60   30   92 1    
    61   31   93 1    
    62   31   94 1    
    63   31   95 1    
    64   32   33 am   BACKBONE|DICT|INTERRES
    65   32   96 1    
    66   33   34 2    
    67   33   35 1    
    68   35   36 1    
    69   35   37 1    
    70   35   97 1    
    71   36   98 1    
    72   36   99 1    
    73   36  100 1    
    74   37   38 am   BACKBONE|DICT|INTERRES
    75   37  101 1    
    76   38   39 2    
    77   38   40 1    
    78   40   41 1    
    79   40   42 1    
    80   40  102 1    
    81   41  103 1    
    82   41  104 1    
    83   41  105 1    
    84   42   43 am   BACKBONE|DICT|INTERRES
    85   42  106 1    
    86   43   44 2    
    87   43   45 1    
    88   45   46 1    
    89   45   49 1    
    90   45  107 1    
    91   46   47 1    
    92   46  108 1    
    93   46  109 1    
    94   47   48 1    
    95   48  110 1    
    96   48  111 1    
    97   49   50 am   BACKBONE|DICT|INTERRES
    98   49  112 1    
    99   50   51 2    
   100   50   52 1    
   101   52   53 1    
   102   52   54 1    
   103   52  113 1    
   104   53  114 1    
   105   53  115 1    
   106   53  116 1    
   107   54   55 am   BACKBONE|DICT|INTERRES
   108   54  117 1    
   109   55   56 2    
   110   55   57 1    
   111   57   58 1    
   112   57   59 1    
   113   57  118 1    
   114   58  119 1    
   115   58  120 1    
   116   58  121 1    
   117   59   60 am   BACKBONE|DICT|INTERRES
   118   59  122 1    
   119   60   61 2    
   120   60   62 1    
   121   62   63 1    
   122   62   64 1    
   123   62  123 1    
   124   63  124 1    
   125   63  125 1    
   126   63  126 1    
   127   64   65 am   BACKBONE|DICT|INTERRES
   128   64  127 1    
   129   65   66 2    
@<TRIPOS>SUBSTRUCTURE
     1 UNK         1 GROUP             0       ****    0 ROOT    
