@<TRIPOS>MOLECULE
3R134
127   129    1
SMALL
USER_CHARGES


@<TRIPOS>ATOM
      1 CA         33.0847  -45.1984  -46.4055 C.3       0 UNK        -0.1968 
      2 C          33.5859  -45.8227  -47.6996 C.2       0 UNK         0.4852 
      3 O          34.3669  -46.7750  -47.6566 O.2       0 UNK        -0.5359 
      4 N          33.1512  -45.2874  -48.8471 N.am      1 UNK        -0.4300 
      5 CA         33.4587  -45.7978  -50.1860 C.3       1 UNK         0.0863 
      6 C6         33.2263  -44.7305  -51.2887 C.3       11 UNK        -0.0953 
      7 S7         31.6223  -43.8624  -51.1868 S.3       11 UNK        -0.2369 
      8 C8         31.8674  -42.5396  -52.4125 C.3       11 UNK         0.0226 
      9 C9         31.5407  -43.0036  -53.8250 C.ar      11 UNK        -0.0699 
     10 C10        32.5282  -43.5745  -54.6358 C.ar      11 UNK        -0.0804 
     11 C11        32.2269  -43.9772  -55.9410 C.ar      11 UNK        -0.0871 
     12 C12        30.9338  -43.7913  -56.4305 C.ar      11 UNK        -0.1008 
     13 C13        29.9299  -43.2433  -55.6296 C.ar      11 UNK        -0.0735 
     14 C14        30.2439  -42.8478  -54.3256 C.ar      11 UNK        -0.0945 
     15 C15        28.4948  -43.1387  -56.1354 C.3       11 UNK         0.0169 
     16 S16        28.3204  -42.2134  -57.6997 S.3       11 UNK        -0.2669 
     17 C17        28.3692  -43.5264  -58.9757 C.3       11 UNK        -0.0850 
     18 CA         26.9691  -44.1025  -59.3031 C.3       10 UNK         0.0855 
     19 C          27.0217  -44.9921  -60.5696 C.2       10 UNK         0.5543 
     20 N          26.4780  -44.5227  -61.6836 N.am      10 UNK        -0.7343 
     21 O          27.5874  -46.0836  -60.5607 O.2       10 UNK        -0.5027 
     22 N          26.4641  -44.8940  -58.1793 N.am      10 UNK        -0.4495 
     23 C          25.2300  -44.8238  -57.6717 C.2       10 UNK         0.4903 
     24 O          24.3570  -44.0564  -58.0812 O.2       10 UNK        -0.4860 
     25 CA         24.9378  -45.7758  -56.4969 C.3       9 UNK         0.0227 
     26 CB         23.4477  -45.8138  -56.0957 C.3       9 UNK        -0.1964 
     27 N          25.4574  -47.1271  -56.7314 N.am      9 UNK        -0.4231 
     28 C          25.1087  -47.9811  -57.7076 C.2       9 UNK         0.5014 
     29 O          24.2377  -47.7481  -58.5470 O.2       9 UNK        -0.5270 
     30 CA         25.8610  -49.3250  -57.7795 C.3       8 UNK         0.0284 
     31 CB         26.7668  -49.3600  -59.0222 C.3       8 UNK        -0.1977 
     32 N          26.6761  -49.6123  -56.5966 N.am      8 UNK        -0.4342 
     33 C          26.2046  -49.9385  -55.3858 C.2       8 UNK         0.5039 
     34 O          25.0123  -50.1207  -55.1393 O.2       8 UNK        -0.5547 
     35 CA         27.2371  -50.0265  -54.2488 C.3       7 UNK         0.0281 
     36 CB         27.8904  -51.4172  -54.2050 C.3       7 UNK        -0.1963 
     37 N          28.2727  -48.9925  -54.3525 N.am      7 UNK        -0.4444 
     38 C          28.0607  -47.6806  -54.1688 C.2       7 UNK         0.5104 
     39 O          26.9678  -47.1987  -53.8737 O.2       7 UNK        -0.5100 
     40 CA         29.2581  -46.7443  -54.3909 C.3       6 UNK         0.0396 
     41 CB         30.0730  -46.5824  -53.1032 C.3       6 UNK        -0.1801 
     42 N          30.1284  -47.2044  -55.4740 N.am      6 UNK        -0.4747 
     43 C          29.8050  -47.1080  -56.7723 C.2       6 UNK         0.5012 
     44 O          28.7475  -46.6176  -57.1769 O.2       6 UNK        -0.5003 
     45 CA         30.7979  -47.7085  -57.7883 C.3       5 UNK         0.0782 
     46 C46        31.9298  -46.7250  -58.1887 C.3       11 UNK        -0.0868 
     47 S47        33.1828  -46.4170  -56.8867 S.3       11 UNK        -0.2515 
     48 C48        33.2945  -44.5972  -56.8327 C.3       11 UNK         0.0199 
     49 N          31.3270  -49.0130  -57.3798 N.am      5 UNK        -0.4607 
     50 C          30.6094  -50.1144  -57.1332 C.2       4 UNK         0.5031 
     51 O          29.3814  -50.1417  -57.1811 O.2       4 UNK        -0.5119 
     52 CA         31.3604  -51.4033  -56.7461 C.3       4 UNK         0.0263 
     53 CB         31.6950  -52.2419  -57.9946 C.3       4 UNK        -0.1967 
     54 N          32.5397  -51.1959  -55.8926 N.am      4 UNK        -0.4237 
     55 C          33.6944  -50.5787  -56.1845 C.2       3 UNK         0.4908 
     56 O          33.9729  -50.1439  -57.3031 O.2       3 UNK        -0.5102 
     57 CA         34.6832  -50.3801  -55.0170 C.3       3 UNK         0.0241 
     58 CB         35.6713  -49.2232  -55.2785 C.3       3 UNK        -0.1971 
     59 N          34.0504  -50.2041  -53.6993 N.am      3 UNK        -0.4139 
     60 C          33.1230  -49.2980  -53.3479 C.2       2 UNK         0.5016 
     61 O          32.5565  -48.5407  -54.1371 O.2       2 UNK        -0.5319 
     62 CA         32.7782  -49.1941  -51.8563 C.3       2 UNK         0.0286 
     63 CB         33.3340  -50.3350  -50.9768 C.3       2 UNK        -0.1963 
     64 N          33.2953  -47.9124  -51.3882 N.am      2 UNK        -0.4790 
     65 C          32.7140  -47.1170  -50.4850 C.2       1 UNK         0.5024 
     66 O          31.6509  -47.3825  -49.9175 O.2       1 UNK        -0.4888 
     67 H67        32.4150  -44.3586  -46.5905 H         1 UNK         0.0892 
     68 H68        32.5443  -45.9392  -45.8168 H         1 UNK         0.0892 
     69 H69        33.9247  -44.8376  -45.8125 H         1 UNK         0.0892 
     70 H70        32.4843  -44.5288  -48.8269 H         1 UNK         0.3107 
     71 H71        34.5251  -46.0358  -50.1952 H         1 UNK         0.0773 
     72 H72        33.3296  -45.1674  -52.2836 H         1 UNK         0.0680 
     73 H73        34.0134  -43.9785  -51.2155 H         1 UNK         0.0680 
     74 H74        32.8901  -42.1634  -52.3609 H         1 UNK         0.0650 
     75 H75        31.2256  -41.6988  -52.1454 H         1 UNK         0.0650 
     76 H76        33.5305  -43.7026  -54.2513 H         1 UNK         0.1397 
     77 H77        30.7097  -44.0910  -57.4377 H         1 UNK         0.1363 
     78 H78        29.4763  -42.4260  -53.6914 H         1 UNK         0.1355 
     79 H79        28.0884  -44.1425  -56.2414 H         1 UNK         0.0707 
     80 H80        27.8706  -42.6435  -55.3902 H         1 UNK         0.0707 
     81 H81        28.8122  -43.0815  -59.8690 H         1 UNK         0.1034 
     82 H82        29.0380  -44.3337  -58.6834 H         1 UNK         0.1034 
     83 H83        26.2985  -43.2630  -59.4987 H         1 UNK         0.0482 
     84 H84        26.0197  -43.6247  -61.7027 H         1 UNK         0.3460 
     85 H85        26.5172  -45.0828  -62.5209 H         1 UNK         0.3460 
     86 H86        27.1086  -45.5930  -57.8221 H         1 UNK         0.2989 
     87 H87        25.4953  -45.3839  -55.6448 H         1 UNK         0.0559 
     88 H88        22.8131  -46.1459  -56.9178 H         1 UNK         0.0848 
     89 H89        23.0992  -44.8244  -55.7971 H         1 UNK         0.0848 
     90 H90        23.2820  -46.4833  -55.2517 H         1 UNK         0.0848 
     91 H91        26.1852  -47.4240  -56.0948 H         1 UNK         0.3144 
     92 H92        25.1120  -50.1134  -57.8763 H         1 UNK         0.0727 
     93 H93        27.2596  -50.3266  -59.1287 H         1 UNK         0.0790 
     94 H94        27.5406  -48.5922  -58.9755 H         1 UNK         0.0790 
     95 H95        26.1925  -49.1863  -59.9332 H         1 UNK         0.0790 
     96 H96        27.6862  -49.5838  -56.7296 H         1 UNK         0.3215 
     97 H97        26.7049  -49.8723  -53.3073 H         1 UNK         0.0863 
     98 H98        28.5980  -51.4997  -53.3799 H         1 UNK         0.0808 
     99 H99        28.4200  -51.6478  -55.1292 H         1 UNK         0.0808 
    100 H100       27.1371  -52.1933  -54.0631 H         1 UNK         0.0808 
    101 H101       29.1941  -49.2871  -54.6403 H         1 UNK         0.3118 
    102 H102       28.8687  -45.7615  -54.6591 H         1 UNK         0.0546 
    103 H103       29.4844  -46.0923  -52.3269 H         1 UNK         0.0828 
    104 H104       30.9611  -45.9738  -53.2727 H         1 UNK         0.0828 
    105 H105       30.3963  -47.5430  -52.7077 H         1 UNK         0.0828 
    106 H106       31.0265  -47.6052  -55.2145 H         1 UNK         0.3005 
    107 H107       30.2087  -47.8956  -58.6894 H         1 UNK         0.1257 
    108 H108       31.5107  -45.7869  -58.5498 H         1 UNK         0.0775 
    109 H109       32.4641  -47.1367  -59.0463 H         1 UNK         0.0775 
    110 H110       34.2853  -44.3260  -56.4654 H         1 UNK         0.0840 
    111 H111       33.2295  -44.1891  -57.8424 H         1 UNK         0.0840 
    112 H112       32.3376  -49.0866  -57.3142 H         1 UNK         0.2987 
    113 H113       30.6677  -51.9905  -56.1416 H         1 UNK         0.0785 
    114 H114       30.7888  -52.4856  -58.5508 H         1 UNK         0.0798 
    115 H115       32.1722  -53.1837  -57.7240 H         1 UNK         0.0798 
    116 H116       32.3590  -51.7131  -58.6788 H         1 UNK         0.0798 
    117 H117       32.4217  -51.4882  -54.9328 H         1 UNK         0.3079 
    118 H118       35.2632  -51.3024  -54.9596 H         1 UNK         0.0794 
    119 H119       35.1526  -48.2694  -55.3818 H         1 UNK         0.0786 
    120 H120       36.2397  -49.3864  -56.1951 H         1 UNK         0.0786 
    121 H121       36.3925  -49.1256  -54.4672 H         1 UNK         0.0786 
    122 H122       34.4238  -50.7873  -52.9629 H         1 UNK         0.3032 
    123 H123       31.6890  -49.2091  -51.7838 H         1 UNK         0.1094 
    124 H124       34.4245  -50.3468  -50.9544 H         1 UNK         0.0794 
    125 H125       32.9909  -50.2300  -49.9471 H         1 UNK         0.0794 
    126 H126       32.9897  -51.3098  -51.3252 H         1 UNK         0.0794 
    127 H127       34.1347  -47.5919  -51.8522 H         1 UNK         0.3016 
@<TRIPOS>BOND
     1    1    2 1    
     2    1   67 1    
     3    1   68 1    
     4    1   69 1    
     5    2    3 2    
     6    2    4 am   BACKBONE|DICT|INTERRES
     7    4    5 1    
     8    4   70 1    
     9    5    6 1    
    10    5   65 1    
    11    5   71 1    
    12    6    7 1    
    13    6   72 1    
    14    6   73 1    
    15    7    8 1    
    16    8    9 1    
    17    8   74 1    
    18    8   75 1    
    19    9   10 ar   
    20    9   14 ar   
    21   10   11 ar   
    22   10   76 1    
    23   11   12 ar   
    24   11   48 1    
    25   12   13 ar   
    26   12   77 1    
    27   13   14 ar   
    28   13   15 1    
    29   14   78 1    
    30   15   16 1    
    31   15   79 1    
    32   15   80 1    
    33   16   17 1    
    34   17   18 1    
    35   17   81 1    
    36   17   82 1    
    37   18   19 1    
    38   18   22 1    
    39   18   83 1    
    40   19   20 am   BACKBONE|DICT|INTERRES
    41   19   21 2    
    42   20   84 1    
    43   20   85 1    
    44   22   23 am   BACKBONE|DICT|INTERRES
    45   22   86 1    
    46   23   24 2    
    47   23   25 1    
    48   25   26 1    
    49   25   27 1    
    50   25   87 1    
    51   26   88 1    
    52   26   89 1    
    53   26   90 1    
    54   27   28 am   BACKBONE|DICT|INTERRES
    55   27   91 1    
    56   28   29 2    
    57   28   30 1    
    58   30   31 1    
    59   30   32 1    
    60   30   92 1    
    61   31   93 1    
    62   31   94 1    
    63   31   95 1    
    64   32   33 am   BACKBONE|DICT|INTERRES
    65   32   96 1    
    66   33   34 2    
    67   33   35 1    
    68   35   36 1    
    69   35   37 1    
    70   35   97 1    
    71   36   98 1    
    72   36   99 1    
    73   36  100 1    
    74   37   38 am   BACKBONE|DICT|INTERRES
    75   37  101 1    
    76   38   39 2    
    77   38   40 1    
    78   40   41 1    
    79   40   42 1    
    80   40  102 1    
    81   41  103 1    
    82   41  104 1    
    83   41  105 1    
    84   42   43 am   BACKBONE|DICT|INTERRES
    85   42  106 1    
    86   43   44 2    
    87   43   45 1    
    88   45   46 1    
    89   45   49 1    
    90   45  107 1    
    91   46   47 1    
    92   46  108 1    
    93   46  109 1    
    94   47   48 1    
    95   48  110 1    
    96   48  111 1    
    97   49   50 am   BACKBONE|DICT|INTERRES
    98   49  112 1    
    99   50   51 2    
   100   50   52 1    
   101   52   53 1    
   102   52   54 1    
   103   52  113 1    
   104   53  114 1    
   105   53  115 1    
   106   53  116 1    
   107   54   55 am   BACKBONE|DICT|INTERRES
   108   54  117 1    
   109   55   56 2    
   110   55   57 1    
   111   57   58 1    
   112   57   59 1    
   113   57  118 1    
   114   58  119 1    
   115   58  120 1    
   116   58  121 1    
   117   59   60 am   BACKBONE|DICT|INTERRES
   118   59  122 1    
   119   60   61 2    
   120   60   62 1    
   121   62   63 1    
   122   62   64 1    
   123   62  123 1    
   124   63  124 1    
   125   63  125 1    
   126   63  126 1    
   127   64   65 am   BACKBONE|DICT|INTERRES
   128   64  127 1    
   129   65   66 2    
@<TRIPOS>SUBSTRUCTURE
     1 UNK         1 GROUP             0       ****    0 ROOT    
