@<TRIPOS>MOLECULE
3R134
127   129    1
SMALL
USER_CHARGES


@<TRIPOS>ATOM
      1 CA         36.9298  -48.5426  -56.0748 C.3       0 UNK        -0.1968 
      2 C          35.7022  -47.7324  -55.6888 C.2       0 UNK         0.4852 
      3 O          34.5800  -48.1727  -55.9377 O.2       0 UNK        -0.5359 
      4 N          35.9025  -46.5597  -55.0699 N.am      1 UNK        -0.4300 
      5 CA         34.8469  -45.6367  -54.6310 C.3       1 UNK         0.0863 
      6 C6         35.4579  -44.2874  -54.1507 C.3       11 UNK        -0.0953 
      7 S7         34.3773  -43.1547  -53.2072 S.3       11 UNK        -0.2369 
      8 C8         33.1878  -42.5939  -54.4790 C.3       11 UNK         0.0226 
      9 C9         31.7148  -42.5974  -54.0540 C.ar      11 UNK        -0.0699 
     10 C10        31.2851  -43.0089  -52.7843 C.ar      11 UNK        -0.0804 
     11 C11        29.9268  -43.0278  -52.4558 C.ar      11 UNK        -0.0871 
     12 C12        28.9839  -42.6247  -53.4028 C.ar      11 UNK        -0.1008 
     13 C13        29.3909  -42.2154  -54.6741 C.ar      11 UNK        -0.0735 
     14 C14        30.7546  -42.1917  -54.9870 C.ar      11 UNK        -0.0945 
     15 C15        28.3493  -41.8217  -55.7105 C.3       11 UNK         0.0169 
     16 S16        27.7733  -43.2730  -56.6488 S.3       11 UNK        -0.2669 
     17 C17        29.2457  -43.6274  -57.6661 C.3       11 UNK        -0.0850 
     18 CA         28.8934  -44.2519  -59.0393 C.3       10 UNK         0.0855 
     19 C          30.1433  -44.2725  -59.9728 C.2       10 UNK         0.5543 
     20 N          30.6177  -45.4215  -60.4387 N.am      10 UNK        -0.7343 
     21 O          30.6910  -43.2177  -60.2828 O.2       10 UNK        -0.5027 
     22 N          28.2005  -45.5426  -58.8803 N.am      10 UNK        -0.4495 
     23 C          27.5239  -46.1713  -59.8505 C.2       10 UNK         0.4903 
     24 O          27.3667  -45.7180  -60.9842 O.2       10 UNK        -0.4860 
     25 CA         26.9363  -47.5467  -59.5117 C.3       9 UNK         0.0227 
     26 CB         27.9512  -48.6538  -59.8423 C.3       9 UNK        -0.1964 
     27 N          26.5583  -47.6579  -58.1043 N.am      9 UNK        -0.4231 
     28 C          25.3325  -47.4379  -57.6135 C.2       9 UNK         0.5014 
     29 O          24.3846  -47.0280  -58.2871 O.2       9 UNK        -0.5270 
     30 CA         25.1405  -47.7718  -56.1192 C.3       8 UNK         0.0284 
     31 CB         23.6584  -47.8865  -55.7054 C.3       8 UNK        -0.1977 
     32 N          25.8928  -48.9690  -55.7173 N.am      8 UNK        -0.4342 
     33 C          25.7936  -50.2093  -56.2243 C.2       8 UNK         0.5039 
     34 O          24.9347  -50.5551  -57.0367 O.2       8 UNK        -0.5547 
     35 CA         26.8585  -51.2374  -55.7979 C.3       7 UNK         0.0281 
     36 CB         27.8538  -51.4690  -56.9475 C.3       7 UNK        -0.1963 
     37 N          27.6061  -50.8455  -54.6016 N.am      7 UNK        -0.4444 
     38 C          27.1250  -50.8989  -53.3534 C.2       7 UNK         0.5104 
     39 O          26.0161  -51.3486  -53.0630 O.2       7 UNK        -0.5100 
     40 CA         28.0203  -50.3187  -52.2455 C.3       6 UNK         0.0396 
     41 CB         29.0500  -51.3601  -51.7810 C.3       6 UNK        -0.1801 
     42 N          28.7111  -49.0839  -52.6336 N.am      6 UNK        -0.4747 
     43 C          28.1061  -47.9420  -52.9995 C.2       6 UNK         0.5012 
     44 O          26.8862  -47.8130  -53.0992 O.2       6 UNK        -0.5003 
     45 CA         29.0239  -46.7536  -53.3407 C.3       5 UNK         0.0782 
     46 C46        29.6824  -46.1805  -52.0579 C.3       11 UNK        -0.0868 
     47 S47        28.5467  -45.0711  -51.1551 S.3       11 UNK        -0.2515 
     48 C48        29.4823  -43.5080  -51.0812 C.3       11 UNK         0.0199 
     49 N          30.0089  -47.1243  -54.3588 N.am      5 UNK        -0.4607 
     50 C          29.7248  -47.4911  -55.6174 C.2       4 UNK         0.5031 
     51 O          28.5992  -47.4512  -56.1161 O.2       4 UNK        -0.5119 
     52 CA         30.8879  -48.0375  -56.4617 C.3       4 UNK         0.0263 
     53 CB         31.6420  -46.8930  -57.1530 C.3       4 UNK        -0.1967 
     54 N          31.8259  -48.8505  -55.6843 N.am      4 UNK        -0.4237 
     55 C          31.5062  -49.9895  -55.0520 C.2       3 UNK         0.4908 
     56 O          30.3948  -50.5151  -55.1037 O.2       3 UNK        -0.5102 
     57 CA         32.5921  -50.6196  -54.1679 C.3       3 UNK         0.0241 
     58 CB         33.5957  -51.4246  -55.0089 C.3       3 UNK        -0.1971 
     59 N          33.2949  -49.6136  -53.3691 N.am      3 UNK        -0.4139 
     60 C          32.7391  -48.9321  -52.3567 C.2       2 UNK         0.5016 
     61 O          31.5875  -49.1123  -51.9596 O.2       2 UNK        -0.5319 
     62 CA         33.6005  -47.8358  -51.7048 C.3       2 UNK         0.0286 
     63 CB         34.5226  -48.4358  -50.6319 C.3       2 UNK        -0.1963 
     64 N          34.3999  -47.0781  -52.6745 N.am      2 UNK        -0.4790 
     65 C          33.8716  -46.2967  -53.6290 C.2       1 UNK         0.5024 
     66 O          32.6610  -46.1368  -53.7744 O.2       1 UNK        -0.4888 
     67 H67        36.9527  -48.6933  -57.1536 H         1 UNK         0.0892 
     68 H68        37.8555  -48.0482  -55.7809 H         1 UNK         0.0892 
     69 H69        36.8992  -49.5205  -55.5952 H         1 UNK         0.0892 
     70 H70        36.8499  -46.2562  -54.8941 H         1 UNK         0.3107 
     71 H71        34.2505  -45.4172  -55.5185 H         1 UNK         0.0773 
     72 H72        35.8618  -43.7423  -55.0053 H         1 UNK         0.0680 
     73 H73        36.3124  -44.4888  -53.5024 H         1 UNK         0.0680 
     74 H74        33.4673  -41.5842  -54.7828 H         1 UNK         0.0650 
     75 H75        33.2853  -43.2193  -55.3667 H         1 UNK         0.0650 
     76 H76        31.9971  -43.3394  -52.0429 H         1 UNK         0.1397 
     77 H77        27.9309  -42.6538  -53.1568 H         1 UNK         0.1363 
     78 H78        31.0718  -41.8731  -55.9702 H         1 UNK         0.1355 
     79 H79        28.7472  -41.0677  -56.3916 H         1 UNK         0.0707 
     80 H80        27.4926  -41.3605  -55.2167 H         1 UNK         0.0707 
     81 H81        29.9128  -44.2783  -57.0987 H         1 UNK         0.1034 
     82 H82        29.7883  -42.6924  -57.8156 H         1 UNK         0.1034 
     83 H83        28.1870  -43.5775  -59.5274 H         1 UNK         0.0482 
     84 H84        31.4229  -45.4115  -61.0445 H         1 UNK         0.3460 
     85 H85        30.1620  -46.2907  -60.2183 H         1 UNK         0.3460 
     86 H86        28.2559  -45.9704  -57.9665 H         1 UNK         0.2989 
     87 H87        26.0559  -47.6987  -60.1400 H         1 UNK         0.0559 
     88 H88        28.8564  -48.5705  -59.2399 H         1 UNK         0.0848 
     89 H89        28.2499  -48.6103  -60.8906 H         1 UNK         0.0848 
     90 H90        27.5252  -49.6425  -59.6700 H         1 UNK         0.0848 
     91 H91        27.2901  -47.8992  -57.4408 H         1 UNK         0.3144 
     92 H92        25.5766  -46.9395  -55.5644 H         1 UNK         0.0727 
     93 H93        23.1417  -48.6692  -56.2617 H         1 UNK         0.0790 
     94 H94        23.1279  -46.9516  -55.8900 H         1 UNK         0.0790 
     95 H95        23.5616  -48.1093  -54.6428 H         1 UNK         0.0790 
     96 H96        26.6182  -48.7995  -55.0303 H         1 UNK         0.3215 
     97 H97        26.3435  -52.1786  -55.5933 H         1 UNK         0.0863 
     98 H98        28.4034  -50.5590  -57.1924 H         1 UNK         0.0808 
     99 H99        27.3401  -51.7947  -57.8530 H         1 UNK         0.0808 
    100 H100       28.5817  -52.2395  -56.6929 H         1 UNK         0.0808 
    101 H101       28.5659  -50.5322  -54.7411 H         1 UNK         0.3118 
    102 H102       27.3777  -50.0765  -51.3967 H         1 UNK         0.0546 
    103 H103       29.6358  -50.9908  -50.9390 H         1 UNK         0.0828 
    104 H104       29.7440  -51.6244  -52.5794 H         1 UNK         0.0828 
    105 H105       28.5590  -52.2785  -51.4569 H         1 UNK         0.0828 
    106 H106       29.7263  -49.0946  -52.5638 H         1 UNK         0.3005 
    107 H107       28.4035  -45.9743  -53.7908 H         1 UNK         0.1257 
    108 H108       30.5845  -45.6295  -52.3156 H         1 UNK         0.0775 
    109 H109       30.0198  -46.9674  -51.3810 H         1 UNK         0.0775 
    110 H110       28.8575  -42.7428  -50.6184 H         1 UNK         0.0840 
    111 H111       30.3392  -43.6424  -50.4191 H         1 UNK         0.0840 
    112 H112       30.9826  -47.0976  -54.0723 H         1 UNK         0.2987 
    113 H113       30.4618  -48.6821  -57.2329 H         1 UNK         0.0785 
    114 H114       32.4572  -47.2691  -57.7714 H         1 UNK         0.0798 
    115 H115       30.9754  -46.3308  -57.8042 H         1 UNK         0.0798 
    116 H116       32.0636  -46.1918  -56.4328 H         1 UNK         0.0798 
    117 H117       32.7889  -48.5204  -55.6367 H         1 UNK         0.3079 
    118 H118       32.0995  -51.3103  -53.4801 H         1 UNK         0.0794 
    119 H119       34.3330  -51.9213  -54.3780 H         1 UNK         0.0786 
    120 H120       34.1319  -50.7957  -55.7201 H         1 UNK         0.0786 
    121 H121       33.0860  -52.2002  -55.5822 H         1 UNK         0.0786 
    122 H122       34.2264  -49.3618  -53.6655 H         1 UNK         0.3032 
    123 H123       32.9175  -47.1368  -51.2161 H         1 UNK         0.1094 
    124 H124       33.9463  -48.9907  -49.8900 H         1 UNK         0.0794 
    125 H125       35.2510  -49.1250  -51.0608 H         1 UNK         0.0794 
    126 H126       35.0689  -47.6577  -50.0984 H         1 UNK         0.0794 
    127 H127       35.4043  -47.1684  -52.6211 H         1 UNK         0.3016 
@<TRIPOS>BOND
     1    1    2 1    
     2    1   67 1    
     3    1   68 1    
     4    1   69 1    
     5    2    3 2    
     6    2    4 am   BACKBONE|DICT|INTERRES
     7    4    5 1    
     8    4   70 1    
     9    5    6 1    
    10    5   65 1    
    11    5   71 1    
    12    6    7 1    
    13    6   72 1    
    14    6   73 1    
    15    7    8 1    
    16    8    9 1    
    17    8   74 1    
    18    8   75 1    
    19    9   10 ar   
    20    9   14 ar   
    21   10   11 ar   
    22   10   76 1    
    23   11   12 ar   
    24   11   48 1    
    25   12   13 ar   
    26   12   77 1    
    27   13   14 ar   
    28   13   15 1    
    29   14   78 1    
    30   15   16 1    
    31   15   79 1    
    32   15   80 1    
    33   16   17 1    
    34   17   18 1    
    35   17   81 1    
    36   17   82 1    
    37   18   19 1    
    38   18   22 1    
    39   18   83 1    
    40   19   20 am   BACKBONE|DICT|INTERRES
    41   19   21 2    
    42   20   84 1    
    43   20   85 1    
    44   22   23 am   BACKBONE|DICT|INTERRES
    45   22   86 1    
    46   23   24 2    
    47   23   25 1    
    48   25   26 1    
    49   25   27 1    
    50   25   87 1    
    51   26   88 1    
    52   26   89 1    
    53   26   90 1    
    54   27   28 am   BACKBONE|DICT|INTERRES
    55   27   91 1    
    56   28   29 2    
    57   28   30 1    
    58   30   31 1    
    59   30   32 1    
    60   30   92 1    
    61   31   93 1    
    62   31   94 1    
    63   31   95 1    
    64   32   33 am   BACKBONE|DICT|INTERRES
    65   32   96 1    
    66   33   34 2    
    67   33   35 1    
    68   35   36 1    
    69   35   37 1    
    70   35   97 1    
    71   36   98 1    
    72   36   99 1    
    73   36  100 1    
    74   37   38 am   BACKBONE|DICT|INTERRES
    75   37  101 1    
    76   38   39 2    
    77   38   40 1    
    78   40   41 1    
    79   40   42 1    
    80   40  102 1    
    81   41  103 1    
    82   41  104 1    
    83   41  105 1    
    84   42   43 am   BACKBONE|DICT|INTERRES
    85   42  106 1    
    86   43   44 2    
    87   43   45 1    
    88   45   46 1    
    89   45   49 1    
    90   45  107 1    
    91   46   47 1    
    92   46  108 1    
    93   46  109 1    
    94   47   48 1    
    95   48  110 1    
    96   48  111 1    
    97   49   50 am   BACKBONE|DICT|INTERRES
    98   49  112 1    
    99   50   51 2    
   100   50   52 1    
   101   52   53 1    
   102   52   54 1    
   103   52  113 1    
   104   53  114 1    
   105   53  115 1    
   106   53  116 1    
   107   54   55 am   BACKBONE|DICT|INTERRES
   108   54  117 1    
   109   55   56 2    
   110   55   57 1    
   111   57   58 1    
   112   57   59 1    
   113   57  118 1    
   114   58  119 1    
   115   58  120 1    
   116   58  121 1    
   117   59   60 am   BACKBONE|DICT|INTERRES
   118   59  122 1    
   119   60   61 2    
   120   60   62 1    
   121   62   63 1    
   122   62   64 1    
   123   62  123 1    
   124   63  124 1    
   125   63  125 1    
   126   63  126 1    
   127   64   65 am   BACKBONE|DICT|INTERRES
   128   64  127 1    
   129   65   66 2    
@<TRIPOS>SUBSTRUCTURE
     1 UNK         1 GROUP             0       ****    0 ROOT    
