@<TRIPOS>MOLECULE
3R134
127   129    1
SMALL
USER_CHARGES


@<TRIPOS>ATOM
      1 CA         33.5671  -41.2671  -50.7533 C.3       0 UNK        -0.1968 
      2 C          34.4288  -42.5212  -50.7773 C.2       0 UNK         0.4852 
      3 O          35.6333  -42.4369  -50.5324 O.2       0 UNK        -0.5359 
      4 N          33.8179  -43.6744  -51.0700 N.am      1 UNK        -0.4300 
      5 CA         34.4560  -44.9897  -51.1074 C.3       1 UNK         0.0863 
      6 C6         34.3769  -45.6299  -52.5162 C.3       11 UNK        -0.0953 
      7 S7         35.5405  -44.8892  -53.7011 S.3       11 UNK        -0.2369 
      8 C8         34.4868  -43.6840  -54.5649 C.3       11 UNK         0.0226 
      9 C9         33.4945  -44.3236  -55.5291 C.ar      11 UNK        -0.0699 
     10 C10        33.9495  -44.9705  -56.6817 C.ar      11 UNK        -0.0804 
     11 C11        33.0445  -45.4365  -57.6403 C.ar      11 UNK        -0.0871 
     12 C12        31.6724  -45.2583  -57.4340 C.ar      11 UNK        -0.1008 
     13 C13        31.1999  -44.6352  -56.2732 C.ar      11 UNK        -0.0735 
     14 C14        32.1192  -44.1792  -55.3220 C.ar      11 UNK        -0.0945 
     15 C15        29.7174  -44.3248  -56.0819 C.3       11 UNK         0.0169 
     16 S16        28.5683  -45.6148  -56.6806 S.3       11 UNK        -0.2669 
     17 C17        27.0312  -44.6271  -56.7933 C.3       11 UNK        -0.0850 
     18 CA         25.8800  -45.1359  -55.8854 C.3       10 UNK         0.0855 
     19 C          24.7426  -44.0730  -55.7881 C.2       10 UNK         0.5543 
     20 N          23.5218  -44.3406  -56.2400 N.am      10 UNK        -0.7343 
     21 O          24.9742  -42.9792  -55.2791 O.2       10 UNK        -0.5027 
     22 N          25.4044  -46.4715  -56.2824 N.am      10 UNK        -0.4495 
     23 C          24.7389  -47.2977  -55.4601 C.2       10 UNK         0.4903 
     24 O          24.6058  -47.0842  -54.2541 O.2       10 UNK        -0.4860 
     25 CA         24.1152  -48.5740  -56.0667 C.3       9 UNK         0.0227 
     26 CB         22.8412  -49.0210  -55.3186 C.3       9 UNK        -0.1964 
     27 N          23.8669  -48.4967  -57.5116 N.am      9 UNK        -0.4231 
     28 C          23.0680  -47.6353  -58.1630 C.2       9 UNK         0.5014 
     29 O          22.3790  -46.7814  -57.6013 O.2       9 UNK        -0.5270 
     30 CA         23.1037  -47.7148  -59.7067 C.3       8 UNK         0.0284 
     31 CB         22.4905  -46.4717  -60.3867 C.3       8 UNK        -0.1977 
     32 N          24.4577  -47.9799  -60.2199 N.am      8 UNK        -0.4342 
     33 C          25.5514  -47.2447  -59.9716 C.2       8 UNK         0.5039 
     34 O          25.5367  -46.1717  -59.3691 O.2       8 UNK        -0.5547 
     35 CA         26.9053  -47.8729  -60.3349 C.3       7 UNK         0.0281 
     36 CB         27.8144  -46.8703  -61.0661 C.3       7 UNK        -0.1963 
     37 N          27.5733  -48.3200  -59.1108 N.am      7 UNK        -0.4444 
     38 C          27.1364  -49.2995  -58.3067 C.2       7 UNK         0.5104 
     39 O          26.1575  -50.0042  -58.5630 O.2       7 UNK        -0.5100 
     40 CA         27.8833  -49.4817  -56.9722 C.3       6 UNK         0.0396 
     41 CB         27.6592  -50.8727  -56.3420 C.3       6 UNK        -0.1801 
     42 N          29.3127  -49.1652  -57.0532 N.am      6 UNK        -0.4747 
     43 C          30.2501  -49.8016  -57.7748 C.2       6 UNK         0.5012 
     44 O          30.0146  -50.7420  -58.5340 O.2       6 UNK        -0.5003 
     45 CA         31.7031  -49.3010  -57.6259 C.3       5 UNK         0.0782 
     46 C46        32.1119  -48.4854  -58.8765 C.3       11 UNK        -0.0868 
     47 S47        33.8212  -47.8521  -58.7878 S.3       11 UNK        -0.2515 
     48 C48        33.5587  -46.0565  -58.9329 C.3       11 UNK         0.0199 
     49 N          31.9327  -48.5671  -56.3725 N.am      5 UNK        -0.4607 
     50 C          31.8990  -49.1207  -55.1536 C.2       4 UNK         0.5031 
     51 O          31.6299  -50.3063  -54.9459 O.2       4 UNK        -0.5119 
     52 CA         32.1671  -48.1722  -53.9739 C.3       4 UNK         0.0263 
     53 CB         30.9065  -47.3528  -53.6483 C.3       4 UNK        -0.1967 
     54 N          32.5843  -48.8861  -52.7643 N.am      4 UNK        -0.4237 
     55 C          33.7325  -49.5608  -52.6227 C.2       3 UNK         0.4908 
     56 O          34.6263  -49.5885  -53.4707 O.2       3 UNK        -0.5102 
     57 CA         33.9333  -50.2499  -51.2671 C.3       3 UNK         0.0241 
     58 CB         35.0787  -51.2803  -51.2810 C.3       3 UNK        -0.1971 
     59 N          34.2357  -49.2055  -50.2949 N.am      3 UNK        -0.4139 
     60 C          33.5446  -48.9408  -49.1796 C.2       2 UNK         0.5016 
     61 O          32.6024  -49.6204  -48.7713 O.2       2 UNK        -0.5319 
     62 CA         33.9657  -47.6792  -48.4036 C.3       2 UNK         0.0286 
     63 CB         35.0198  -48.0252  -47.3394 C.3       2 UNK        -0.1963 
     64 N          34.4911  -46.6347  -49.2920 N.am      2 UNK        -0.4790 
     65 C          33.7253  -45.8836  -50.0958 C.2       1 UNK         0.5024 
     66 O          32.4923  -45.9124  -50.0931 O.2       1 UNK        -0.4888 
     67 H67        33.9404  -40.5425  -51.4764 H         1 UNK         0.0892 
     68 H68        32.5264  -41.4815  -50.9960 H         1 UNK         0.0892 
     69 H69        33.5975  -40.8095  -49.7649 H         1 UNK         0.0892 
     70 H70        32.8139  -43.6940  -51.1873 H         1 UNK         0.3107 
     71 H71        35.5040  -44.9201  -50.8080 H         1 UNK         0.0773 
     72 H72        34.6309  -46.6900  -52.4709 H         1 UNK         0.0680 
     73 H73        33.3619  -45.5762  -52.9118 H         1 UNK         0.0680 
     74 H74        33.9733  -43.0620  -53.8313 H         1 UNK         0.0650 
     75 H75        35.1318  -43.0091  -55.1291 H         1 UNK         0.0650 
     76 H76        35.0130  -45.0732  -56.8507 H         1 UNK         0.1397 
     77 H77        30.9714  -45.5675  -58.1962 H         1 UNK         0.1363 
     78 H78        31.7643  -43.6576  -54.4436 H         1 UNK         0.1355 
     79 H79        29.5210  -43.3922  -56.6121 H         1 UNK         0.0707 
     80 H80        29.4984  -44.1376  -55.0293 H         1 UNK         0.0707 
     81 H81        26.7148  -44.5955  -57.8352 H         1 UNK         0.1034 
     82 H82        27.2636  -43.5907  -56.5428 H         1 UNK         0.1034 
     83 H83        26.2887  -45.2174  -54.8763 H         1 UNK         0.0482 
     84 H84        23.2996  -45.2339  -56.6657 H         1 UNK         0.3460 
     85 H85        22.8057  -43.6367  -56.1600 H         1 UNK         0.3460 
     86 H86        25.4366  -46.6648  -57.2764 H         1 UNK         0.2989 
     87 H87        24.8597  -49.3588  -55.9342 H         1 UNK         0.0559 
     88 H88        22.4246  -49.9304  -55.7512 H         1 UNK         0.0848 
     89 H89        22.0675  -48.2529  -55.3423 H         1 UNK         0.0848 
     90 H90        23.0544  -49.2334  -54.2703 H         1 UNK         0.0848 
     91 H91        24.4330  -49.1286  -58.0719 H         1 UNK         0.3144 
     92 H92        22.4931  -48.5766  -59.9802 H         1 UNK         0.0727 
     93 H93        22.5178  -46.5592  -61.4727 H         1 UNK         0.0790 
     94 H94        23.0166  -45.5573  -60.1102 H         1 UNK         0.0790 
     95 H95        21.4463  -46.3441  -60.0985 H         1 UNK         0.0790 
     96 H96        24.5815  -48.8719  -60.6810 H         1 UNK         0.3215 
     97 H97        26.7464  -48.7362  -60.9846 H         1 UNK         0.0863 
     98 H98        28.7623  -47.3278  -61.3501 H         1 UNK         0.0808 
     99 H99        28.0348  -45.9973  -60.4496 H         1 UNK         0.0808 
    100 H100       27.3403  -46.5114  -61.9805 H         1 UNK         0.0808 
    101 H101       28.3484  -47.7596  -58.7883 H         1 UNK         0.3118 
    102 H102       27.4568  -48.7447  -56.2907 H         1 UNK         0.0546 
    103 H103       28.0026  -51.6743  -56.9964 H         1 UNK         0.0828 
    104 H104       26.6023  -51.0517  -56.1433 H         1 UNK         0.0828 
    105 H105       28.1861  -50.9667  -55.3925 H         1 UNK         0.0828 
    106 H106       29.6198  -48.3906  -56.4809 H         1 UNK         0.3005 
    107 H107       32.3316  -50.1941  -57.5916 H         1 UNK         0.1257 
    108 H108       32.0450  -49.1109  -59.7691 H         1 UNK         0.0775 
    109 H109       31.4179  -47.6615  -59.0441 H         1 UNK         0.0775 
    110 H110       34.5059  -45.5905  -59.2088 H         1 UNK         0.0840 
    111 H111       32.8760  -45.8476  -59.7581 H         1 UNK         0.0840 
    112 H112       32.1762  -47.5904  -56.4701 H         1 UNK         0.2987 
    113 H113       32.9702  -47.4934  -54.2674 H         1 UNK         0.0785 
    114 H114       31.0918  -46.6375  -52.8466 H         1 UNK         0.0798 
    115 H115       30.0777  -47.9925  -53.3421 H         1 UNK         0.0798 
    116 H116       30.5704  -46.7835  -54.5143 H         1 UNK         0.0798 
    117 H117       31.9137  -48.9187  -52.0102 H         1 UNK         0.3079 
    118 H118       33.0062  -50.7689  -51.0132 H         1 UNK         0.0794 
    119 H119       34.8958  -52.0556  -52.0261 H         1 UNK         0.0786 
    120 H120       35.1743  -51.7749  -50.3142 H         1 UNK         0.0786 
    121 H121       36.0392  -50.8197  -51.5159 H         1 UNK         0.0786 
    122 H122       34.9778  -48.5707  -50.5520 H         1 UNK         0.3032 
    123 H123       33.0784  -47.2940  -47.8950 H         1 UNK         0.1094 
    124 H124       34.6442  -48.7854  -46.6529 H         1 UNK         0.0794 
    125 H125       35.9363  -48.4137  -47.7853 H         1 UNK         0.0794 
    126 H126       35.2805  -47.1519  -46.7410 H         1 UNK         0.0794 
    127 H127       35.4959  -46.5312  -49.3304 H         1 UNK         0.3016 
@<TRIPOS>BOND
     1    1    2 1    
     2    1   67 1    
     3    1   68 1    
     4    1   69 1    
     5    2    3 2    
     6    2    4 am   BACKBONE|DICT|INTERRES
     7    4    5 1    
     8    4   70 1    
     9    5    6 1    
    10    5   65 1    
    11    5   71 1    
    12    6    7 1    
    13    6   72 1    
    14    6   73 1    
    15    7    8 1    
    16    8    9 1    
    17    8   74 1    
    18    8   75 1    
    19    9   10 ar   
    20    9   14 ar   
    21   10   11 ar   
    22   10   76 1    
    23   11   12 ar   
    24   11   48 1    
    25   12   13 ar   
    26   12   77 1    
    27   13   14 ar   
    28   13   15 1    
    29   14   78 1    
    30   15   16 1    
    31   15   79 1    
    32   15   80 1    
    33   16   17 1    
    34   17   18 1    
    35   17   81 1    
    36   17   82 1    
    37   18   19 1    
    38   18   22 1    
    39   18   83 1    
    40   19   20 am   BACKBONE|DICT|INTERRES
    41   19   21 2    
    42   20   84 1    
    43   20   85 1    
    44   22   23 am   BACKBONE|DICT|INTERRES
    45   22   86 1    
    46   23   24 2    
    47   23   25 1    
    48   25   26 1    
    49   25   27 1    
    50   25   87 1    
    51   26   88 1    
    52   26   89 1    
    53   26   90 1    
    54   27   28 am   BACKBONE|DICT|INTERRES
    55   27   91 1    
    56   28   29 2    
    57   28   30 1    
    58   30   31 1    
    59   30   32 1    
    60   30   92 1    
    61   31   93 1    
    62   31   94 1    
    63   31   95 1    
    64   32   33 am   BACKBONE|DICT|INTERRES
    65   32   96 1    
    66   33   34 2    
    67   33   35 1    
    68   35   36 1    
    69   35   37 1    
    70   35   97 1    
    71   36   98 1    
    72   36   99 1    
    73   36  100 1    
    74   37   38 am   BACKBONE|DICT|INTERRES
    75   37  101 1    
    76   38   39 2    
    77   38   40 1    
    78   40   41 1    
    79   40   42 1    
    80   40  102 1    
    81   41  103 1    
    82   41  104 1    
    83   41  105 1    
    84   42   43 am   BACKBONE|DICT|INTERRES
    85   42  106 1    
    86   43   44 2    
    87   43   45 1    
    88   45   46 1    
    89   45   49 1    
    90   45  107 1    
    91   46   47 1    
    92   46  108 1    
    93   46  109 1    
    94   47   48 1    
    95   48  110 1    
    96   48  111 1    
    97   49   50 am   BACKBONE|DICT|INTERRES
    98   49  112 1    
    99   50   51 2    
   100   50   52 1    
   101   52   53 1    
   102   52   54 1    
   103   52  113 1    
   104   53  114 1    
   105   53  115 1    
   106   53  116 1    
   107   54   55 am   BACKBONE|DICT|INTERRES
   108   54  117 1    
   109   55   56 2    
   110   55   57 1    
   111   57   58 1    
   112   57   59 1    
   113   57  118 1    
   114   58  119 1    
   115   58  120 1    
   116   58  121 1    
   117   59   60 am   BACKBONE|DICT|INTERRES
   118   59  122 1    
   119   60   61 2    
   120   60   62 1    
   121   62   63 1    
   122   62   64 1    
   123   62  123 1    
   124   63  124 1    
   125   63  125 1    
   126   63  126 1    
   127   64   65 am   BACKBONE|DICT|INTERRES
   128   64  127 1    
   129   65   66 2    
@<TRIPOS>SUBSTRUCTURE
     1 UNK         1 GROUP             0       ****    0 ROOT    
