@<TRIPOS>MOLECULE
3R134
127   129    1
SMALL
USER_CHARGES


@<TRIPOS>ATOM
      1 CA         29.4432  -45.4240  -50.5807 C.3       0 UNK        -0.1968 
      2 C          30.7893  -45.5080  -51.2853 C.2       0 UNK         0.4852 
      3 O          30.8309  -45.8605  -52.4614 O.2       0 UNK        -0.5359 
      4 N          31.8768  -45.1805  -50.5730 N.am      1 UNK        -0.4300 
      5 CA         33.2731  -45.2527  -51.0255 C.3       1 UNK         0.0863 
      6 C6         33.5970  -44.3543  -52.2585 C.3       11 UNK        -0.0953 
      7 S7         33.1621  -42.6029  -51.9507 S.3       11 UNK        -0.2369 
      8 C8         33.5958  -41.7824  -53.5207 C.3       11 UNK         0.0226 
      9 C9         32.7905  -42.3249  -54.6920 C.ar      11 UNK        -0.0699 
     10 C10        33.3836  -43.2234  -55.5803 C.ar      11 UNK        -0.0804 
     11 C11        32.6299  -43.8122  -56.5968 C.ar      11 UNK        -0.0871 
     12 C12        31.2878  -43.4590  -56.7557 C.ar      11 UNK        -0.1008 
     13 C13        30.6862  -42.5333  -55.8957 C.ar      11 UNK        -0.0735 
     14 C14        31.4473  -41.9703  -54.8636 C.ar      11 UNK        -0.0945 
     15 C15        29.2012  -42.1957  -56.0142 C.3       11 UNK         0.0169 
     16 S16        28.5999  -42.1088  -57.7365 S.3       11 UNK        -0.2669 
     17 C17        26.8467  -41.6675  -57.4781 C.3       11 UNK        -0.0850 
     18 CA         25.8310  -42.7711  -57.8831 C.3       10 UNK         0.0855 
     19 C          25.7293  -42.9948  -59.4221 C.2       10 UNK         0.5543 
     20 N          25.6219  -44.2235  -59.9150 N.am      10 UNK        -0.7343 
     21 O          25.7226  -42.0333  -60.1872 O.2       10 UNK        -0.5027 
     22 N          26.0193  -44.0085  -57.1058 N.am      10 UNK        -0.4495 
     23 C          25.0235  -44.7427  -56.5960 C.2       10 UNK         0.4903 
     24 O          23.8355  -44.4190  -56.6560 O.2       10 UNK        -0.4860 
     25 CA         25.4275  -46.0673  -55.9182 C.3       9 UNK         0.0227 
     26 CB         24.2056  -46.8862  -55.4508 C.3       9 UNK        -0.1964 
     27 N          26.3066  -46.9114  -56.7381 N.am      9 UNK        -0.4231 
     28 C          26.0919  -47.3523  -57.9877 C.2       9 UNK         0.5014 
     29 O          25.1629  -46.9785  -58.7047 O.2       9 UNK        -0.5270 
     30 CA         27.0776  -48.4028  -58.5312 C.3       8 UNK         0.0284 
     31 CB         28.3281  -47.7255  -59.1158 C.3       8 UNK        -0.1977 
     32 N          27.4673  -49.4009  -57.5274 N.am      8 UNK        -0.4342 
     33 C          26.6352  -50.3039  -56.9841 C.2       8 UNK         0.5039 
     34 O          25.4585  -50.4400  -57.3216 O.2       8 UNK        -0.5547 
     35 CA         27.1992  -51.2030  -55.8681 C.3       7 UNK         0.0281 
     36 CB         27.9601  -52.4037  -56.4532 C.3       7 UNK        -0.1963 
     37 N          28.0618  -50.4672  -54.9416 N.am      7 UNK        -0.4444 
     38 C          27.6191  -49.5602  -54.0580 C.2       7 UNK         0.5104 
     39 O          26.4282  -49.3348  -53.8454 O.2       7 UNK        -0.5100 
     40 CA         28.6809  -48.7404  -53.3051 C.3       6 UNK         0.0396 
     41 CB         29.0963  -49.4423  -52.0034 C.3       6 UNK        -0.1801 
     42 N          29.8691  -48.4728  -54.1153 N.am      6 UNK        -0.4747 
     43 C          29.8886  -47.7332  -55.2324 C.2       6 UNK         0.5012 
     44 O          28.8994  -47.1604  -55.6891 O.2       6 UNK        -0.5003 
     45 CA         31.2171  -47.6833  -56.0100 C.3       5 UNK         0.0782 
     46 C46        32.1726  -46.6365  -55.4077 C.3       11 UNK        -0.0868 
     47 S47        33.6670  -46.3783  -56.4318 S.3       11 UNK        -0.2515 
     48 C48        33.2288  -44.9230  -57.4435 C.3       11 UNK         0.0199 
     49 N          31.8398  -49.0047  -56.0818 N.am      5 UNK        -0.4607 
     50 C          31.3568  -50.0421  -56.7722 C.2       4 UNK         0.5031 
     51 O          30.3400  -49.9865  -57.4625 O.2       4 UNK        -0.5119 
     52 CA         32.1208  -51.3700  -56.6381 C.3       4 UNK         0.0263 
     53 CB         33.2517  -51.4465  -57.6757 C.3       4 UNK        -0.1967 
     54 N          32.6732  -51.5660  -55.2931 N.am      4 UNK        -0.4237 
     55 C          31.9268  -51.7842  -54.2005 C.2       3 UNK         0.4908 
     56 O          30.7007  -51.8974  -54.2234 O.2       3 UNK        -0.5102 
     57 CA         32.6698  -51.8428  -52.8520 C.3       3 UNK         0.0241 
     58 CB         33.2853  -53.2341  -52.6315 C.3       3 UNK        -0.1971 
     59 N          33.7051  -50.8102  -52.6925 N.am      3 UNK        -0.4139 
     60 C          33.4676  -49.4911  -52.7314 C.2       2 UNK         0.5016 
     61 O          32.3540  -49.0199  -52.9558 O.2       2 UNK        -0.5319 
     62 CA         34.6743  -48.5508  -52.5363 C.3       2 UNK         0.0286 
     63 CB         35.5855  -48.5789  -53.7750 C.3       2 UNK        -0.1963 
     64 N          34.2702  -47.1602  -52.2785 N.am      2 UNK        -0.4790 
     65 C          33.7068  -46.7346  -51.1379 C.2       1 UNK         0.5024 
     66 O          33.5493  -47.4663  -50.1568 O.2       1 UNK        -0.4888 
     67 H67        28.9533  -46.3973  -50.5950 H         1 UNK         0.0892 
     68 H68        29.5432  -45.1085  -49.5423 H         1 UNK         0.0892 
     69 H69        28.7981  -44.7106  -51.0926 H         1 UNK         0.0892 
     70 H70        31.7626  -44.9190  -49.6042 H         1 UNK         0.3107 
     71 H71        33.8622  -44.8593  -50.1955 H         1 UNK         0.0773 
     72 H72        33.0624  -44.7010  -53.1433 H         1 UNK         0.0680 
     73 H73        34.6611  -44.3967  -52.4967 H         1 UNK         0.0680 
     74 H74        34.6663  -41.8956  -53.6992 H         1 UNK         0.0650 
     75 H75        33.4135  -40.7115  -53.4212 H         1 UNK         0.0650 
     76 H76        34.4137  -43.5214  -55.4392 H         1 UNK         0.1397 
     77 H77        30.6989  -43.9413  -57.5234 H         1 UNK         0.1363 
     78 H78        30.9870  -41.2828  -54.1670 H         1 UNK         0.1355 
     79 H79        28.9982  -41.2393  -55.5294 H         1 UNK         0.0707 
     80 H80        28.6294  -42.9513  -55.4736 H         1 UNK         0.0707 
     81 H81        26.6897  -41.4075  -56.4303 H         1 UNK         0.1034 
     82 H82        26.6445  -40.7465  -58.0281 H         1 UNK         0.1034 
     83 H83        24.8541  -42.3592  -57.6233 H         1 UNK         0.0482 
     84 H84        25.5484  -44.3438  -60.9125 H         1 UNK         0.3460 
     85 H85        25.5461  -45.0297  -59.3065 H         1 UNK         0.3460 
     86 H86        26.9661  -44.3550  -57.0496 H         1 UNK         0.2989 
     87 H87        26.0039  -45.7979  -55.0320 H         1 UNK         0.0559 
     88 H88        23.5703  -47.1756  -56.2888 H         1 UNK         0.0848 
     89 H89        23.5904  -46.3136  -54.7556 H         1 UNK         0.0848 
     90 H90        24.5109  -47.7967  -54.9361 H         1 UNK         0.0848 
     91 H91        27.1758  -47.1971  -56.2880 H         1 UNK         0.3144 
     92 H92        26.5752  -48.9348  -59.3419 H         1 UNK         0.0727 
     93 H93        29.0112  -48.4577  -59.5471 H         1 UNK         0.0790 
     94 H94        28.8756  -47.1600  -58.3625 H         1 UNK         0.0790 
     95 H95        28.0563  -47.0283  -59.9096 H         1 UNK         0.0790 
     96 H96        28.4457  -49.4188  -57.2547 H         1 UNK         0.3215 
     97 H97        26.3520  -51.5912  -55.2983 H         1 UNK         0.0863 
     98 H98        28.3302  -53.0605  -55.6655 H         1 UNK         0.0808 
     99 H99        28.8125  -52.0935  -57.0566 H         1 UNK         0.0808 
    100 H100       27.3092  -52.9996  -57.0942 H         1 UNK         0.0808 
    101 H101       29.0587  -50.6422  -54.9923 H         1 UNK         0.3118 
    102 H102       28.2372  -47.7768  -53.0458 H         1 UNK         0.0546 
    103 H103       29.5539  -50.4128  -52.1972 H         1 UNK         0.0828 
    104 H104       28.2341  -49.6086  -51.3567 H         1 UNK         0.0828 
    105 H105       29.8142  -48.8419  -51.4438 H         1 UNK         0.0828 
    106 H106       30.7571  -48.8253  -53.7575 H         1 UNK         0.3005 
    107 H107       30.9756  -47.3728  -57.0287 H         1 UNK         0.1257 
    108 H108       32.5021  -46.9503  -54.4192 H         1 UNK         0.0775 
    109 H109       31.6465  -45.7002  -55.2294 H         1 UNK         0.0775 
    110 H110       34.1221  -44.5547  -57.9498 H         1 UNK         0.0840 
    111 H111       32.5357  -45.2341  -58.2267 H         1 UNK         0.0840 
    112 H112       32.6564  -49.1394  -55.5061 H         1 UNK         0.2987 
    113 H113       31.4159  -52.1797  -56.8389 H         1 UNK         0.0785 
    114 H114       32.8601  -51.3241  -58.6867 H         1 UNK         0.0798 
    115 H115       33.7576  -52.4116  -57.6411 H         1 UNK         0.0798 
    116 H116       33.9996  -50.6679  -57.5199 H         1 UNK         0.0798 
    117 H117       33.6749  -51.4955  -55.1894 H         1 UNK         0.3079 
    118 H118       31.9257  -51.6763  -52.0699 H         1 UNK         0.0794 
    119 H119       33.7120  -53.3253  -51.6324 H         1 UNK         0.0786 
    120 H120       34.0729  -53.4497  -53.3545 H         1 UNK         0.0786 
    121 H121       32.5295  -54.0148  -52.7303 H         1 UNK         0.0786 
    122 H122       34.6450  -51.1337  -52.5128 H         1 UNK         0.3032 
    123 H123       35.2421  -48.9067  -51.6735 H         1 UNK         0.1094 
    124 H124       35.0509  -48.2843  -54.6776 H         1 UNK         0.0794 
    125 H125       36.4374  -47.9088  -53.6571 H         1 UNK         0.0794 
    126 H126       35.9879  -49.5776  -53.9488 H         1 UNK         0.0794 
    127 H127       34.3339  -46.5191  -53.0550 H         1 UNK         0.3016 
@<TRIPOS>BOND
     1    1    2 1    
     2    1   67 1    
     3    1   68 1    
     4    1   69 1    
     5    2    3 2    
     6    2    4 am   BACKBONE|DICT|INTERRES
     7    4    5 1    
     8    4   70 1    
     9    5    6 1    
    10    5   65 1    
    11    5   71 1    
    12    6    7 1    
    13    6   72 1    
    14    6   73 1    
    15    7    8 1    
    16    8    9 1    
    17    8   74 1    
    18    8   75 1    
    19    9   10 ar   
    20    9   14 ar   
    21   10   11 ar   
    22   10   76 1    
    23   11   12 ar   
    24   11   48 1    
    25   12   13 ar   
    26   12   77 1    
    27   13   14 ar   
    28   13   15 1    
    29   14   78 1    
    30   15   16 1    
    31   15   79 1    
    32   15   80 1    
    33   16   17 1    
    34   17   18 1    
    35   17   81 1    
    36   17   82 1    
    37   18   19 1    
    38   18   22 1    
    39   18   83 1    
    40   19   20 am   BACKBONE|DICT|INTERRES
    41   19   21 2    
    42   20   84 1    
    43   20   85 1    
    44   22   23 am   BACKBONE|DICT|INTERRES
    45   22   86 1    
    46   23   24 2    
    47   23   25 1    
    48   25   26 1    
    49   25   27 1    
    50   25   87 1    
    51   26   88 1    
    52   26   89 1    
    53   26   90 1    
    54   27   28 am   BACKBONE|DICT|INTERRES
    55   27   91 1    
    56   28   29 2    
    57   28   30 1    
    58   30   31 1    
    59   30   32 1    
    60   30   92 1    
    61   31   93 1    
    62   31   94 1    
    63   31   95 1    
    64   32   33 am   BACKBONE|DICT|INTERRES
    65   32   96 1    
    66   33   34 2    
    67   33   35 1    
    68   35   36 1    
    69   35   37 1    
    70   35   97 1    
    71   36   98 1    
    72   36   99 1    
    73   36  100 1    
    74   37   38 am   BACKBONE|DICT|INTERRES
    75   37  101 1    
    76   38   39 2    
    77   38   40 1    
    78   40   41 1    
    79   40   42 1    
    80   40  102 1    
    81   41  103 1    
    82   41  104 1    
    83   41  105 1    
    84   42   43 am   BACKBONE|DICT|INTERRES
    85   42  106 1    
    86   43   44 2    
    87   43   45 1    
    88   45   46 1    
    89   45   49 1    
    90   45  107 1    
    91   46   47 1    
    92   46  108 1    
    93   46  109 1    
    94   47   48 1    
    95   48  110 1    
    96   48  111 1    
    97   49   50 am   BACKBONE|DICT|INTERRES
    98   49  112 1    
    99   50   51 2    
   100   50   52 1    
   101   52   53 1    
   102   52   54 1    
   103   52  113 1    
   104   53  114 1    
   105   53  115 1    
   106   53  116 1    
   107   54   55 am   BACKBONE|DICT|INTERRES
   108   54  117 1    
   109   55   56 2    
   110   55   57 1    
   111   57   58 1    
   112   57   59 1    
   113   57  118 1    
   114   58  119 1    
   115   58  120 1    
   116   58  121 1    
   117   59   60 am   BACKBONE|DICT|INTERRES
   118   59  122 1    
   119   60   61 2    
   120   60   62 1    
   121   62   63 1    
   122   62   64 1    
   123   62  123 1    
   124   63  124 1    
   125   63  125 1    
   126   63  126 1    
   127   64   65 am   BACKBONE|DICT|INTERRES
   128   64  127 1    
   129   65   66 2    
@<TRIPOS>SUBSTRUCTURE
     1 UNK         1 GROUP             0       ****    0 ROOT    
