@<TRIPOS>MOLECULE
3R134
127   129    1
SMALL
USER_CHARGES


@<TRIPOS>ATOM
      1 CA         35.9071  -46.0815  -51.9383 C.3       0 UNK        -0.1968 
      2 C          35.0637  -46.2138  -53.1972 C.2       0 UNK         0.4852 
      3 O          33.8884  -46.5674  -53.1053 O.2       0 UNK        -0.5359 
      4 N          35.6591  -45.9400  -54.3676 N.am      1 UNK        -0.4300 
      5 CA         35.0764  -45.9695  -55.7220 C.3       1 UNK         0.0863 
      6 C6         33.8613  -45.0220  -55.9145 C.3       11 UNK        -0.0953 
      7 S7         34.3419  -43.2710  -55.7498 S.3       11 UNK        -0.2369 
      8 C8         33.6556  -42.8272  -54.1170 C.3       11 UNK         0.0226 
      9 C9         32.1349  -42.6854  -54.0725 C.ar      11 UNK        -0.0699 
     10 C10        31.4538  -43.0004  -52.8918 C.ar      11 UNK        -0.0804 
     11 C11        30.0713  -42.8136  -52.7902 C.ar      11 UNK        -0.0871 
     12 C12        29.3632  -42.3149  -53.8873 C.ar      11 UNK        -0.1008 
     13 C13        30.0286  -41.9980  -55.0751 C.ar      11 UNK        -0.0735 
     14 C14        31.4112  -42.1820  -55.1601 C.ar      11 UNK        -0.0945 
     15 C15        29.2667  -41.4255  -56.2609 C.3       11 UNK         0.0169 
     16 S16        28.5949  -42.7424  -57.3187 S.3       11 UNK        -0.2669 
     17 C17        27.1224  -43.2450  -56.3597 C.3       11 UNK        -0.0850 
     18 CA         25.9690  -43.7961  -57.2351 C.3       10 UNK         0.0855 
     19 C          25.2955  -42.6906  -58.1016 C.2       10 UNK         0.5543 
     20 N          25.2926  -42.7905  -59.4255 N.am      10 UNK        -0.7343 
     21 O          24.7529  -41.7317  -57.5577 O.2       10 UNK        -0.5027 
     22 N          26.3888  -45.0023  -57.9612 N.am      10 UNK        -0.4495 
     23 C          25.5703  -45.9471  -58.4331 C.2       10 UNK         0.4903 
     24 O          24.3439  -45.8986  -58.3345 O.2       10 UNK        -0.4860 
     25 CA         26.2115  -47.1699  -59.1103 C.3       9 UNK         0.0227 
     26 CB         26.3285  -46.9743  -60.6348 C.3       9 UNK        -0.1964 
     27 N          27.4793  -47.6023  -58.5040 N.am      9 UNK        -0.4231 
     28 C          28.6953  -47.0346  -58.5579 C.2       9 UNK         0.5014 
     29 O          28.9257  -45.9942  -59.1744 O.2       9 UNK        -0.5270 
     30 CA         29.8476  -47.7074  -57.7763 C.3       8 UNK         0.0284 
     31 CB         30.5777  -46.6887  -56.8802 C.3       8 UNK        -0.1977 
     32 N          29.4126  -48.8380  -56.9511 N.am      8 UNK        -0.4342 
     33 C          29.1163  -50.0659  -57.3995 C.2       8 UNK         0.5039 
     34 O          29.2823  -50.4299  -58.5631 O.2       8 UNK        -0.5547 
     35 CA         28.4549  -51.0240  -56.3931 C.3       7 UNK         0.0281 
     36 CB         29.5028  -51.9020  -55.6892 C.3       7 UNK        -0.1963 
     37 N          27.6447  -50.3086  -55.3991 N.am      7 UNK        -0.4444 
     38 C          26.4787  -49.7023  -55.6719 C.2       7 UNK         0.5104 
     39 O          25.9424  -49.7292  -56.7791 O.2       7 UNK        -0.5100 
     40 CA         25.8198  -48.8995  -54.5360 C.3       6 UNK         0.0396 
     41 CB         24.9536  -49.8176  -53.6598 C.3       6 UNK        -0.1801 
     42 N          26.7937  -48.1972  -53.6965 N.am      6 UNK        -0.4747 
     43 C          27.5342  -47.1509  -54.0967 C.2       6 UNK         0.5012 
     44 O          27.4227  -46.6230  -55.2010 O.2       6 UNK        -0.5003 
     45 CA         28.6157  -46.6456  -53.1157 C.3       5 UNK         0.0782 
     46 C46        28.0568  -45.5037  -52.2325 C.3       11 UNK        -0.0868 
     47 S47        29.3005  -44.8608  -51.0604 S.3       11 UNK        -0.2515 
     48 C48        29.3562  -43.0893  -51.4742 C.3       11 UNK         0.0199 
     49 N          29.1925  -47.7372  -52.3157 N.am      5 UNK        -0.4607 
     50 C          29.8587  -48.7795  -52.8235 C.2       4 UNK         0.5031 
     51 O          30.0522  -48.9418  -54.0320 O.2       4 UNK        -0.5119 
     52 CA         30.3181  -49.8534  -51.8315 C.3       4 UNK         0.0263 
     53 CB         29.1212  -50.6996  -51.3530 C.3       4 UNK        -0.1967 
     54 N          31.2886  -50.6940  -52.5196 N.am      4 UNK        -0.4237 
     55 C          32.1314  -51.5790  -51.9764 C.2       3 UNK         0.4908 
     56 O          32.1789  -51.8344  -50.7725 O.2       3 UNK        -0.5102 
     57 CA         33.0884  -52.3082  -52.9421 C.3       3 UNK         0.0241 
     58 CB         32.5363  -53.7009  -53.2891 C.3       3 UNK        -0.1971 
     59 N          33.3415  -51.5691  -54.1856 N.am      3 UNK        -0.4139 
     60 C          34.0114  -50.4103  -54.2551 C.2       2 UNK         0.5016 
     61 O          34.5721  -49.8938  -53.2850 O.2       2 UNK        -0.5319 
     62 CA         34.0435  -49.6992  -55.6184 C.3       2 UNK         0.0286 
     63 CB         32.7520  -49.8920  -56.4415 C.3       2 UNK        -0.1963 
     64 N          34.2802  -48.2787  -55.3788 N.am      2 UNK        -0.4790 
     65 C          34.7782  -47.3930  -56.2439 C.2       1 UNK         0.5024 
     66 O          35.0388  -47.6680  -57.4160 O.2       1 UNK        -0.4888 
     67 H67        35.4528  -45.3620  -51.2578 H         1 UNK         0.0892 
     68 H68        35.9681  -47.0426  -51.4282 H         1 UNK         0.0892 
     69 H69        36.9211  -45.7479  -52.1576 H         1 UNK         0.0892 
     70 H70        36.6363  -45.6828  -54.3510 H         1 UNK         0.3107 
     71 H71        35.8725  -45.5985  -56.3701 H         1 UNK         0.0773 
     72 H72        33.4425  -45.1386  -56.9157 H         1 UNK         0.0680 
     73 H73        33.0512  -45.2593  -55.2233 H         1 UNK         0.0680 
     74 H74        34.0908  -41.8741  -53.8151 H         1 UNK         0.0650 
     75 H75        33.9898  -43.5601  -53.3832 H         1 UNK         0.0650 
     76 H76        32.0029  -43.3728  -52.0374 H         1 UNK         0.1397 
     77 H77        28.2968  -42.1546  -53.8117 H         1 UNK         0.1363 
     78 H78        31.9233  -41.9161  -56.0742 H         1 UNK         0.1355 
     79 H79        28.4660  -40.7667  -55.9216 H         1 UNK         0.0707 
     80 H80        29.9307  -40.8031  -56.8628 H         1 UNK         0.0707 
     81 H81        27.4334  -44.0037  -55.6405 H         1 UNK         0.1034 
     82 H82        26.7638  -42.4053  -55.7623 H         1 UNK         0.1034 
     83 H83        25.1904  -44.1164  -56.5400 H         1 UNK         0.0482 
     84 H84        25.7409  -43.5730  -59.8737 H         1 UNK         0.3460 
     85 H85        24.8497  -42.0731  -59.9774 H         1 UNK         0.3460 
     86 H86        27.3836  -45.0988  -58.1329 H         1 UNK         0.2989 
     87 H87        25.5253  -48.0023  -58.9474 H         1 UNK         0.0559 
     88 H88        25.3488  -46.7882  -61.0765 H         1 UNK         0.0848 
     89 H89        26.7385  -47.8609  -61.1183 H         1 UNK         0.0848 
     90 H90        26.9628  -46.1264  -60.8939 H         1 UNK         0.0848 
     91 H91        27.3889  -48.4249  -57.9214 H         1 UNK         0.3144 
     92 H92        30.5613  -48.0783  -58.5147 H         1 UNK         0.0727 
     93 H93        29.8988  -46.2144  -56.1719 H         1 UNK         0.0790 
     94 H94        31.0233  -45.8921  -57.4773 H         1 UNK         0.0790 
     95 H95        31.3831  -47.1547  -56.3125 H         1 UNK         0.0790 
     96 H96        29.3048  -48.6573  -55.9586 H         1 UNK         0.3215 
     97 H97        27.7906  -51.6828  -56.9572 H         1 UNK         0.0863 
     98 H98        29.0348  -52.6056  -55.0005 H         1 UNK         0.0808 
     99 H99        30.2207  -51.3091  -55.1267 H         1 UNK         0.0808 
    100 H100       30.0667  -52.4880  -56.4161 H         1 UNK         0.0808 
    101 H101       28.0467  -50.1923  -54.4808 H         1 UNK         0.3118 
    102 H102       25.1674  -48.1524  -54.9938 H         1 UNK         0.0546 
    103 H103       25.5492  -50.5785  -53.1538 H         1 UNK         0.0828 
    104 H104       24.2055  -50.3366  -54.2609 H         1 UNK         0.0828 
    105 H105       24.4170  -49.2499  -52.8994 H         1 UNK         0.0828 
    106 H106       26.9428  -48.5587  -52.7656 H         1 UNK         0.3005 
    107 H107       29.4240  -46.2325  -53.7242 H         1 UNK         0.1257 
    108 H108       27.1981  -45.8488  -51.6533 H         1 UNK         0.0775 
    109 H109       27.6923  -44.6868  -52.8582 H         1 UNK         0.0775 
    110 H110       28.3416  -42.6876  -51.4844 H         1 UNK         0.0840 
    111 H111       29.8786  -42.5627  -50.6742 H         1 UNK         0.0840 
    112 H112       29.0833  -47.6573  -51.3149 H         1 UNK         0.2987 
    113 H113       30.8034  -49.3669  -50.9830 H         1 UNK         0.0785 
    114 H114       28.3718  -50.0828  -50.8559 H         1 UNK         0.0798 
    115 H115       29.4316  -51.4593  -50.6356 H         1 UNK         0.0798 
    116 H116       28.6303  -51.2095  -52.1829 H         1 UNK         0.0798 
    117 H117       31.3454  -50.4981  -53.5108 H         1 UNK         0.3079 
    118 H118       34.0413  -52.4351  -52.4237 H         1 UNK         0.0794 
    119 H119       33.2348  -54.2624  -53.9098 H         1 UNK         0.0786 
    120 H120       31.5862  -53.6388  -53.8216 H         1 UNK         0.0786 
    121 H121       32.3650  -54.2884  -52.3858 H         1 UNK         0.0786 
    122 H122       32.9365  -51.9472  -55.0294 H         1 UNK         0.3032 
    123 H123       34.8897  -50.1069  -56.1757 H         1 UNK         0.1094 
    124 H124       31.8767  -49.5724  -55.8781 H         1 UNK         0.0794 
    125 H125       32.7749  -49.3144  -57.3656 H         1 UNK         0.0794 
    126 H126       32.6044  -50.9328  -56.7302 H         1 UNK         0.0794 
    127 H127       34.1211  -47.9692  -54.4209 H         1 UNK         0.3016 
@<TRIPOS>BOND
     1    1    2 1    
     2    1   67 1    
     3    1   68 1    
     4    1   69 1    
     5    2    3 2    
     6    2    4 am   BACKBONE|DICT|INTERRES
     7    4    5 1    
     8    4   70 1    
     9    5    6 1    
    10    5   65 1    
    11    5   71 1    
    12    6    7 1    
    13    6   72 1    
    14    6   73 1    
    15    7    8 1    
    16    8    9 1    
    17    8   74 1    
    18    8   75 1    
    19    9   10 ar   
    20    9   14 ar   
    21   10   11 ar   
    22   10   76 1    
    23   11   12 ar   
    24   11   48 1    
    25   12   13 ar   
    26   12   77 1    
    27   13   14 ar   
    28   13   15 1    
    29   14   78 1    
    30   15   16 1    
    31   15   79 1    
    32   15   80 1    
    33   16   17 1    
    34   17   18 1    
    35   17   81 1    
    36   17   82 1    
    37   18   19 1    
    38   18   22 1    
    39   18   83 1    
    40   19   20 am   BACKBONE|DICT|INTERRES
    41   19   21 2    
    42   20   84 1    
    43   20   85 1    
    44   22   23 am   BACKBONE|DICT|INTERRES
    45   22   86 1    
    46   23   24 2    
    47   23   25 1    
    48   25   26 1    
    49   25   27 1    
    50   25   87 1    
    51   26   88 1    
    52   26   89 1    
    53   26   90 1    
    54   27   28 am   BACKBONE|DICT|INTERRES
    55   27   91 1    
    56   28   29 2    
    57   28   30 1    
    58   30   31 1    
    59   30   32 1    
    60   30   92 1    
    61   31   93 1    
    62   31   94 1    
    63   31   95 1    
    64   32   33 am   BACKBONE|DICT|INTERRES
    65   32   96 1    
    66   33   34 2    
    67   33   35 1    
    68   35   36 1    
    69   35   37 1    
    70   35   97 1    
    71   36   98 1    
    72   36   99 1    
    73   36  100 1    
    74   37   38 am   BACKBONE|DICT|INTERRES
    75   37  101 1    
    76   38   39 2    
    77   38   40 1    
    78   40   41 1    
    79   40   42 1    
    80   40  102 1    
    81   41  103 1    
    82   41  104 1    
    83   41  105 1    
    84   42   43 am   BACKBONE|DICT|INTERRES
    85   42  106 1    
    86   43   44 2    
    87   43   45 1    
    88   45   46 1    
    89   45   49 1    
    90   45  107 1    
    91   46   47 1    
    92   46  108 1    
    93   46  109 1    
    94   47   48 1    
    95   48  110 1    
    96   48  111 1    
    97   49   50 am   BACKBONE|DICT|INTERRES
    98   49  112 1    
    99   50   51 2    
   100   50   52 1    
   101   52   53 1    
   102   52   54 1    
   103   52  113 1    
   104   53  114 1    
   105   53  115 1    
   106   53  116 1    
   107   54   55 am   BACKBONE|DICT|INTERRES
   108   54  117 1    
   109   55   56 2    
   110   55   57 1    
   111   57   58 1    
   112   57   59 1    
   113   57  118 1    
   114   58  119 1    
   115   58  120 1    
   116   58  121 1    
   117   59   60 am   BACKBONE|DICT|INTERRES
   118   59  122 1    
   119   60   61 2    
   120   60   62 1    
   121   62   63 1    
   122   62   64 1    
   123   62  123 1    
   124   63  124 1    
   125   63  125 1    
   126   63  126 1    
   127   64   65 am   BACKBONE|DICT|INTERRES
   128   64  127 1    
   129   65   66 2    
@<TRIPOS>SUBSTRUCTURE
     1 UNK         1 GROUP             0       ****    0 ROOT    
