@<TRIPOS>MOLECULE
3R134
127   129    1
SMALL
USER_CHARGES


@<TRIPOS>ATOM
      1 CA         36.4580  -47.3642  -54.2469 C.3       0 UNK        -0.1968 
      2 C          35.2244  -46.5882  -53.8148 C.2       0 UNK         0.4852 
      3 O          34.1314  -47.1569  -53.7557 O.2       0 UNK        -0.5359 
      4 N          35.3908  -45.2983  -53.4870 N.am      1 UNK        -0.4300 
      5 CA         34.3094  -44.3550  -53.1604 C.3       1 UNK         0.0863 
      6 C6         34.6929  -42.8740  -53.4244 C.3       11 UNK        -0.0953 
      7 S7         35.2994  -42.5872  -55.1259 S.3       11 UNK        -0.2369 
      8 C8         33.7652  -42.1909  -56.0351 C.3       11 UNK         0.0226 
      9 C9         32.7723  -43.3442  -55.9977 C.ar      11 UNK        -0.0699 
     10 C10        33.0712  -44.5510  -56.6392 C.ar      11 UNK        -0.0804 
     11 C11        32.2231  -45.6565  -56.5158 C.ar      11 UNK        -0.0871 
     12 C12        31.0520  -45.5315  -55.7585 C.ar      11 UNK        -0.1008 
     13 C13        30.7317  -44.3265  -55.1281 C.ar      11 UNK        -0.0735 
     14 C14        31.5917  -43.2329  -55.2569 C.ar      11 UNK        -0.0945 
     15 C15        29.4827  -44.2179  -54.2685 C.3       11 UNK         0.0169 
     16 S16        28.1312  -43.4020  -55.1660 S.3       11 UNK        -0.2669 
     17 C17        26.8516  -43.3258  -53.8613 C.3       11 UNK        -0.0850 
     18 CA         25.4192  -43.6268  -54.3743 C.3       10 UNK         0.0855 
     19 C          24.8530  -42.4582  -55.2373 C.2       10 UNK         0.5543 
     20 N          24.6018  -42.6379  -56.5292 N.am      10 UNK        -0.7343 
     21 O          24.6251  -41.3696  -54.7151 O.2       10 UNK        -0.5027 
     22 N          25.3372  -44.9557  -54.9976 N.am      10 UNK        -0.4495 
     23 C          24.2009  -45.6258  -55.2267 C.2       10 UNK         0.4903 
     24 O          23.1053  -45.2707  -54.7887 O.2       10 UNK        -0.4860 
     25 CA         24.2981  -46.9034  -56.0894 C.3       9 UNK         0.0227 
     26 CB         23.0126  -47.1512  -56.9059 C.3       9 UNK        -0.1964 
     27 N          25.4725  -46.9706  -56.9726 N.am      9 UNK        -0.4231 
     28 C          25.8423  -46.0858  -57.9157 C.2       9 UNK         0.5014 
     29 O          25.2563  -45.0231  -58.1277 O.2       9 UNK        -0.5270 
     30 CA         27.0889  -46.4269  -58.7548 C.3       8 UNK         0.0284 
     31 CB         28.3277  -45.7317  -58.1698 C.3       8 UNK        -0.1977 
     32 N          27.3458  -47.8660  -58.8597 N.am      8 UNK        -0.4342 
     33 C          26.5570  -48.7322  -59.5112 C.2       8 UNK         0.5039 
     34 O          25.5787  -48.3946  -60.1792 O.2       8 UNK        -0.5547 
     35 CA         26.8956  -50.2290  -59.3926 C.3       7 UNK         0.0281 
     36 CB         27.6594  -50.7025  -60.6400 C.3       7 UNK        -0.1963 
     37 N          27.6588  -50.6102  -58.1990 N.am      7 UNK        -0.4444 
     38 C          27.3123  -50.4248  -56.9189 C.2       7 UNK         0.5104 
     39 O          26.3166  -49.7925  -56.5661 O.2       7 UNK        -0.5100 
     40 CA         28.2428  -51.0212  -55.8443 C.3       6 UNK         0.0396 
     41 CB         27.9376  -52.5134  -55.6177 C.3       6 UNK        -0.1801 
     42 N          29.6782  -50.7969  -56.0724 N.am      6 UNK        -0.4747 
     43 C          30.4690  -51.2392  -57.0648 C.2       6 UNK         0.5012 
     44 O          30.0819  -51.9717  -57.9763 O.2       6 UNK        -0.5003 
     45 CA         31.9319  -50.7475  -57.0659 C.3       5 UNK         0.0782 
     46 C46        32.1406  -49.5955  -58.0842 C.3       11 UNK        -0.0868 
     47 S47        31.2577  -48.0490  -57.6651 S.3       11 UNK        -0.2515 
     48 C48        32.6447  -46.9881  -57.1349 C.3       11 UNK         0.0199 
     49 N          32.4055  -50.3899  -55.7243 N.am      5 UNK        -0.4607 
     50 C          32.7142  -51.2749  -54.7661 C.2       4 UNK         0.5031 
     51 O          32.6966  -52.4947  -54.9311 O.2       4 UNK        -0.5119 
     52 CA         33.1013  -50.7066  -53.3903 C.3       4 UNK         0.0263 
     53 CB         34.6277  -50.5745  -53.2768 C.3       4 UNK        -0.1967 
     54 N          32.4800  -49.4087  -53.1119 N.am      4 UNK        -0.4237 
     55 C          31.1777  -49.2334  -52.8412 C.2       3 UNK         0.4908 
     56 O          30.3584  -50.1525  -52.8088 O.2       3 UNK        -0.5102 
     57 CA         30.7191  -47.7857  -52.6007 C.3       3 UNK         0.0241 
     58 CB         29.2926  -47.6712  -52.0209 C.3       3 UNK        -0.1971 
     59 N          31.6977  -47.0200  -51.8237 N.am      3 UNK        -0.4139 
     60 C          32.0172  -47.1330  -50.5238 C.2       2 UNK         0.5016 
     61 O          31.4427  -47.8874  -49.7381 O.2       2 UNK        -0.5319 
     62 CA         33.2008  -46.2750  -50.0142 C.3       2 UNK         0.0286 
     63 CB         34.1573  -47.1043  -49.1384 C.3       2 UNK        -0.1963 
     64 N          33.9716  -45.6866  -51.1142 N.am      2 UNK        -0.4790 
     65 C          33.6536  -44.5666  -51.7764 C.2       1 UNK         0.5024 
     66 O          32.8089  -43.7673  -51.3730 O.2       1 UNK        -0.4888 
     67 H67        37.3206  -46.7126  -54.3843 H         1 UNK         0.0892 
     68 H68        36.7122  -48.1132  -53.4978 H         1 UNK         0.0892 
     69 H69        36.2665  -47.8736  -55.1909 H         1 UNK         0.0892 
     70 H70        36.3139  -44.8908  -53.5376 H         1 UNK         0.3107 
     71 H71        33.4995  -44.6012  -53.8427 H         1 UNK         0.0773 
     72 H72        33.8425  -42.2122  -53.2494 H         1 UNK         0.0680 
     73 H73        35.4717  -42.5579  -52.7285 H         1 UNK         0.0680 
     74 H74        34.0159  -41.9661  -57.0726 H         1 UNK         0.0650 
     75 H75        33.3266  -41.2824  -55.6195 H         1 UNK         0.0650 
     76 H76        33.9969  -44.6413  -57.1912 H         1 UNK         0.1397 
     77 H77        30.3919  -46.3779  -55.6422 H         1 UNK         0.1363 
     78 H78        31.3572  -42.3075  -54.7486 H         1 UNK         0.1355 
     79 H79        29.7105  -43.6559  -53.3611 H         1 UNK         0.0707 
     80 H80        29.1540  -45.2069  -53.9469 H         1 UNK         0.0707 
     81 H81        27.0994  -44.0379  -53.0726 H         1 UNK         0.1034 
     82 H82        26.8943  -42.3437  -53.3862 H         1 UNK         0.1034 
     83 H83        24.7783  -43.6612  -53.4910 H         1 UNK         0.0482 
     84 H84        24.8078  -43.5233  -56.9830 H         1 UNK         0.3460 
     85 H85        24.2311  -41.8735  -57.0701 H         1 UNK         0.3460 
     86 H86        26.1909  -45.2965  -55.4133 H         1 UNK         0.2989 
     87 H87        24.4068  -47.7309  -55.3869 H         1 UNK         0.0559 
     88 H88        22.1432  -47.2522  -56.2551 H         1 UNK         0.0848 
     89 H89        22.8102  -46.3310  -57.5957 H         1 UNK         0.0848 
     90 H90        23.0851  -48.0691  -57.4895 H         1 UNK         0.0848 
     91 H91        26.0057  -47.8319  -56.8940 H         1 UNK         0.3144 
     92 H92        26.9225  -46.0398  -59.7622 H         1 UNK         0.0727 
     93 H93        28.5431  -46.0804  -57.1599 H         1 UNK         0.0790 
     94 H94        28.1815  -44.6519  -58.1148 H         1 UNK         0.0790 
     95 H95        29.2126  -45.9053  -58.7823 H         1 UNK         0.0790 
     96 H96        28.1446  -48.2301  -58.3603 H         1 UNK         0.3215 
     97 H97        25.9456  -50.7654  -59.3482 H         1 UNK         0.0863 
     98 H98        27.1093  -50.4634  -61.5514 H         1 UNK         0.0808 
     99 H99        28.6391  -50.2287  -60.7154 H         1 UNK         0.0808 
    100 H100       27.8091  -51.7823  -60.6284 H         1 UNK         0.0808 
    101 H101       28.5113  -51.1451  -58.3549 H         1 UNK         0.3118 
    102 H102       28.0150  -50.4995  -54.9132 H         1 UNK         0.0546 
    103 H103       26.8892  -52.6598  -55.3545 H         1 UNK         0.0828 
    104 H104       28.5357  -52.9186  -54.8014 H         1 UNK         0.0828 
    105 H105       28.1342  -53.1131  -56.5068 H         1 UNK         0.0828 
    106 H106       30.1202  -50.2085  -55.3802 H         1 UNK         0.3005 
    107 H107       32.5309  -51.5944  -57.4100 H         1 UNK         0.1257 
    108 H108       31.8171  -49.9085  -59.0789 H         1 UNK         0.0775 
    109 H109       33.2069  -49.3873  -58.1844 H         1 UNK         0.0775 
    110 H110       33.2501  -47.5237  -56.4028 H         1 UNK         0.0840 
    111 H111       33.2864  -46.8108  -57.9995 H         1 UNK         0.0840 
    112 H112       32.4590  -49.4052  -55.5115 H         1 UNK         0.2987 
    113 H113       32.7615  -51.4147  -52.6313 H         1 UNK         0.0785 
    114 H114       35.1120  -51.5450  -53.3933 H         1 UNK         0.0798 
    115 H115       34.9232  -50.1784  -52.3051 H         1 UNK         0.0798 
    116 H116       35.0303  -49.9164  -54.0467 H         1 UNK         0.0798 
    117 H117       33.0819  -48.5900  -53.1867 H         1 UNK         0.3079 
    118 H118       30.7013  -47.3215  -53.5848 H         1 UNK         0.0794 
    119 H119       28.5589  -48.0935  -52.7087 H         1 UNK         0.0786 
    120 H120       29.0146  -46.6318  -51.8477 H         1 UNK         0.0786 
    121 H121       29.1930  -48.2068  -51.0765 H         1 UNK         0.0786 
    122 H122       32.2887  -46.4133  -52.3747 H         1 UNK         0.3032 
    123 H123       32.7778  -45.4762  -49.4007 H         1 UNK         0.1094 
    124 H124       34.9866  -46.4984  -48.7730 H         1 UNK         0.0794 
    125 H125       33.6429  -47.5038  -48.2633 H         1 UNK         0.0794 
    126 H126       34.5741  -47.9505  -49.6863 H         1 UNK         0.0794 
    127 H127       34.6607  -46.2887  -51.5435 H         1 UNK         0.3016 
@<TRIPOS>BOND
     1    1    2 1    
     2    1   67 1    
     3    1   68 1    
     4    1   69 1    
     5    2    3 2    
     6    2    4 am   BACKBONE|DICT|INTERRES
     7    4    5 1    
     8    4   70 1    
     9    5    6 1    
    10    5   65 1    
    11    5   71 1    
    12    6    7 1    
    13    6   72 1    
    14    6   73 1    
    15    7    8 1    
    16    8    9 1    
    17    8   74 1    
    18    8   75 1    
    19    9   10 ar   
    20    9   14 ar   
    21   10   11 ar   
    22   10   76 1    
    23   11   12 ar   
    24   11   48 1    
    25   12   13 ar   
    26   12   77 1    
    27   13   14 ar   
    28   13   15 1    
    29   14   78 1    
    30   15   16 1    
    31   15   79 1    
    32   15   80 1    
    33   16   17 1    
    34   17   18 1    
    35   17   81 1    
    36   17   82 1    
    37   18   19 1    
    38   18   22 1    
    39   18   83 1    
    40   19   20 am   BACKBONE|DICT|INTERRES
    41   19   21 2    
    42   20   84 1    
    43   20   85 1    
    44   22   23 am   BACKBONE|DICT|INTERRES
    45   22   86 1    
    46   23   24 2    
    47   23   25 1    
    48   25   26 1    
    49   25   27 1    
    50   25   87 1    
    51   26   88 1    
    52   26   89 1    
    53   26   90 1    
    54   27   28 am   BACKBONE|DICT|INTERRES
    55   27   91 1    
    56   28   29 2    
    57   28   30 1    
    58   30   31 1    
    59   30   32 1    
    60   30   92 1    
    61   31   93 1    
    62   31   94 1    
    63   31   95 1    
    64   32   33 am   BACKBONE|DICT|INTERRES
    65   32   96 1    
    66   33   34 2    
    67   33   35 1    
    68   35   36 1    
    69   35   37 1    
    70   35   97 1    
    71   36   98 1    
    72   36   99 1    
    73   36  100 1    
    74   37   38 am   BACKBONE|DICT|INTERRES
    75   37  101 1    
    76   38   39 2    
    77   38   40 1    
    78   40   41 1    
    79   40   42 1    
    80   40  102 1    
    81   41  103 1    
    82   41  104 1    
    83   41  105 1    
    84   42   43 am   BACKBONE|DICT|INTERRES
    85   42  106 1    
    86   43   44 2    
    87   43   45 1    
    88   45   46 1    
    89   45   49 1    
    90   45  107 1    
    91   46   47 1    
    92   46  108 1    
    93   46  109 1    
    94   47   48 1    
    95   48  110 1    
    96   48  111 1    
    97   49   50 am   BACKBONE|DICT|INTERRES
    98   49  112 1    
    99   50   51 2    
   100   50   52 1    
   101   52   53 1    
   102   52   54 1    
   103   52  113 1    
   104   53  114 1    
   105   53  115 1    
   106   53  116 1    
   107   54   55 am   BACKBONE|DICT|INTERRES
   108   54  117 1    
   109   55   56 2    
   110   55   57 1    
   111   57   58 1    
   112   57   59 1    
   113   57  118 1    
   114   58  119 1    
   115   58  120 1    
   116   58  121 1    
   117   59   60 am   BACKBONE|DICT|INTERRES
   118   59  122 1    
   119   60   61 2    
   120   60   62 1    
   121   62   63 1    
   122   62   64 1    
   123   62  123 1    
   124   63  124 1    
   125   63  125 1    
   126   63  126 1    
   127   64   65 am   BACKBONE|DICT|INTERRES
   128   64  127 1    
   129   65   66 2    
@<TRIPOS>SUBSTRUCTURE
     1 UNK         1 GROUP             0       ****    0 ROOT    
