@<TRIPOS>MOLECULE
3R134
127   129    1
SMALL
USER_CHARGES


@<TRIPOS>ATOM
      1 CA         36.5422  -44.8345  -52.2266 C.3       0 UNK        -0.1968 
      2 C          35.2209  -45.5822  -52.3119 C.2       0 UNK         0.4852 
      3 O          35.1727  -46.6776  -52.8688 O.2       0 UNK        -0.5359 
      4 N          34.1492  -45.0141  -51.7427 N.am      1 UNK        -0.4300 
      5 CA         32.7698  -45.5258  -51.8034 C.3       1 UNK         0.0863 
      6 C6         31.7337  -44.4590  -51.3660 C.3       11 UNK        -0.0953 
      7 S7         31.9462  -42.8423  -52.1929 S.3       11 UNK        -0.2369 
      8 C8         30.6153  -42.8460  -53.4456 C.3       11 UNK         0.0226 
      9 C9         30.9836  -43.3859  -54.8312 C.ar      11 UNK        -0.0699 
     10 C10        32.1958  -44.0296  -55.1171 C.ar      11 UNK        -0.0804 
     11 C11        32.4732  -44.4966  -56.4055 C.ar      11 UNK        -0.0871 
     12 C12        31.5316  -44.3106  -57.4212 C.ar      11 UNK        -0.1008 
     13 C13        30.3235  -43.6573  -57.1611 C.ar      11 UNK        -0.0735 
     14 C14        30.0611  -43.2021  -55.8652 C.ar      11 UNK        -0.0945 
     15 C15        29.3408  -43.3932  -58.2974 C.3       11 UNK         0.0169 
     16 S16        27.7997  -44.3571  -58.1583 S.3       11 UNK        -0.2669 
     17 C17        26.7777  -43.2903  -57.0832 C.3       11 UNK        -0.0850 
     18 CA         26.3449  -44.0279  -55.7818 C.3       10 UNK         0.0855 
     19 C          25.9304  -43.0588  -54.6324 C.2       10 UNK         0.5543 
     20 N          24.9784  -43.4148  -53.7787 N.am      10 UNK        -0.7343 
     21 O          26.5081  -41.9849  -54.4829 O.2       10 UNK        -0.5027 
     22 N          25.3927  -45.1217  -56.0528 N.am      10 UNK        -0.4495 
     23 C          24.1522  -44.9838  -56.5456 C.2       10 UNK         0.4903 
     24 O          23.6242  -43.8955  -56.7823 O.2       10 UNK        -0.4860 
     25 CA         23.3759  -46.2871  -56.8229 C.3       9 UNK         0.0227 
     26 CB         22.0332  -46.0491  -57.5465 C.3       9 UNK        -0.1964 
     27 N          24.1784  -47.2838  -57.5404 N.am      9 UNK        -0.4231 
     28 C          24.7922  -47.1603  -58.7275 C.2       9 UNK         0.5014 
     29 O          24.6997  -46.1627  -59.4448 O.2       9 UNK        -0.5270 
     30 CA         25.6564  -48.3580  -59.1896 C.3       8 UNK         0.0284 
     31 CB         26.6212  -47.9802  -60.3296 C.3       8 UNK        -0.1977 
     32 N          26.4370  -48.9551  -58.1004 N.am      8 UNK        -0.4342 
     33 C          25.9581  -49.7462  -57.1297 C.2       8 UNK         0.5039 
     34 O          24.7834  -50.1109  -57.0758 O.2       8 UNK        -0.5547 
     35 CA         26.9159  -50.1403  -55.9925 C.3       7 UNK         0.0281 
     36 CB         27.4047  -51.5852  -56.1769 C.3       7 UNK        -0.1963 
     37 N          28.0598  -49.2308  -55.8533 N.am      7 UNK        -0.4444 
     38 C          27.9601  -47.9504  -55.4578 C.2       7 UNK         0.5104 
     39 O          26.8874  -47.4174  -55.1692 O.2       7 UNK        -0.5100 
     40 CA         29.2482  -47.1115  -55.3713 C.3       6 UNK         0.0396 
     41 CB         29.5841  -46.7928  -53.9083 C.3       6 UNK        -0.1801 
     42 N          30.4107  -47.7384  -56.0012 N.am      6 UNK        -0.4747 
     43 C          30.6047  -47.8294  -57.3251 C.2       6 UNK         0.5012 
     44 O          29.8008  -47.4234  -58.1645 O.2       6 UNK        -0.5003 
     45 CA         31.8833  -48.5592  -57.7918 C.3       5 UNK         0.0782 
     46 C46        33.0722  -47.5845  -57.9850 C.3       11 UNK        -0.0868 
     47 S47        33.7856  -46.9518  -56.4227 S.3       11 UNK        -0.2515 
     48 C48        33.8140  -45.1537  -56.7044 C.3       11 UNK         0.0199 
     49 N          32.2428  -49.6992  -56.9391 N.am      5 UNK        -0.4607 
     50 C          31.4548  -50.7518  -56.6838 C.2       4 UNK         0.5031 
     51 O          30.3454  -50.8961  -57.1938 O.2       4 UNK        -0.5119 
     52 CA         31.9544  -51.8164  -55.6883 C.3       4 UNK         0.0263 
     53 CB         32.2724  -53.1280  -56.4252 C.3       4 UNK        -0.1967 
     54 N          33.1167  -51.4313  -54.8789 N.am      4 UNK        -0.4237 
     55 C          33.1560  -50.4299  -53.9895 C.2       3 UNK         0.4908 
     56 O          32.2246  -49.6430  -53.8011 O.2       3 UNK        -0.5102 
     57 CA         34.4817  -50.2786  -53.2235 C.3       3 UNK         0.0241 
     58 CB         35.5785  -49.7061  -54.1376 C.3       3 UNK        -0.1971 
     59 N          34.3330  -49.4108  -52.0553 N.am      3 UNK        -0.4139 
     60 C          33.7954  -49.7936  -50.8864 C.2       2 UNK         0.5016 
     61 O          33.4564  -50.9524  -50.6395 O.2       2 UNK        -0.5319 
     62 CA         33.6089  -48.7170  -49.7974 C.3       2 UNK         0.0286 
     63 CB         34.7364  -48.8020  -48.7556 C.3       2 UNK        -0.1963 
     64 N          33.5649  -47.3591  -50.3429 N.am      2 UNK        -0.4790 
     65 C          32.5428  -46.8583  -51.0512 C.2       1 UNK         0.5024 
     66 O          31.4510  -47.4196  -51.1385 O.2       1 UNK        -0.4888 
     67 H67        36.4417  -43.8864  -51.6985 H         1 UNK         0.0892 
     68 H68        37.2824  -45.4391  -51.7034 H         1 UNK         0.0892 
     69 H69        36.9179  -44.6269  -53.2281 H         1 UNK         0.0892 
     70 H70        34.2500  -44.1175  -51.2876 H         1 UNK         0.3107 
     71 H71        32.5744  -45.7687  -52.8483 H         1 UNK         0.0773 
     72 H72        30.7178  -44.8192  -51.5372 H         1 UNK         0.0680 
     73 H73        31.8094  -44.2844  -50.2911 H         1 UNK         0.0680 
     74 H74        30.2874  -41.8120  -53.5623 H         1 UNK         0.0650 
     75 H75        29.7509  -43.3922  -53.0661 H         1 UNK         0.0650 
     76 H76        32.9441  -44.1590  -54.3509 H         1 UNK         0.1397 
     77 H77        31.7482  -44.6540  -58.4229 H         1 UNK         0.1363 
     78 H78        29.1390  -42.6826  -55.6536 H         1 UNK         0.1355 
     79 H79        29.1163  -42.3272  -58.3515 H         1 UNK         0.0707 
     80 H80        29.8017  -43.6449  -59.2538 H         1 UNK         0.0707 
     81 H81        27.3254  -42.3744  -56.8639 H         1 UNK         0.1034 
     82 H82        25.9076  -42.9600  -57.6513 H         1 UNK         0.1034 
     83 H83        27.2319  -44.5210  -55.3829 H         1 UNK         0.0482 
     84 H84        24.7252  -42.7897  -53.0300 H         1 UNK         0.3460 
     85 H85        24.5083  -44.2995  -53.8819 H         1 UNK         0.3460 
     86 H86        25.7485  -46.0527  -55.8516 H         1 UNK         0.2989 
     87 H87        23.1518  -46.7213  -55.8476 H         1 UNK         0.0559 
     88 H88        22.1761  -45.5813  -58.5212 H         1 UNK         0.0848 
     89 H89        21.3854  -45.3933  -56.9635 H         1 UNK         0.0848 
     90 H90        21.4931  -46.9834  -57.6991 H         1 UNK         0.0848 
     91 H91        24.2974  -48.1767  -57.0710 H         1 UNK         0.3144 
     92 H92        24.9677  -49.1138  -59.5727 H         1 UNK         0.0727 
     93 H93        27.3228  -47.2042  -60.0187 H         1 UNK         0.0790 
     94 H94        26.0784  -47.6027  -61.1972 H         1 UNK         0.0790 
     95 H95        27.2000  -48.8416  -60.6633 H         1 UNK         0.0790 
     96 H96        27.4047  -48.6678  -58.0374 H         1 UNK         0.3215 
     97 H97        26.3478  -50.0946  -55.0607 H         1 UNK         0.0863 
     98 H98        28.1106  -51.8738  -55.3979 H         1 UNK         0.0808 
     99 H99        27.8892  -51.7279  -57.1432 H         1 UNK         0.0808 
    100 H100       26.5684  -52.2841  -56.1321 H         1 UNK         0.0808 
    101 H101       28.9685  -49.5954  -56.1151 H         1 UNK         0.3118 
    102 H102       29.0543  -46.1679  -55.8850 H         1 UNK         0.0546 
    103 H103       30.4442  -46.1291  -53.8403 H         1 UNK         0.0828 
    104 H104       29.8110  -47.6966  -53.3413 H         1 UNK         0.0828 
    105 H105       28.7517  -46.2925  -53.4118 H         1 UNK         0.0828 
    106 H106       31.1142  -48.1265  -55.3843 H         1 UNK         0.3005 
    107 H107       31.6434  -48.9755  -58.7731 H         1 UNK         0.1257 
    108 H108       32.7817  -46.7560  -58.6320 H         1 UNK         0.0775 
    109 H109       33.8722  -48.0974  -58.5210 H         1 UNK         0.0775 
    110 H110       34.5825  -44.7198  -56.0627 H         1 UNK         0.0840 
    111 H111       34.1282  -44.9413  -57.7274 H         1 UNK         0.0840 
    112 H112       33.1289  -49.6313  -56.4607 H         1 UNK         0.2987 
    113 H113       31.1294  -52.0066  -54.9985 H         1 UNK         0.0785 
    114 H114       31.4148  -53.4685  -57.0076 H         1 UNK         0.0798 
    115 H115       32.5215  -53.9273  -55.7268 H         1 UNK         0.0798 
    116 H116       33.1083  -53.0100  -57.1159 H         1 UNK         0.0798 
    117 H117       33.9381  -52.0100  -54.9829 H         1 UNK         0.3079 
    118 H118       34.7963  -51.2678  -52.8838 H         1 UNK         0.0794 
    119 H119       35.2952  -48.7366  -54.5474 H         1 UNK         0.0786 
    120 H120       35.7823  -50.3681  -54.9798 H         1 UNK         0.0786 
    121 H121       36.5161  -49.5754  -53.5970 H         1 UNK         0.0786 
    122 H122       34.5513  -48.4290  -52.2024 H         1 UNK         0.3032 
    123 H123       32.6595  -48.9212  -49.2967 H         1 UNK         0.1094 
    124 H124       35.7129  -48.6031  -49.1993 H         1 UNK         0.0794 
    125 H125       34.5829  -48.0896  -47.9449 H         1 UNK         0.0794 
    126 H126       34.7786  -49.7959  -48.3077 H         1 UNK         0.0794 
    127 H127       34.4238  -46.8287  -50.3182 H         1 UNK         0.3016 
@<TRIPOS>BOND
     1    1    2 1    
     2    1   67 1    
     3    1   68 1    
     4    1   69 1    
     5    2    3 2    
     6    2    4 am   BACKBONE|DICT|INTERRES
     7    4    5 1    
     8    4   70 1    
     9    5    6 1    
    10    5   65 1    
    11    5   71 1    
    12    6    7 1    
    13    6   72 1    
    14    6   73 1    
    15    7    8 1    
    16    8    9 1    
    17    8   74 1    
    18    8   75 1    
    19    9   10 ar   
    20    9   14 ar   
    21   10   11 ar   
    22   10   76 1    
    23   11   12 ar   
    24   11   48 1    
    25   12   13 ar   
    26   12   77 1    
    27   13   14 ar   
    28   13   15 1    
    29   14   78 1    
    30   15   16 1    
    31   15   79 1    
    32   15   80 1    
    33   16   17 1    
    34   17   18 1    
    35   17   81 1    
    36   17   82 1    
    37   18   19 1    
    38   18   22 1    
    39   18   83 1    
    40   19   20 am   BACKBONE|DICT|INTERRES
    41   19   21 2    
    42   20   84 1    
    43   20   85 1    
    44   22   23 am   BACKBONE|DICT|INTERRES
    45   22   86 1    
    46   23   24 2    
    47   23   25 1    
    48   25   26 1    
    49   25   27 1    
    50   25   87 1    
    51   26   88 1    
    52   26   89 1    
    53   26   90 1    
    54   27   28 am   BACKBONE|DICT|INTERRES
    55   27   91 1    
    56   28   29 2    
    57   28   30 1    
    58   30   31 1    
    59   30   32 1    
    60   30   92 1    
    61   31   93 1    
    62   31   94 1    
    63   31   95 1    
    64   32   33 am   BACKBONE|DICT|INTERRES
    65   32   96 1    
    66   33   34 2    
    67   33   35 1    
    68   35   36 1    
    69   35   37 1    
    70   35   97 1    
    71   36   98 1    
    72   36   99 1    
    73   36  100 1    
    74   37   38 am   BACKBONE|DICT|INTERRES
    75   37  101 1    
    76   38   39 2    
    77   38   40 1    
    78   40   41 1    
    79   40   42 1    
    80   40  102 1    
    81   41  103 1    
    82   41  104 1    
    83   41  105 1    
    84   42   43 am   BACKBONE|DICT|INTERRES
    85   42  106 1    
    86   43   44 2    
    87   43   45 1    
    88   45   46 1    
    89   45   49 1    
    90   45  107 1    
    91   46   47 1    
    92   46  108 1    
    93   46  109 1    
    94   47   48 1    
    95   48  110 1    
    96   48  111 1    
    97   49   50 am   BACKBONE|DICT|INTERRES
    98   49  112 1    
    99   50   51 2    
   100   50   52 1    
   101   52   53 1    
   102   52   54 1    
   103   52  113 1    
   104   53  114 1    
   105   53  115 1    
   106   53  116 1    
   107   54   55 am   BACKBONE|DICT|INTERRES
   108   54  117 1    
   109   55   56 2    
   110   55   57 1    
   111   57   58 1    
   112   57   59 1    
   113   57  118 1    
   114   58  119 1    
   115   58  120 1    
   116   58  121 1    
   117   59   60 am   BACKBONE|DICT|INTERRES
   118   59  122 1    
   119   60   61 2    
   120   60   62 1    
   121   62   63 1    
   122   62   64 1    
   123   62  123 1    
   124   63  124 1    
   125   63  125 1    
   126   63  126 1    
   127   64   65 am   BACKBONE|DICT|INTERRES
   128   64  127 1    
   129   65   66 2    
@<TRIPOS>SUBSTRUCTURE
     1 UNK         1 GROUP             0       ****    0 ROOT    
