@<TRIPOS>MOLECULE
3R134
127   129    1
SMALL
USER_CHARGES


@<TRIPOS>ATOM
      1 CA         30.4061  -44.7083  -48.2723 C.3       0 UNK        -0.1968 
      2 C          31.6929  -45.4087  -48.6839 C.2       0 UNK         0.4852 
      3 O          32.4141  -45.9181  -47.8242 O.2       0 UNK        -0.5359 
      4 N          31.9868  -45.4310  -49.9897 N.am      1 UNK        -0.4300 
      5 CA         33.1444  -46.1140  -50.5749 C.3       1 UNK         0.0863 
      6 C6         33.4814  -45.5793  -51.9912 C.3       11 UNK        -0.0953 
      7 S7         33.9035  -43.8046  -52.0062 S.3       11 UNK        -0.2369 
      8 C8         32.3415  -43.0284  -52.5624 C.3       11 UNK         0.0226 
      9 C9         31.9358  -43.2635  -54.0213 C.ar      11 UNK        -0.0699 
     10 C10        32.8127  -43.7846  -54.9832 C.ar      11 UNK        -0.0804 
     11 C11        32.3964  -43.9605  -56.3058 C.ar      11 UNK        -0.0871 
     12 C12        31.0968  -43.6082  -56.6689 C.ar      11 UNK        -0.1008 
     13 C13        30.2049  -43.0783  -55.7312 C.ar      11 UNK        -0.0735 
     14 C14        30.6360  -42.9148  -54.4103 C.ar      11 UNK        -0.0945 
     15 C15        28.7689  -42.7069  -56.1089 C.3       11 UNK         0.0169 
     16 S16        28.5546  -42.2258  -57.8616 S.3       11 UNK        -0.2669 
     17 C17        26.7525  -41.9501  -57.9779 C.3       11 UNK        -0.0850 
     18 CA         25.9460  -43.1655  -58.5129 C.3       10 UNK         0.0855 
     19 C          26.2678  -43.5297  -59.9931 C.2       10 UNK         0.5543 
     20 N          26.5440  -44.7844  -60.3313 N.am      10 UNK        -0.7343 
     21 O          26.2424  -42.6574  -60.8582 O.2       10 UNK        -0.5027 
     22 N          26.0253  -44.2969  -57.5826 N.am      10 UNK        -0.4495 
     23 C          25.0259  -45.1369  -57.3027 C.2       10 UNK         0.4903 
     24 O          23.8942  -45.0693  -57.7865 O.2       10 UNK        -0.4860 
     25 CA         25.3529  -46.2264  -56.2724 C.3       9 UNK         0.0227 
     26 CB         24.4088  -46.1263  -55.0622 C.3       9 UNK        -0.1964 
     27 N          25.3175  -47.5923  -56.7971 N.am      9 UNK        -0.4231 
     28 C          25.8730  -48.0550  -57.9269 C.2       9 UNK         0.5014 
     29 O          26.3688  -47.3509  -58.8091 O.2       9 UNK        -0.5270 
     30 CA         25.9519  -49.5892  -58.0303 C.3       8 UNK         0.0284 
     31 CB         26.5102  -50.0695  -59.3829 C.3       8 UNK        -0.1977 
     32 N          26.8143  -50.0843  -56.9563 N.am      8 UNK        -0.4342 
     33 C          26.4201  -50.3273  -55.6991 C.2       8 UNK         0.5039 
     34 O          25.2412  -50.3227  -55.3423 O.2       8 UNK        -0.5547 
     35 CA         27.5335  -50.4935  -54.6532 C.3       7 UNK         0.0281 
     36 CB         28.2809  -51.8257  -54.8290 C.3       7 UNK        -0.1963 
     37 N          28.4691  -49.3654  -54.7187 N.am      7 UNK        -0.4444 
     38 C          28.1835  -48.1264  -54.2880 C.2       7 UNK         0.5104 
     39 O          27.1555  -47.8423  -53.6742 O.2       7 UNK        -0.5100 
     40 CA         29.1888  -47.0051  -54.5979 C.3       6 UNK         0.0396 
     41 CB         30.0454  -46.6865  -53.3689 C.3       6 UNK        -0.1801 
     42 N          30.0606  -47.3376  -55.7261 N.am      6 UNK        -0.4747 
     43 C          29.8331  -46.9535  -56.9915 C.2       6 UNK         0.5012 
     44 O          28.9258  -46.1849  -57.3123 O.2       6 UNK        -0.5003 
     45 CA         30.7388  -47.5448  -58.0980 C.3       5 UNK         0.0782 
     46 C46        31.7859  -46.5280  -58.6211 C.3       11 UNK        -0.0868 
     47 S47        33.2319  -46.3116  -57.5185 S.3       11 UNK        -0.2515 
     48 C48        33.3564  -44.5048  -57.3523 C.3       11 UNK         0.0199 
     49 N          31.3755  -48.8119  -57.7255 N.am      5 UNK        -0.4607 
     50 C          30.7448  -49.9662  -57.4875 C.2       4 UNK         0.5031 
     51 O          29.5308  -50.1154  -57.6100 O.2       4 UNK        -0.5119 
     52 CA         31.5990  -51.1394  -56.9745 C.3       4 UNK         0.0263 
     53 CB         31.9867  -52.0629  -58.1397 C.3       4 UNK        -0.1967 
     54 N          32.8085  -50.7437  -56.2409 N.am      4 UNK        -0.4237 
     55 C          32.8357  -49.9948  -55.1287 C.2       3 UNK         0.4908 
     56 O          31.8352  -49.4777  -54.6250 O.2       3 UNK        -0.5102 
     57 CA         34.2285  -49.7361  -54.5296 C.3       3 UNK         0.0241 
     58 CB         34.8973  -48.5376  -55.2207 C.3       3 UNK        -0.1971 
     59 N          34.1882  -49.4743  -53.0917 N.am      3 UNK        -0.4139 
     60 C          33.9004  -50.3723  -52.1402 C.2       2 UNK         0.5016 
     61 O          33.6419  -51.5549  -52.3701 O.2       2 UNK        -0.5319 
     62 CA         33.9483  -49.8828  -50.6786 C.3       2 UNK         0.0286 
     63 CB         35.1737  -50.4684  -49.9564 C.3       2 UNK        -0.1963 
     64 N          33.9832  -48.4191  -50.5577 N.am      2 UNK        -0.4790 
     65 C          32.8982  -47.6364  -50.6203 C.2       1 UNK         0.5024 
     66 O          31.7524  -48.0737  -50.7466 O.2       1 UNK        -0.4888 
     67 H67        29.8766  -44.2899  -49.1282 H         1 UNK         0.0892 
     68 H68        29.7402  -45.4113  -47.7726 H         1 UNK         0.0892 
     69 H69        30.6260  -43.8958  -47.5802 H         1 UNK         0.0892 
     70 H70        31.3373  -45.0329  -50.6499 H         1 UNK         0.3107 
     71 H71        34.0062  -45.9313  -49.9288 H         1 UNK         0.0773 
     72 H72        34.3454  -46.1082  -52.3975 H         1 UNK         0.0680 
     73 H73        32.6685  -45.7670  -52.6898 H         1 UNK         0.0680 
     74 H74        32.4355  -41.9524  -52.4111 H         1 UNK         0.0650 
     75 H75        31.5362  -43.3573  -51.9054 H         1 UNK         0.0650 
     76 H76        33.8249  -44.0517  -54.7159 H         1 UNK         0.1397 
     77 H77        30.7803  -43.7512  -57.6907 H         1 UNK         0.1363 
     78 H78        29.9525  -42.5098  -53.6761 H         1 UNK         0.1355 
     79 H79        28.4239  -41.8827  -55.4825 H         1 UNK         0.0707 
     80 H80        28.1300  -43.5612  -55.8855 H         1 UNK         0.0707 
     81 H81        26.3705  -41.6559  -56.9991 H         1 UNK         0.1034 
     82 H82        26.5864  -41.0833  -58.6203 H         1 UNK         0.1034 
     83 H83        24.9050  -42.8378  -58.5385 H         1 UNK         0.0482 
     84 H84        26.5370  -45.5292  -59.6404 H         1 UNK         0.3460 
     85 H85        26.7415  -45.0013  -61.2945 H         1 UNK         0.3460 
     86 H86        26.9490  -44.5011  -57.2256 H         1 UNK         0.2989 
     87 H87        26.3697  -46.0638  -55.9110 H         1 UNK         0.0559 
     88 H88        23.3751  -46.3380  -55.3388 H         1 UNK         0.0848 
     89 H89        24.4323  -45.1251  -54.6298 H         1 UNK         0.0848 
     90 H90        24.6936  -46.8233  -54.2739 H         1 UNK         0.0848 
     91 H91        24.9653  -48.2951  -56.1576 H         1 UNK         0.3144 
     92 H92        24.9430  -49.9915  -57.9164 H         1 UNK         0.0727 
     93 H93        26.5407  -51.1579  -59.4341 H         1 UNK         0.0790 
     94 H94        27.5213  -49.6988  -59.5577 H         1 UNK         0.0790 
     95 H95        25.8868  -49.7216  -60.2075 H         1 UNK         0.0790 
     96 H96        27.8149  -50.0805  -57.1588 H         1 UNK         0.3215 
     97 H97        27.0716  -50.4967  -53.6632 H         1 UNK         0.0863 
     98 H98        29.1100  -51.9137  -54.1265 H         1 UNK         0.0808 
     99 H99        28.6771  -51.9468  -55.8365 H         1 UNK         0.0808 
    100 H100       27.6112  -52.6671  -54.6469 H         1 UNK         0.0808 
    101 H101       29.3418  -49.5133  -55.2047 H         1 UNK         0.3118 
    102 H102       28.6089  -46.1085  -54.8259 H         1 UNK         0.0546 
    103 H103       29.4286  -46.5211  -52.4846 H         1 UNK         0.0828 
    104 H104       30.6177  -45.7771  -53.5380 H         1 UNK         0.0828 
    105 H105       30.7401  -47.4945  -53.1400 H         1 UNK         0.0828 
    106 H106       30.8334  -47.9661  -55.5289 H         1 UNK         0.3005 
    107 H107       30.0618  -47.7668  -58.9267 H         1 UNK         0.1257 
    108 H108       31.3187  -45.5691  -58.8439 H         1 UNK         0.0775 
    109 H109       32.1706  -46.8808  -59.5791 H         1 UNK         0.0775 
    110 H110       34.3816  -44.2526  -57.0770 H         1 UNK         0.0840 
    111 H111       33.1816  -44.0291  -58.3187 H         1 UNK         0.0840 
    112 H112       32.3740  -48.7677  -57.5825 H         1 UNK         0.2987 
    113 H113       30.9804  -51.7109  -56.2811 H         1 UNK         0.0785 
    114 H114       31.1021  -52.3944  -58.6859 H         1 UNK         0.0798 
    115 H115       32.4984  -52.9579  -57.7852 H         1 UNK         0.0798 
    116 H116       32.6407  -51.5604  -58.8535 H         1 UNK         0.0798 
    117 H117       33.6821  -51.1056  -56.5969 H         1 UNK         0.3079 
    118 H118       34.8441  -50.6236  -54.6913 H         1 UNK         0.0794 
    119 H119       34.3420  -47.6145  -55.0483 H         1 UNK         0.0786 
    120 H120       34.9607  -48.6856  -56.2995 H         1 UNK         0.0786 
    121 H121       35.9146  -48.3873  -54.8585 H         1 UNK         0.0786 
    122 H122       34.3628  -48.5258  -52.8007 H         1 UNK         0.3032 
    123 H123       33.0499  -50.2612  -50.1846 H         1 UNK         0.1094 
    124 H124       36.1084  -50.1354  -50.4093 H         1 UNK         0.0794 
    125 H125       35.1884  -50.1829  -48.9043 H         1 UNK         0.0794 
    126 H126       35.1649  -51.5588  -49.9929 H         1 UNK         0.0794 
    127 H127       34.8930  -47.9946  -50.4380 H         1 UNK         0.3016 
@<TRIPOS>BOND
     1    1    2 1    
     2    1   67 1    
     3    1   68 1    
     4    1   69 1    
     5    2    3 2    
     6    2    4 am   BACKBONE|DICT|INTERRES
     7    4    5 1    
     8    4   70 1    
     9    5    6 1    
    10    5   65 1    
    11    5   71 1    
    12    6    7 1    
    13    6   72 1    
    14    6   73 1    
    15    7    8 1    
    16    8    9 1    
    17    8   74 1    
    18    8   75 1    
    19    9   10 ar   
    20    9   14 ar   
    21   10   11 ar   
    22   10   76 1    
    23   11   12 ar   
    24   11   48 1    
    25   12   13 ar   
    26   12   77 1    
    27   13   14 ar   
    28   13   15 1    
    29   14   78 1    
    30   15   16 1    
    31   15   79 1    
    32   15   80 1    
    33   16   17 1    
    34   17   18 1    
    35   17   81 1    
    36   17   82 1    
    37   18   19 1    
    38   18   22 1    
    39   18   83 1    
    40   19   20 am   BACKBONE|DICT|INTERRES
    41   19   21 2    
    42   20   84 1    
    43   20   85 1    
    44   22   23 am   BACKBONE|DICT|INTERRES
    45   22   86 1    
    46   23   24 2    
    47   23   25 1    
    48   25   26 1    
    49   25   27 1    
    50   25   87 1    
    51   26   88 1    
    52   26   89 1    
    53   26   90 1    
    54   27   28 am   BACKBONE|DICT|INTERRES
    55   27   91 1    
    56   28   29 2    
    57   28   30 1    
    58   30   31 1    
    59   30   32 1    
    60   30   92 1    
    61   31   93 1    
    62   31   94 1    
    63   31   95 1    
    64   32   33 am   BACKBONE|DICT|INTERRES
    65   32   96 1    
    66   33   34 2    
    67   33   35 1    
    68   35   36 1    
    69   35   37 1    
    70   35   97 1    
    71   36   98 1    
    72   36   99 1    
    73   36  100 1    
    74   37   38 am   BACKBONE|DICT|INTERRES
    75   37  101 1    
    76   38   39 2    
    77   38   40 1    
    78   40   41 1    
    79   40   42 1    
    80   40  102 1    
    81   41  103 1    
    82   41  104 1    
    83   41  105 1    
    84   42   43 am   BACKBONE|DICT|INTERRES
    85   42  106 1    
    86   43   44 2    
    87   43   45 1    
    88   45   46 1    
    89   45   49 1    
    90   45  107 1    
    91   46   47 1    
    92   46  108 1    
    93   46  109 1    
    94   47   48 1    
    95   48  110 1    
    96   48  111 1    
    97   49   50 am   BACKBONE|DICT|INTERRES
    98   49  112 1    
    99   50   51 2    
   100   50   52 1    
   101   52   53 1    
   102   52   54 1    
   103   52  113 1    
   104   53  114 1    
   105   53  115 1    
   106   53  116 1    
   107   54   55 am   BACKBONE|DICT|INTERRES
   108   54  117 1    
   109   55   56 2    
   110   55   57 1    
   111   57   58 1    
   112   57   59 1    
   113   57  118 1    
   114   58  119 1    
   115   58  120 1    
   116   58  121 1    
   117   59   60 am   BACKBONE|DICT|INTERRES
   118   59  122 1    
   119   60   61 2    
   120   60   62 1    
   121   62   63 1    
   122   62   64 1    
   123   62  123 1    
   124   63  124 1    
   125   63  125 1    
   126   63  126 1    
   127   64   65 am   BACKBONE|DICT|INTERRES
   128   64  127 1    
   129   65   66 2    
@<TRIPOS>SUBSTRUCTURE
     1 UNK         1 GROUP             0       ****    0 ROOT    
