@<TRIPOS>MOLECULE
3R134
127   129    1
SMALL
USER_CHARGES


@<TRIPOS>ATOM
      1 CA         36.9014  -47.9251  -56.3530 C.3       0 UNK        -0.1968 
      2 C          36.0032  -47.8903  -55.1264 C.2       0 UNK         0.4852 
      3 O          35.6915  -48.9452  -54.5731 O.2       0 UNK        -0.5359 
      4 N          35.6094  -46.6861  -54.6858 N.am      1 UNK        -0.4300 
      5 CA         34.6835  -46.4136  -53.5735 C.3       1 UNK         0.0863 
      6 C6         34.4970  -44.8940  -53.3445 C.3       11 UNK        -0.0953 
      7 S7         33.9342  -44.0110  -54.8386 S.3       11 UNK        -0.2369 
      8 C8         32.7724  -42.7998  -54.1361 C.3       11 UNK         0.0226 
      9 C9         31.3699  -43.3729  -53.9985 C.ar      11 UNK        -0.0699 
     10 C10        30.9496  -43.9520  -52.7967 C.ar      11 UNK        -0.0804 
     11 C11        29.6505  -44.4525  -52.6673 C.ar      11 UNK        -0.0871 
     12 C12        28.7687  -44.3653  -53.7497 C.ar      11 UNK        -0.1008 
     13 C13        29.1763  -43.7836  -54.9531 C.ar      11 UNK        -0.0735 
     14 C14        30.4793  -43.2937  -55.0734 C.ar      11 UNK        -0.0945 
     15 C15        28.2066  -43.6828  -56.1191 C.3       11 UNK         0.0169 
     16 S16        26.9872  -42.3547  -55.8598 S.3       11 UNK        -0.2669 
     17 C17        26.0153  -42.5150  -57.3938 C.3       11 UNK        -0.0850 
     18 CA         25.0229  -43.7178  -57.3395 C.3       10 UNK         0.0855 
     19 C          23.5459  -43.3516  -57.0077 C.2       10 UNK         0.5543 
     20 N          22.6218  -44.2988  -57.1110 N.am      10 UNK        -0.7343 
     21 O          23.2284  -42.2215  -56.6441 O.2       10 UNK        -0.5027 
     22 N          25.1826  -44.5998  -58.5010 N.am      10 UNK        -0.4495 
     23 C          24.8371  -44.3380  -59.7682 C.2       10 UNK         0.4903 
     24 O          24.2984  -43.2954  -60.1398 O.2       10 UNK        -0.4860 
     25 CA         25.1704  -45.4259  -60.8020 C.3       9 UNK         0.0227 
     26 CB         26.6088  -45.2475  -61.3162 C.3       9 UNK        -0.1964 
     27 N          25.0275  -46.7630  -60.2222 N.am      9 UNK        -0.4231 
     28 C          23.9205  -47.5142  -60.3023 C.2       9 UNK         0.5014 
     29 O          22.9385  -47.2228  -60.9868 O.2       9 UNK        -0.5270 
     30 CA         23.8915  -48.8076  -59.4645 C.3       8 UNK         0.0284 
     31 CB         24.4410  -49.9900  -60.2791 C.3       8 UNK        -0.1977 
     32 N          24.6268  -48.7043  -58.1997 N.am      8 UNK        -0.4342 
     33 C          24.3136  -47.8711  -57.1972 C.2       8 UNK         0.5039 
     34 O          23.3310  -47.1288  -57.2047 O.2       8 UNK        -0.5547 
     35 CA         25.2800  -47.8157  -56.0002 C.3       7 UNK         0.0281 
     36 CB         24.8068  -48.7582  -54.8827 C.3       7 UNK        -0.1963 
     37 N          26.6870  -48.1031  -56.3096 N.am      7 UNK        -0.4444 
     38 C          27.4479  -47.4718  -57.2133 C.2       7 UNK         0.5104 
     39 O          27.0034  -46.6509  -58.0161 O.2       7 UNK        -0.5100 
     40 CA         28.9549  -47.7943  -57.1976 C.3       6 UNK         0.0396 
     41 CB         29.7453  -46.9398  -58.2063 C.3       6 UNK        -0.1801 
     42 N          29.5396  -47.6110  -55.8649 N.am      6 UNK        -0.4747 
     43 C          29.4468  -48.4846  -54.8540 C.2       6 UNK         0.5012 
     44 O          28.8197  -49.5448  -54.9287 O.2       6 UNK        -0.5003 
     45 CA         30.1169  -48.0921  -53.5246 C.3       5 UNK         0.0782 
     46 C46        29.0522  -47.6395  -52.4969 C.3       11 UNK        -0.0868 
     47 S47        29.8214  -46.7514  -51.1034 S.3       11 UNK        -0.2515 
     48 C48        29.1905  -45.0593  -51.3481 C.3       11 UNK         0.0199 
     49 N          30.9024  -49.2182  -53.0144 N.am      5 UNK        -0.4607 
     50 C          32.0376  -49.6621  -53.5624 C.2       4 UNK         0.5031 
     51 O          32.6013  -49.1164  -54.5113 O.2       4 UNK        -0.5119 
     52 CA         32.6025  -50.9639  -52.9889 C.3       4 UNK         0.0263 
     53 CB         32.1223  -52.1674  -53.8240 C.3       4 UNK        -0.1967 
     54 N          34.0625  -50.9034  -52.9659 N.am      4 UNK        -0.4237 
     55 C          34.8427  -51.7045  -52.2271 C.2       3 UNK         0.4908 
     56 O          34.4134  -52.6085  -51.5087 O.2       3 UNK        -0.5102 
     57 CA         36.3540  -51.4435  -52.2692 C.3       3 UNK         0.0241 
     58 CB         36.9686  -51.9331  -53.5918 C.3       3 UNK        -0.1971 
     59 N          36.6344  -50.0215  -52.0764 N.am      3 UNK        -0.4139 
     60 C          36.7865  -49.4388  -50.8781 C.2       2 UNK         0.5016 
     61 O          36.7928  -50.0576  -49.8128 O.2       2 UNK        -0.5319 
     62 CA         36.9695  -47.9098  -50.8461 C.3       2 UNK         0.0286 
     63 CB         38.4601  -47.5496  -50.7376 C.3       2 UNK        -0.1963 
     64 N          36.3962  -47.2263  -52.0074 N.am      2 UNK        -0.4790 
     65 C          35.0829  -47.0901  -52.2442 C.2       1 UNK         0.5024 
     66 O          34.2067  -47.4808  -51.4727 O.2       1 UNK        -0.4888 
     67 H67        37.8474  -48.4085  -56.1108 H         1 UNK         0.0892 
     68 H68        36.4221  -48.4940  -57.1492 H         1 UNK         0.0892 
     69 H69        37.1164  -46.9259  -56.7312 H         1 UNK         0.0892 
     70 H70        35.9035  -45.8637  -55.1936 H         1 UNK         0.3107 
     71 H71        33.7168  -46.8298  -53.8612 H         1 UNK         0.0773 
     72 H72        35.4324  -44.4354  -53.0176 H         1 UNK         0.0680 
     73 H73        33.7800  -44.7249  -52.5401 H         1 UNK         0.0680 
     74 H74        32.7461  -41.9268  -54.7899 H         1 UNK         0.0650 
     75 H75        33.1409  -42.4416  -53.1736 H         1 UNK         0.0650 
     76 H76        31.6276  -44.0073  -51.9564 H         1 UNK         0.1397 
     77 H77        27.7564  -44.7345  -53.6549 H         1 UNK         0.1363 
     78 H78        30.7998  -42.8397  -56.0013 H         1 UNK         0.1355 
     79 H79        28.7446  -43.5058  -57.0518 H         1 UNK         0.0707 
     80 H80        27.6889  -44.6345  -56.2376 H         1 UNK         0.0707 
     81 H81        25.5042  -41.5719  -57.5939 H         1 UNK         0.1034 
     82 H82        26.7214  -42.6237  -58.2188 H         1 UNK         0.1034 
     83 H83        25.3129  -44.3553  -56.5041 H         1 UNK         0.0482 
     84 H84        22.8829  -45.2563  -57.3325 H         1 UNK         0.3460 
     85 H85        21.6623  -44.0779  -56.8988 H         1 UNK         0.3460 
     86 H86        25.6882  -45.4614  -58.3143 H         1 UNK         0.2989 
     87 H87        24.4908  -45.3092  -61.6487 H         1 UNK         0.0559 
     88 H88        27.3425  -45.3443  -60.5146 H         1 UNK         0.0848 
     89 H89        26.7431  -44.2617  -61.7636 H         1 UNK         0.0848 
     90 H90        26.8498  -45.9856  -62.0812 H         1 UNK         0.0848 
     91 H91        25.7705  -47.0629  -59.6009 H         1 UNK         0.3144 
     92 H92        22.8472  -49.0158  -59.2221 H         1 UNK         0.0727 
     93 H93        25.4934  -49.8540  -60.5315 H         1 UNK         0.0790 
     94 H94        23.8938  -50.1050  -61.2160 H         1 UNK         0.0790 
     95 H95        24.3437  -50.9285  -59.7330 H         1 UNK         0.0790 
     96 H96        25.4506  -49.2794  -58.0984 H         1 UNK         0.3215 
     97 H97        25.2447  -46.7942  -55.6160 H         1 UNK         0.0863 
     98 H98        25.4076  -48.6388  -53.9808 H         1 UNK         0.0808 
     99 H99        24.8617  -49.8041  -55.1872 H         1 UNK         0.0808 
    100 H100       23.7710  -48.5516  -54.6090 H         1 UNK         0.0808 
    101 H101       27.1608  -48.7729  -55.7106 H         1 UNK         0.3118 
    102 H102       29.0639  -48.8402  -57.4919 H         1 UNK         0.0546 
    103 H103       29.6717  -45.8752  -57.9807 H         1 UNK         0.0828 
    104 H104       29.3705  -47.0840  -59.2206 H         1 UNK         0.0828 
    105 H105       30.8015  -47.2093  -58.2133 H         1 UNK         0.0828 
    106 H106       30.0358  -46.7434  -55.7153 H         1 UNK         0.3005 
    107 H107       30.7994  -47.2601  -53.7172 H         1 UNK         0.1257 
    108 H108       28.5018  -48.4969  -52.1048 H         1 UNK         0.0775 
    109 H109       28.2992  -46.9995  -52.9585 H         1 UNK         0.0775 
    110 H110       28.1010  -45.0686  -51.2855 H         1 UNK         0.0840 
    111 H111       29.5333  -44.4336  -50.5227 H         1 UNK         0.0840 
    112 H112       30.4865  -49.7373  -52.2554 H         1 UNK         0.2987 
    113 H113       32.2449  -51.0727  -51.9625 H         1 UNK         0.0785 
    114 H114       31.0333  -52.1937  -53.8827 H         1 UNK         0.0798 
    115 H115       32.4434  -53.1138  -53.3892 H         1 UNK         0.0798 
    116 H116       32.5029  -52.1216  -54.8452 H         1 UNK         0.0798 
    117 H117       34.4798  -50.1736  -53.5421 H         1 UNK         0.3079 
    118 H118       36.8169  -52.0153  -51.4616 H         1 UNK         0.0794 
    119 H119       36.8031  -53.0033  -53.7222 H         1 UNK         0.0786 
    120 H120       38.0457  -51.7670  -53.6122 H         1 UNK         0.0786 
    121 H121       36.5369  -51.4315  -54.4582 H         1 UNK         0.0786 
    122 H122       36.5597  -49.4361  -52.9033 H         1 UNK         0.3032 
    123 H123       36.4617  -47.5430  -49.9509 H         1 UNK         0.1094 
    124 H124       38.6026  -46.4739  -50.6328 H         1 UNK         0.0794 
    125 H125       38.9124  -48.0206  -49.8636 H         1 UNK         0.0794 
    126 H126       39.0211  -47.8807  -51.6126 H         1 UNK         0.0794 
    127 H127       37.0440  -46.8741  -52.6978 H         1 UNK         0.3016 
@<TRIPOS>BOND
     1    1    2 1    
     2    1   67 1    
     3    1   68 1    
     4    1   69 1    
     5    2    3 2    
     6    2    4 am   BACKBONE|DICT|INTERRES
     7    4    5 1    
     8    4   70 1    
     9    5    6 1    
    10    5   65 1    
    11    5   71 1    
    12    6    7 1    
    13    6   72 1    
    14    6   73 1    
    15    7    8 1    
    16    8    9 1    
    17    8   74 1    
    18    8   75 1    
    19    9   10 ar   
    20    9   14 ar   
    21   10   11 ar   
    22   10   76 1    
    23   11   12 ar   
    24   11   48 1    
    25   12   13 ar   
    26   12   77 1    
    27   13   14 ar   
    28   13   15 1    
    29   14   78 1    
    30   15   16 1    
    31   15   79 1    
    32   15   80 1    
    33   16   17 1    
    34   17   18 1    
    35   17   81 1    
    36   17   82 1    
    37   18   19 1    
    38   18   22 1    
    39   18   83 1    
    40   19   20 am   BACKBONE|DICT|INTERRES
    41   19   21 2    
    42   20   84 1    
    43   20   85 1    
    44   22   23 am   BACKBONE|DICT|INTERRES
    45   22   86 1    
    46   23   24 2    
    47   23   25 1    
    48   25   26 1    
    49   25   27 1    
    50   25   87 1    
    51   26   88 1    
    52   26   89 1    
    53   26   90 1    
    54   27   28 am   BACKBONE|DICT|INTERRES
    55   27   91 1    
    56   28   29 2    
    57   28   30 1    
    58   30   31 1    
    59   30   32 1    
    60   30   92 1    
    61   31   93 1    
    62   31   94 1    
    63   31   95 1    
    64   32   33 am   BACKBONE|DICT|INTERRES
    65   32   96 1    
    66   33   34 2    
    67   33   35 1    
    68   35   36 1    
    69   35   37 1    
    70   35   97 1    
    71   36   98 1    
    72   36   99 1    
    73   36  100 1    
    74   37   38 am   BACKBONE|DICT|INTERRES
    75   37  101 1    
    76   38   39 2    
    77   38   40 1    
    78   40   41 1    
    79   40   42 1    
    80   40  102 1    
    81   41  103 1    
    82   41  104 1    
    83   41  105 1    
    84   42   43 am   BACKBONE|DICT|INTERRES
    85   42  106 1    
    86   43   44 2    
    87   43   45 1    
    88   45   46 1    
    89   45   49 1    
    90   45  107 1    
    91   46   47 1    
    92   46  108 1    
    93   46  109 1    
    94   47   48 1    
    95   48  110 1    
    96   48  111 1    
    97   49   50 am   BACKBONE|DICT|INTERRES
    98   49  112 1    
    99   50   51 2    
   100   50   52 1    
   101   52   53 1    
   102   52   54 1    
   103   52  113 1    
   104   53  114 1    
   105   53  115 1    
   106   53  116 1    
   107   54   55 am   BACKBONE|DICT|INTERRES
   108   54  117 1    
   109   55   56 2    
   110   55   57 1    
   111   57   58 1    
   112   57   59 1    
   113   57  118 1    
   114   58  119 1    
   115   58  120 1    
   116   58  121 1    
   117   59   60 am   BACKBONE|DICT|INTERRES
   118   59  122 1    
   119   60   61 2    
   120   60   62 1    
   121   62   63 1    
   122   62   64 1    
   123   62  123 1    
   124   63  124 1    
   125   63  125 1    
   126   63  126 1    
   127   64   65 am   BACKBONE|DICT|INTERRES
   128   64  127 1    
   129   65   66 2    
@<TRIPOS>SUBSTRUCTURE
     1 UNK         1 GROUP             0       ****    0 ROOT    
