@<TRIPOS>MOLECULE
3R134
127   129    1
SMALL
USER_CHARGES


@<TRIPOS>ATOM
      1 CA         30.7777  -44.6497  -47.4544 C.3       0 UNK        -0.1968 
      2 C          32.0587  -45.0263  -48.1844 C.2       0 UNK         0.4852 
      3 O          33.0319  -45.4232  -47.5421 O.2       0 UNK        -0.5359 
      4 N          32.0655  -44.8995  -49.5192 N.am      1 UNK        -0.4300 
      5 CA         33.1962  -45.2413  -50.3911 C.3       1 UNK         0.0863 
      6 C6         32.9878  -44.6733  -51.8185 C.3       11 UNK        -0.0953 
      7 S7         34.5305  -44.5996  -52.7885 S.3       11 UNK        -0.2369 
      8 C8         34.2411  -43.1393  -53.8347 C.3       11 UNK         0.0226 
      9 C9         33.2546  -43.4338  -54.9555 C.ar      11 UNK        -0.0699 
     10 C10        33.6951  -44.0544  -56.1266 C.ar      11 UNK        -0.0804 
     11 C11        32.8047  -44.3109  -57.1721 C.ar      11 UNK        -0.0871 
     12 C12        31.4604  -43.9550  -57.0349 C.ar      11 UNK        -0.1008 
     13 C13        31.0016  -43.3225  -55.8689 C.ar      11 UNK        -0.0735 
     14 C14        31.9107  -43.0685  -54.8356 C.ar      11 UNK        -0.0945 
     15 C15        29.5423  -42.9088  -55.6608 C.3       11 UNK         0.0169 
     16 S16        28.4892  -42.9615  -57.1505 S.3       11 UNK        -0.2669 
     17 C17        26.8718  -42.4799  -56.4542 C.3       11 UNK        -0.0850 
     18 CA         25.9239  -43.6844  -56.2069 C.3       10 UNK         0.0855 
     19 C          24.5848  -43.1917  -55.5828 C.2       10 UNK         0.5543 
     20 N          23.4578  -43.2639  -56.2805 N.am      10 UNK        -0.7343 
     21 O          24.5736  -42.7291  -54.4448 O.2       10 UNK        -0.5027 
     22 N          25.7970  -44.5252  -57.4099 N.am      10 UNK        -0.4495 
     23 C          25.2471  -45.7447  -57.4602 C.2       10 UNK         0.4903 
     24 O          24.6933  -46.2877  -56.5040 O.2       10 UNK        -0.4860 
     25 CA         25.3071  -46.4878  -58.8044 C.3       9 UNK         0.0227 
     26 CB         26.0643  -45.7348  -59.9197 C.3       9 UNK        -0.1964 
     27 N          25.9488  -47.7816  -58.5858 N.am      9 UNK        -0.4231 
     28 C          25.3706  -48.9746  -58.7675 C.2       9 UNK         0.5014 
     29 O          24.2188  -49.1300  -59.1776 O.2       9 UNK        -0.5270 
     30 CA         26.2255  -50.2148  -58.4599 C.3       8 UNK         0.0284 
     31 CB         27.1586  -50.5286  -59.6410 C.3       8 UNK        -0.1977 
     32 N          27.0104  -50.0938  -57.2283 N.am      8 UNK        -0.4342 
     33 C          26.4917  -50.1027  -55.9914 C.2       8 UNK         0.5039 
     34 O          25.2883  -50.2137  -55.7534 O.2       8 UNK        -0.5547 
     35 CA         27.4798  -49.9885  -54.8175 C.3       7 UNK         0.0281 
     36 CB         28.1613  -51.3379  -54.5372 C.3       7 UNK        -0.1963 
     37 N          28.4980  -48.9649  -55.0461 N.am      7 UNK        -0.4444 
     38 C          28.2743  -47.6451  -54.9967 C.2       7 UNK         0.5104 
     39 O          27.2073  -47.1401  -54.6523 O.2       7 UNK        -0.5100 
     40 CA         29.4406  -46.7313  -55.4054 C.3       6 UNK         0.0396 
     41 CB         30.3250  -46.4064  -54.1916 C.3       6 UNK        -0.1801 
     42 N          30.2610  -47.3068  -56.4732 N.am      6 UNK        -0.4747 
     43 C          29.8462  -47.4807  -57.7357 C.2       6 UNK         0.5012 
     44 O          28.7260  -47.1647  -58.1365 O.2       6 UNK        -0.5003 
     45 CA         30.8226  -48.1773  -58.7036 C.3       5 UNK         0.0782 
     46 C46        31.7908  -47.1739  -59.3826 C.3       11 UNK        -0.0868 
     47 S47        33.2695  -46.7569  -58.3859 S.3       11 UNK        -0.2515 
     48 C48        33.3115  -44.9402  -58.4604 C.3       11 UNK         0.0199 
     49 N          31.5314  -49.2964  -58.0763 N.am      5 UNK        -0.4607 
     50 C          30.9581  -50.4144  -57.6162 C.2       4 UNK         0.5031 
     51 O          29.7590  -50.6621  -57.7255 O.2       4 UNK        -0.5119 
     52 CA         31.8690  -51.3876  -56.8483 C.3       4 UNK         0.0263 
     53 CB         32.6271  -52.3032  -57.8221 C.3       4 UNK        -0.1967 
     54 N          32.8213  -50.7053  -55.9623 N.am      4 UNK        -0.4237 
     55 C          32.4635  -49.9081  -54.9462 C.2       3 UNK         0.4908 
     56 O          31.2905  -49.6659  -54.6532 O.2       3 UNK        -0.5102 
     57 CA         33.6002  -49.2202  -54.1737 C.3       3 UNK         0.0241 
     58 CB         34.0846  -47.9705  -54.9290 C.3       3 UNK        -0.1971 
     59 N          33.1590  -48.8141  -52.8401 N.am      3 UNK        -0.4139 
     60 C          32.9701  -49.6389  -51.8018 C.2       2 UNK         0.5016 
     61 O          33.2435  -50.8405  -51.8320 O.2       2 UNK        -0.5319 
     62 CA         32.3540  -49.0302  -50.5220 C.3       2 UNK         0.0286 
     63 CB         32.9497  -49.6421  -49.2357 C.3       2 UNK        -0.1963 
     64 N          32.3833  -47.5585  -50.4645 N.am      2 UNK        -0.4790 
     65 C          33.4658  -46.7625  -50.4207 C.2       1 UNK         0.5024 
     66 O          34.6256  -47.1761  -50.4093 O.2       1 UNK        -0.4888 
     67 H67        30.3924  -45.5090  -46.9063 H         1 UNK         0.0892 
     68 H68        30.9742  -43.8502  -46.7405 H         1 UNK         0.0892 
     69 H69        30.0015  -44.3088  -48.1392 H         1 UNK         0.0892 
     70 H70        31.2388  -44.5510  -49.9832 H         1 UNK         0.3107 
     71 H71        34.0804  -44.7637  -49.9622 H         1 UNK         0.0773 
     72 H72        32.2444  -45.2467  -52.3727 H         1 UNK         0.0680 
     73 H73        32.5916  -43.6592  -51.7482 H         1 UNK         0.0680 
     74 H74        35.1936  -42.8255  -54.2642 H         1 UNK         0.0650 
     75 H75        33.8977  -42.3043  -53.2222 H         1 UNK         0.0650 
     76 H76        34.7355  -44.3327  -56.2257 H         1 UNK         0.1397 
     77 H77        30.7824  -44.1746  -57.8466 H         1 UNK         0.1363 
     78 H78        31.5694  -42.5854  -53.9303 H         1 UNK         0.1355 
     79 H79        29.1031  -43.5516  -54.8968 H         1 UNK         0.0707 
     80 H80        29.5180  -41.8924  -55.2647 H         1 UNK         0.0707 
     81 H81        27.0314  -41.9214  -55.5296 H         1 UNK         0.1034 
     82 H82        26.4092  -41.7755  -57.1482 H         1 UNK         0.1034 
     83 H83        26.3910  -44.3135  -55.4463 H         1 UNK         0.0482 
     84 H84        22.5968  -42.9429  -55.8667 H         1 UNK         0.3460 
     85 H85        23.4598  -43.6493  -57.2110 H         1 UNK         0.3460 
     86 H86        26.2388  -44.1618  -58.2411 H         1 UNK         0.2989 
     87 H87        24.2740  -46.6192  -59.1316 H         1 UNK         0.0559 
     88 H88        25.5875  -44.7818  -60.1525 H         1 UNK         0.0848 
     89 H89        26.0728  -46.3153  -60.8423 H         1 UNK         0.0848 
     90 H90        27.1031  -45.5371  -59.6506 H         1 UNK         0.0848 
     91 H91        26.9061  -47.7404  -58.2432 H         1 UNK         0.3144 
     92 H92        25.5455  -51.0608  -58.3379 H         1 UNK         0.0727 
     93 H93        27.7010  -51.4605  -59.4805 H         1 UNK         0.0790 
     94 H94        27.8924  -49.7370  -59.7968 H         1 UNK         0.0790 
     95 H95        26.5937  -50.6384  -60.5677 H         1 UNK         0.0790 
     96 H96        28.0231  -50.0883  -57.3332 H         1 UNK         0.3215 
     97 H97        26.9099  -49.7078  -53.9288 H         1 UNK         0.0863 
     98 H98        28.8244  -51.2746  -53.6740 H         1 UNK         0.0808 
     99 H99        28.7535  -51.6787  -55.3868 H         1 UNK         0.0808 
    100 H100       27.4216  -52.1106  -54.3239 H         1 UNK         0.0808 
    101 H101       29.4442  -49.2823  -55.2373 H         1 UNK         0.3118 
    102 H102       29.0164  -45.7996  -55.7836 H         1 UNK         0.0546 
    103 H103       29.7724  -45.8173  -53.4591 H         1 UNK         0.0828 
    104 H104       31.2008  -45.8285  -54.4830 H         1 UNK         0.0828 
    105 H105       30.6721  -47.3075  -53.6870 H         1 UNK         0.0828 
    106 H106       31.1826  -47.6307  -56.2204 H         1 UNK         0.3005 
    107 H107       30.1990  -48.6047  -59.4924 H         1 UNK         0.1257 
    108 H108       32.1547  -47.6114  -60.3135 H         1 UNK         0.0775 
    109 H109       31.2599  -46.2681  -59.6817 H         1 UNK         0.0775 
    110 H110       34.3424  -44.6288  -58.6357 H         1 UNK         0.0840 
    111 H111       32.7462  -44.5711  -59.3170 H         1 UNK         0.0840 
    112 H112       32.5226  -49.1620  -57.9378 H         1 UNK         0.2987 
    113 H113       31.2265  -52.0115  -56.2234 H         1 UNK         0.0785 
    114 H114       33.2031  -53.0596  -57.2888 H         1 UNK         0.0798 
    115 H115       33.3143  -51.7420  -58.4566 H         1 UNK         0.0798 
    116 H116       31.9341  -52.8309  -58.4792 H         1 UNK         0.0798 
    117 H117       33.8033  -50.8513  -56.1491 H         1 UNK         0.3079 
    118 H118       34.4318  -49.9204  -54.0695 H         1 UNK         0.0794 
    119 H119       34.4759  -48.2314  -55.9129 H         1 UNK         0.0786 
    120 H120       34.8881  -47.4683  -54.3894 H         1 UNK         0.0786 
    121 H121       33.2836  -47.2450  -55.0783 H         1 UNK         0.0786 
    122 H122       32.8959  -47.8481  -52.7256 H         1 UNK         0.3032 
    123 H123       31.2988  -49.3072  -50.5534 H         1 UNK         0.1094 
    124 H124       34.0261  -49.4816  -49.1703 H         1 UNK         0.0794 
    125 H125       32.4918  -49.2144  -48.3437 H         1 UNK         0.0794 
    126 H126       32.7812  -50.7191  -49.1990 H         1 UNK         0.0794 
    127 H127       31.4776  -47.1096  -50.4568 H         1 UNK         0.3016 
@<TRIPOS>BOND
     1    1    2 1    
     2    1   67 1    
     3    1   68 1    
     4    1   69 1    
     5    2    3 2    
     6    2    4 am   BACKBONE|DICT|INTERRES
     7    4    5 1    
     8    4   70 1    
     9    5    6 1    
    10    5   65 1    
    11    5   71 1    
    12    6    7 1    
    13    6   72 1    
    14    6   73 1    
    15    7    8 1    
    16    8    9 1    
    17    8   74 1    
    18    8   75 1    
    19    9   10 ar   
    20    9   14 ar   
    21   10   11 ar   
    22   10   76 1    
    23   11   12 ar   
    24   11   48 1    
    25   12   13 ar   
    26   12   77 1    
    27   13   14 ar   
    28   13   15 1    
    29   14   78 1    
    30   15   16 1    
    31   15   79 1    
    32   15   80 1    
    33   16   17 1    
    34   17   18 1    
    35   17   81 1    
    36   17   82 1    
    37   18   19 1    
    38   18   22 1    
    39   18   83 1    
    40   19   20 am   BACKBONE|DICT|INTERRES
    41   19   21 2    
    42   20   84 1    
    43   20   85 1    
    44   22   23 am   BACKBONE|DICT|INTERRES
    45   22   86 1    
    46   23   24 2    
    47   23   25 1    
    48   25   26 1    
    49   25   27 1    
    50   25   87 1    
    51   26   88 1    
    52   26   89 1    
    53   26   90 1    
    54   27   28 am   BACKBONE|DICT|INTERRES
    55   27   91 1    
    56   28   29 2    
    57   28   30 1    
    58   30   31 1    
    59   30   32 1    
    60   30   92 1    
    61   31   93 1    
    62   31   94 1    
    63   31   95 1    
    64   32   33 am   BACKBONE|DICT|INTERRES
    65   32   96 1    
    66   33   34 2    
    67   33   35 1    
    68   35   36 1    
    69   35   37 1    
    70   35   97 1    
    71   36   98 1    
    72   36   99 1    
    73   36  100 1    
    74   37   38 am   BACKBONE|DICT|INTERRES
    75   37  101 1    
    76   38   39 2    
    77   38   40 1    
    78   40   41 1    
    79   40   42 1    
    80   40  102 1    
    81   41  103 1    
    82   41  104 1    
    83   41  105 1    
    84   42   43 am   BACKBONE|DICT|INTERRES
    85   42  106 1    
    86   43   44 2    
    87   43   45 1    
    88   45   46 1    
    89   45   49 1    
    90   45  107 1    
    91   46   47 1    
    92   46  108 1    
    93   46  109 1    
    94   47   48 1    
    95   48  110 1    
    96   48  111 1    
    97   49   50 am   BACKBONE|DICT|INTERRES
    98   49  112 1    
    99   50   51 2    
   100   50   52 1    
   101   52   53 1    
   102   52   54 1    
   103   52  113 1    
   104   53  114 1    
   105   53  115 1    
   106   53  116 1    
   107   54   55 am   BACKBONE|DICT|INTERRES
   108   54  117 1    
   109   55   56 2    
   110   55   57 1    
   111   57   58 1    
   112   57   59 1    
   113   57  118 1    
   114   58  119 1    
   115   58  120 1    
   116   58  121 1    
   117   59   60 am   BACKBONE|DICT|INTERRES
   118   59  122 1    
   119   60   61 2    
   120   60   62 1    
   121   62   63 1    
   122   62   64 1    
   123   62  123 1    
   124   63  124 1    
   125   63  125 1    
   126   63  126 1    
   127   64   65 am   BACKBONE|DICT|INTERRES
   128   64  127 1    
   129   65   66 2    
@<TRIPOS>SUBSTRUCTURE
     1 UNK         1 GROUP             0       ****    0 ROOT    
