@<TRIPOS>MOLECULE
3R134
127   129    1
SMALL
USER_CHARGES


@<TRIPOS>ATOM
      1 CA         30.4733  -46.9181  -49.0971 C.3       0 UNK        -0.1968 
      2 C          31.9307  -46.5011  -49.2303 C.2       0 UNK         0.4852 
      3 O          32.8023  -47.1206  -48.6191 O.2       0 UNK        -0.5359 
      4 N          32.2001  -45.4580  -50.0269 N.am      1 UNK        -0.4300 
      5 CA         33.5430  -44.9496  -50.3410 C.3       1 UNK         0.0863 
      6 C6         33.4893  -43.5306  -50.9657 C.3       11 UNK        -0.0953 
      7 S7         32.3686  -43.4144  -52.4026 S.3       11 UNK        -0.2369 
      8 C8         33.3164  -42.3680  -53.5482 C.3       11 UNK         0.0226 
      9 C9         32.6795  -42.4216  -54.9258 C.ar      11 UNK        -0.0699 
     10 C10        33.1634  -43.3195  -55.8801 C.ar      11 UNK        -0.0804 
     11 C11        32.5038  -43.4778  -57.1026 C.ar      11 UNK        -0.0871 
     12 C12        31.3822  -42.6945  -57.3846 C.ar      11 UNK        -0.1008 
     13 C13        30.8965  -41.7842  -56.4427 C.ar      11 UNK        -0.0735 
     14 C14        31.5574  -41.6399  -55.2188 C.ar      11 UNK        -0.0945 
     15 C15        29.6245  -41.0022  -56.7341 C.3       11 UNK         0.0169 
     16 S16        28.2200  -41.5274  -55.6929 S.3       11 UNK        -0.2669 
     17 C17        28.1249  -43.3347  -55.9592 C.3       11 UNK        -0.0850 
     18 CA         27.1542  -43.7352  -57.1039 C.3       10 UNK         0.0855 
     19 C          27.8908  -43.8664  -58.4599 C.2       10 UNK         0.5543 
     20 N          27.6771  -42.9358  -59.3796 N.am      10 UNK        -0.7343 
     21 O          28.6803  -44.7845  -58.6713 O.2       10 UNK        -0.5027 
     22 N          26.4749  -44.9958  -56.7871 N.am      10 UNK        -0.4495 
     23 C          25.1526  -45.1971  -56.8198 C.2       10 UNK         0.4903 
     24 O          24.3314  -44.3263  -57.1137 O.2       10 UNK        -0.4860 
     25 CA         24.6713  -46.6103  -56.4377 C.3       9 UNK         0.0227 
     26 CB         23.1605  -46.8275  -56.6702 C.3       9 UNK        -0.1964 
     27 N          25.4618  -47.6701  -57.0711 N.am      9 UNK        -0.4231 
     28 C          25.5841  -47.9353  -58.3810 C.2       9 UNK         0.5014 
     29 O          24.9851  -47.3197  -59.2643 O.2       9 UNK        -0.5270 
     30 CA         26.5411  -49.0730  -58.7950 C.3       8 UNK         0.0284 
     31 CB         27.7412  -48.5029  -59.5699 C.3       8 UNK        -0.1977 
     32 N          27.0354  -49.8797  -57.6734 N.am      8 UNK        -0.4342 
     33 C          26.3100  -50.7764  -56.9903 C.2       8 UNK         0.5039 
     34 O          25.1528  -51.0822  -57.2796 O.2       8 UNK        -0.5547 
     35 CA         26.9689  -51.4060  -55.7489 C.3       7 UNK         0.0281 
     36 CB         27.8297  -52.6171  -56.1418 C.3       7 UNK        -0.1963 
     37 N          27.7740  -50.4516  -54.9778 N.am      7 UNK        -0.4444 
     38 C          27.2826  -49.3677  -54.3574 C.2       7 UNK         0.5104 
     39 O          26.0867  -49.0789  -54.3298 O.2       7 UNK        -0.5100 
     40 CA         28.2980  -48.4050  -53.7183 C.3       6 UNK         0.0396 
     41 CB         28.7800  -48.9267  -52.3560 C.3       6 UNK        -0.1801 
     42 N          29.4452  -48.1528  -54.5916 N.am      6 UNK        -0.4747 
     43 C          29.3704  -47.5542  -55.7901 C.2       6 UNK         0.5012 
     44 O          28.3341  -47.0690  -56.2414 O.2       6 UNK        -0.5003 
     45 CA         30.6503  -47.5337  -56.6458 C.3       5 UNK         0.0782 
     46 C46        31.5196  -46.3097  -56.2989 C.3       11 UNK        -0.0868 
     47 S47        33.0436  -46.2128  -57.3104 S.3       11 UNK        -0.2515 
     48 C48        32.9338  -44.5611  -58.0840 C.3       11 UNK         0.0199 
     49 N          31.3883  -48.7920  -56.5266 N.am      5 UNK        -0.4607 
     50 C          30.9810  -49.9578  -57.0402 C.2       4 UNK         0.5031 
     51 O          29.9366  -50.0979  -57.6745 O.2       4 UNK        -0.5119 
     52 CA         31.8733  -51.1775  -56.7638 C.3       4 UNK         0.0263 
     53 CB         33.0354  -51.2366  -57.7678 C.3       4 UNK        -0.1967 
     54 N          32.4001  -51.1867  -55.3963 N.am      4 UNK        -0.4237 
     55 C          31.6400  -51.3223  -54.3005 C.2       3 UNK         0.4908 
     56 O          30.4194  -51.4807  -54.3278 O.2       3 UNK        -0.5102 
     57 CA         32.3577  -51.2305  -52.9449 C.3       3 UNK         0.0241 
     58 CB         33.0006  -52.5783  -52.5796 C.3       3 UNK        -0.1971 
     59 N          33.3651  -50.1648  -52.8753 N.am      3 UNK        -0.4139 
     60 C          33.0941  -48.8583  -52.9968 C.2       2 UNK         0.5016 
     61 O          31.9814  -48.4095  -53.2837 O.2       2 UNK        -0.5319 
     62 CA         34.2462  -47.8795  -52.7542 C.3       2 UNK         0.0286 
     63 CB         34.8654  -47.3966  -54.0761 C.3       2 UNK        -0.1963 
     64 N          33.6963  -46.7530  -52.0099 N.am      2 UNK        -0.4790 
     65 C          34.3736  -45.9367  -51.1942 C.2       1 UNK         0.5024 
     66 O          35.5990  -45.9622  -51.0694 O.2       1 UNK        -0.4888 
     67 H67        30.1454  -46.8113  -48.0635 H         1 UNK         0.0892 
     68 H68        30.3547  -47.9621  -49.3863 H         1 UNK         0.0892 
     69 H69        29.8169  -46.3165  -49.7258 H         1 UNK         0.0892 
     70 H70        31.4453  -44.9818  -50.5013 H         1 UNK         0.3107 
     71 H71        34.0748  -44.8577  -49.3914 H         1 UNK         0.0773 
     72 H72        33.1370  -42.8188  -50.2177 H         1 UNK         0.0680 
     73 H73        34.4908  -43.1942  -51.2406 H         1 UNK         0.0680 
     74 H74        33.3394  -41.3423  -53.1772 H         1 UNK         0.0650 
     75 H75        34.3507  -42.7125  -53.5958 H         1 UNK         0.0650 
     76 H76        34.0127  -43.9469  -55.6455 H         1 UNK         0.1397 
     77 H77        30.8553  -42.8291  -58.3198 H         1 UNK         0.1363 
     78 H78        31.1654  -40.9602  -54.4745 H         1 UNK         0.1355 
     79 H79        29.3426  -41.0966  -57.7837 H         1 UNK         0.0707 
     80 H80        29.8106  -39.9408  -56.5646 H         1 UNK         0.0707 
     81 H81        27.7652  -43.7455  -55.0143 H         1 UNK         0.1034 
     82 H82        29.1155  -43.7730  -56.0850 H         1 UNK         0.1034 
     83 H83        26.4028  -42.9488  -57.1994 H         1 UNK         0.0482 
     84 H84        27.0349  -42.1769  -59.2131 H         1 UNK         0.3460 
     85 H85        28.1542  -43.0040  -60.2646 H         1 UNK         0.3460 
     86 H86        27.0918  -45.7874  -56.6079 H         1 UNK         0.2989 
     87 H87        24.8508  -46.7073  -55.3661 H         1 UNK         0.0559 
     88 H88        22.8858  -46.6934  -57.7168 H         1 UNK         0.0848 
     89 H89        22.5706  -46.1187  -56.0878 H         1 UNK         0.0848 
     90 H90        22.8532  -47.8286  -56.3678 H         1 UNK         0.0848 
     91 H91        26.0165  -48.2260  -56.4320 H         1 UNK         0.3144 
     92 H92        25.9868  -49.7322  -59.4662 H         1 UNK         0.0727 
     93 H93        27.4126  -47.9625  -60.4586 H         1 UNK         0.0790 
     94 H94        28.4145  -49.2931  -59.9025 H         1 UNK         0.0790 
     95 H95        28.3150  -47.8035  -58.9616 H         1 UNK         0.0790 
     96 H96        28.0145  -49.7605  -57.4262 H         1 UNK         0.3215 
     97 H97        26.1669  -51.7590  -55.0970 H         1 UNK         0.0863 
     98 H98        28.2367  -53.1159  -55.2621 H         1 UNK         0.0808 
     99 H99        28.6662  -52.3302  -56.7792 H         1 UNK         0.0808 
    100 H100       27.2400  -53.3538  -56.6890 H         1 UNK         0.0808 
    101 H101       28.7696  -50.6470  -54.9014 H         1 UNK         0.3118 
    102 H102       27.7940  -47.4504  -53.5532 H         1 UNK         0.0546 
    103 H103       27.9401  -49.0781  -51.6769 H         1 UNK         0.0828 
    104 H104       29.4595  -48.2192  -51.8808 H         1 UNK         0.0828 
    105 H105       29.3022  -49.8789  -52.4471 H         1 UNK         0.0828 
    106 H106       30.3552  -48.4580  -54.2523 H         1 UNK         0.3005 
    107 H107       30.3349  -47.4297  -57.6866 H         1 UNK         0.1257 
    108 H108       31.8107  -46.3236  -55.2466 H         1 UNK         0.0775 
    109 H109       30.9233  -45.4075  -56.4340 H         1 UNK         0.0775 
    110 H110       33.9042  -44.2988  -58.5072 H         1 UNK         0.0840 
    111 H111       32.2368  -44.6223  -58.9216 H         1 UNK         0.0840 
    112 H112       32.2460  -48.7588  -55.9970 H         1 UNK         0.2987 
    113 H113       31.2612  -52.0724  -56.8955 H         1 UNK         0.0785 
    114 H114       32.6625  -51.2487  -58.7931 H         1 UNK         0.0798 
    115 H115       33.6321  -52.1387  -57.6317 H         1 UNK         0.0798 
    116 H116       33.6990  -50.3760  -57.6732 H         1 UNK         0.0798 
    117 H117       33.3955  -51.0626  -55.2825 H         1 UNK         0.3079 
    118 H118       31.5973  -51.0070  -52.1935 H         1 UNK         0.0794 
    119 H119       33.8039  -52.8457  -53.2673 H         1 UNK         0.0786 
    120 H120       32.2640  -53.3826  -52.6105 H         1 UNK         0.0786 
    121 H121       33.4137  -52.5604  -51.5709 H         1 UNK         0.0786 
    122 H122       34.3073  -50.4494  -52.6476 H         1 UNK         0.3032 
    123 H123       35.0110  -48.3718  -52.1490 H         1 UNK         0.1094 
    124 H124       35.2083  -48.2352  -54.6833 H         1 UNK         0.0794 
    125 H125       34.1470  -46.8314  -54.6680 H         1 UNK         0.0794 
    126 H126       35.7258  -46.7516  -53.8976 H         1 UNK         0.0794 
    127 H127       32.6872  -46.6821  -52.0555 H         1 UNK         0.3016 
@<TRIPOS>BOND
     1    1    2 1    
     2    1   67 1    
     3    1   68 1    
     4    1   69 1    
     5    2    3 2    
     6    2    4 am   BACKBONE|DICT|INTERRES
     7    4    5 1    
     8    4   70 1    
     9    5    6 1    
    10    5   65 1    
    11    5   71 1    
    12    6    7 1    
    13    6   72 1    
    14    6   73 1    
    15    7    8 1    
    16    8    9 1    
    17    8   74 1    
    18    8   75 1    
    19    9   10 ar   
    20    9   14 ar   
    21   10   11 ar   
    22   10   76 1    
    23   11   12 ar   
    24   11   48 1    
    25   12   13 ar   
    26   12   77 1    
    27   13   14 ar   
    28   13   15 1    
    29   14   78 1    
    30   15   16 1    
    31   15   79 1    
    32   15   80 1    
    33   16   17 1    
    34   17   18 1    
    35   17   81 1    
    36   17   82 1    
    37   18   19 1    
    38   18   22 1    
    39   18   83 1    
    40   19   20 am   BACKBONE|DICT|INTERRES
    41   19   21 2    
    42   20   84 1    
    43   20   85 1    
    44   22   23 am   BACKBONE|DICT|INTERRES
    45   22   86 1    
    46   23   24 2    
    47   23   25 1    
    48   25   26 1    
    49   25   27 1    
    50   25   87 1    
    51   26   88 1    
    52   26   89 1    
    53   26   90 1    
    54   27   28 am   BACKBONE|DICT|INTERRES
    55   27   91 1    
    56   28   29 2    
    57   28   30 1    
    58   30   31 1    
    59   30   32 1    
    60   30   92 1    
    61   31   93 1    
    62   31   94 1    
    63   31   95 1    
    64   32   33 am   BACKBONE|DICT|INTERRES
    65   32   96 1    
    66   33   34 2    
    67   33   35 1    
    68   35   36 1    
    69   35   37 1    
    70   35   97 1    
    71   36   98 1    
    72   36   99 1    
    73   36  100 1    
    74   37   38 am   BACKBONE|DICT|INTERRES
    75   37  101 1    
    76   38   39 2    
    77   38   40 1    
    78   40   41 1    
    79   40   42 1    
    80   40  102 1    
    81   41  103 1    
    82   41  104 1    
    83   41  105 1    
    84   42   43 am   BACKBONE|DICT|INTERRES
    85   42  106 1    
    86   43   44 2    
    87   43   45 1    
    88   45   46 1    
    89   45   49 1    
    90   45  107 1    
    91   46   47 1    
    92   46  108 1    
    93   46  109 1    
    94   47   48 1    
    95   48  110 1    
    96   48  111 1    
    97   49   50 am   BACKBONE|DICT|INTERRES
    98   49  112 1    
    99   50   51 2    
   100   50   52 1    
   101   52   53 1    
   102   52   54 1    
   103   52  113 1    
   104   53  114 1    
   105   53  115 1    
   106   53  116 1    
   107   54   55 am   BACKBONE|DICT|INTERRES
   108   54  117 1    
   109   55   56 2    
   110   55   57 1    
   111   57   58 1    
   112   57   59 1    
   113   57  118 1    
   114   58  119 1    
   115   58  120 1    
   116   58  121 1    
   117   59   60 am   BACKBONE|DICT|INTERRES
   118   59  122 1    
   119   60   61 2    
   120   60   62 1    
   121   62   63 1    
   122   62   64 1    
   123   62  123 1    
   124   63  124 1    
   125   63  125 1    
   126   63  126 1    
   127   64   65 am   BACKBONE|DICT|INTERRES
   128   64  127 1    
   129   65   66 2    
@<TRIPOS>SUBSTRUCTURE
     1 UNK         1 GROUP             0       ****    0 ROOT    
