@<TRIPOS>MOLECULE
3R134
127   129    1
SMALL
USER_CHARGES


@<TRIPOS>ATOM
      1 CA         29.8701  -45.3802  -52.1934 C.3       0 UNK        -0.1968 
      2 C          31.2205  -45.4477  -51.4972 C.2       0 UNK         0.4852 
      3 O          31.3081  -45.9520  -50.3776 O.2       0 UNK        -0.5359 
      4 N          32.2742  -44.9434  -52.1518 N.am      1 UNK        -0.4300 
      5 CA         33.6374  -44.8436  -51.6080 C.3       1 UNK         0.0863 
      6 C6         34.4088  -43.6501  -52.2317 C.3       11 UNK        -0.0953 
      7 S7         33.5569  -42.0568  -51.9429 S.3       11 UNK        -0.2369 
      8 C8         33.3741  -41.3663  -53.6204 C.3       11 UNK         0.0226 
      9 C9         32.4454  -42.1943  -54.4975 C.ar      11 UNK        -0.0699 
     10 C10        32.9777  -43.0156  -55.4950 C.ar      11 UNK        -0.0804 
     11 C11        32.1382  -43.8043  -56.2839 C.ar      11 UNK        -0.0871 
     12 C12        30.7553  -43.7468  -56.0921 C.ar      11 UNK        -0.1008 
     13 C13        30.2087  -42.9249  -55.1045 C.ar      11 UNK        -0.0735 
     14 C14        31.0587  -42.1454  -54.3117 C.ar      11 UNK        -0.0945 
     15 C15        28.7071  -42.9328  -54.8555 C.3       11 UNK         0.0169 
     16 S16        27.8355  -41.6181  -55.7645 S.3       11 UNK        -0.2669 
     17 C17        27.8605  -42.2082  -57.4953 C.3       11 UNK        -0.0850 
     18 CA         26.5612  -42.9611  -57.8948 C.3       10 UNK         0.0855 
     19 C          26.4179  -43.1059  -59.4407 C.2       10 UNK         0.5543 
     20 N          26.0730  -44.2683  -59.9831 N.am      10 UNK        -0.7343 
     21 O          26.6106  -42.1358  -60.1693 O.2       10 UNK        -0.5027 
     22 N          26.4325  -44.2375  -57.1714 N.am      10 UNK        -0.4495 
     23 C          25.2798  -44.7618  -56.7407 C.2       10 UNK         0.4903 
     24 O          24.1892  -44.1957  -56.8341 O.2       10 UNK        -0.4860 
     25 CA         25.3742  -46.1677  -56.1157 C.3       9 UNK         0.0227 
     26 CB         23.9923  -46.8057  -55.8621 C.3       9 UNK        -0.1964 
     27 N          26.2263  -47.0876  -56.8807 N.am      9 UNK        -0.4231 
     28 C          26.0904  -47.4575  -58.1637 C.2       9 UNK         0.5014 
     29 O          25.2537  -46.9839  -58.9332 O.2       9 UNK        -0.5270 
     30 CA         27.0585  -48.5355  -58.6851 C.3       8 UNK         0.0284 
     31 CB         28.3354  -47.8869  -59.2443 C.3       8 UNK        -0.1977 
     32 N          27.4114  -49.5354  -57.6709 N.am      8 UNK        -0.4342 
     33 C          26.5564  -50.4291  -57.1499 C.2       8 UNK         0.5039 
     34 O          25.3935  -50.5677  -57.5317 O.2       8 UNK        -0.5547 
     35 CA         27.0730  -51.3003  -55.9897 C.3       7 UNK         0.0281 
     36 CB         27.8605  -52.5123  -56.5128 C.3       7 UNK        -0.1963 
     37 N          27.8915  -50.5412  -55.0404 N.am      7 UNK        -0.4444 
     38 C          27.4172  -49.5691  -54.2470 C.2       7 UNK         0.5104 
     39 O          26.2253  -49.2764  -54.1574 O.2       7 UNK        -0.5100 
     40 CA         28.4463  -48.7538  -53.4474 C.3       6 UNK         0.0396 
     41 CB         28.7627  -49.4312  -52.1054 C.3       6 UNK        -0.1801 
     42 N          29.6882  -48.5250  -54.1884 N.am      6 UNK        -0.4747 
     43 C          29.7893  -47.7868  -55.3021 C.2       6 UNK         0.5012 
     44 O          28.8502  -47.1564  -55.7871 O.2       6 UNK        -0.5003 
     45 CA         31.1551  -47.7727  -56.0156 C.3       5 UNK         0.0782 
     46 C46        32.1187  -46.7727  -55.3472 C.3       11 UNK        -0.0868 
     47 S47        33.4598  -46.2382  -56.4616 S.3       11 UNK        -0.2515 
     48 C48        32.7260  -44.7845  -57.2869 C.3       11 UNK         0.0199 
     49 N          31.7491  -49.1070  -56.0773 N.am      5 UNK        -0.4607 
     50 C          31.2515  -50.1439  -56.7579 C.2       4 UNK         0.5031 
     51 O          30.2485  -50.0781  -57.4668 O.2       4 UNK        -0.5119 
     52 CA         31.9776  -51.4868  -56.5741 C.3       4 UNK         0.0263 
     53 CB         33.1422  -51.6102  -57.5689 C.3       4 UNK        -0.1967 
     54 N          32.4754  -51.6707  -55.2053 N.am      4 UNK        -0.4237 
     55 C          31.6837  -51.8262  -54.1338 C.2       3 UNK         0.4908 
     56 O          30.4545  -51.8724  -54.1951 O.2       3 UNK        -0.5102 
     57 CA         32.3789  -51.8947  -52.7614 C.3       3 UNK         0.0241 
     58 CB         32.9860  -53.2873  -52.5261 C.3       3 UNK        -0.1971 
     59 N          33.4076  -50.8623  -52.5678 N.am      3 UNK        -0.4139 
     60 C          33.1607  -49.5452  -52.5748 C.2       2 UNK         0.5016 
     61 O          32.0418  -49.0679  -52.7777 O.2       2 UNK        -0.5319 
     62 CA         34.3490  -48.5962  -52.3559 C.3       2 UNK         0.0286 
     63 CB         35.3116  -48.6285  -53.5603 C.3       2 UNK        -0.1963 
     64 N          33.8109  -47.2486  -52.1720 N.am      2 UNK        -0.4790 
     65 C          34.4425  -46.1655  -51.7054 C.2       1 UNK         0.5024 
     66 O          35.6220  -46.1810  -51.3499 O.2       1 UNK        -0.4888 
     67 H67        29.9710  -45.3123  -53.2754 H         1 UNK         0.0892 
     68 H68        29.2868  -46.2701  -51.9640 H         1 UNK         0.0892 
     69 H69        29.3131  -44.5112  -51.8448 H         1 UNK         0.0892 
     70 H70        32.1422  -44.5092  -53.0547 H         1 UNK         0.3107 
     71 H71        33.5529  -44.6392  -50.5383 H         1 UNK         0.0773 
     72 H72        34.5649  -43.8095  -53.2990 H         1 UNK         0.0680 
     73 H73        35.4040  -43.5639  -51.7919 H         1 UNK         0.0680 
     74 H74        34.3605  -41.2732  -54.0776 H         1 UNK         0.0650 
     75 H75        32.9801  -40.3523  -53.5398 H         1 UNK         0.0650 
     76 H76        34.0486  -43.0708  -55.6368 H         1 UNK         0.1397 
     77 H77        30.1078  -44.3823  -56.6805 H         1 UNK         0.1363 
     78 H78        30.6438  -41.5150  -53.5369 H         1 UNK         0.1355 
     79 H79        28.5172  -42.7961  -53.7900 H         1 UNK         0.0707 
     80 H80        28.2828  -43.9050  -55.1091 H         1 UNK         0.0707 
     81 H81        27.9887  -41.3177  -58.1135 H         1 UNK         0.1034 
     82 H82        28.7398  -42.8201  -57.6882 H         1 UNK         0.1034 
     83 H83        25.7277  -42.3185  -57.6048 H         1 UNK         0.0482 
     84 H84        25.9819  -44.3288  -60.9845 H         1 UNK         0.3460 
     85 H85        25.8447  -45.0732  -59.4119 H         1 UNK         0.3460 
     86 H86        27.2716  -44.7911  -57.0850 H         1 UNK         0.2989 
     87 H87        25.8609  -46.0401  -55.1477 H         1 UNK         0.0559 
     88 H88        23.3891  -46.1857  -55.1979 H         1 UNK         0.0848 
     89 H89        24.0902  -47.7840  -55.3908 H         1 UNK         0.0848 
     90 H90        23.4310  -46.9351  -56.7881 H         1 UNK         0.0848 
     91 H91        27.0326  -47.4486  -56.3777 H         1 UNK         0.3144 
     92 H92        26.5582  -49.0572  -59.5037 H         1 UNK         0.0727 
     93 H93        28.8855  -47.3438  -58.4763 H         1 UNK         0.0790 
     94 H94        28.0961  -47.1760  -60.0364 H         1 UNK         0.0790 
     95 H95        29.0056  -48.6337  -59.6706 H         1 UNK         0.0790 
     96 H96        28.3822  -49.5618  -57.3698 H         1 UNK         0.3215 
     97 H97        26.2022  -51.6759  -55.4476 H         1 UNK         0.0863 
     98 H98        28.1990  -53.1487  -55.6948 H         1 UNK         0.0808 
     99 H99        28.7363  -52.2132  -57.0875 H         1 UNK         0.0808 
    100 H100       27.2386  -53.1257  -57.1659 H         1 UNK         0.0808 
    101 H101       28.8788  -50.7702  -54.9875 H         1 UNK         0.3118 
    102 H102       27.9971  -47.7808  -53.2402 H         1 UNK         0.0546 
    103 H103       29.2246  -50.4088  -52.2454 H         1 UNK         0.0828 
    104 H104       27.8552  -49.5789  -51.5188 H         1 UNK         0.0828 
    105 H105       29.4430  -48.8259  -51.5059 H         1 UNK         0.0828 
    106 H106       30.5314  -48.9472  -53.8021 H         1 UNK         0.3005 
    107 H107       30.9629  -47.4451  -57.0397 H         1 UNK         0.1257 
    108 H108       31.5944  -45.9132  -54.9404 H         1 UNK         0.0775 
    109 H109       32.5875  -47.2293  -54.4819 H         1 UNK         0.0775 
    110 H110       33.4928  -44.2861  -57.8816 H         1 UNK         0.0840 
    111 H111       31.9638  -45.1203  -57.9917 H         1 UNK         0.0840 
    112 H112       32.5685  -49.2564  -55.5099 H         1 UNK         0.2987 
    113 H113       31.2608  -52.2832  -56.7850 H         1 UNK         0.0785 
    114 H114       32.7904  -51.4955  -58.5952 H         1 UNK         0.0798 
    115 H115       33.6208  -52.5874  -57.5002 H         1 UNK         0.0798 
    116 H116       33.9048  -50.8490  -57.3992 H         1 UNK         0.0798 
    117 H117       33.4759  -51.6528  -55.0706 H         1 UNK         0.3079 
    118 H118       31.6089  -51.7322  -52.0038 H         1 UNK         0.0794 
    119 H119       33.3779  -53.3826  -51.5132 H         1 UNK         0.0786 
    120 H120       33.7984  -53.5010  -53.2218 H         1 UNK         0.0786 
    121 H121       32.2337  -54.0672  -52.6539 H         1 UNK         0.0786 
    122 H122       34.3499  -51.1841  -52.3974 H         1 UNK         0.3032 
    123 H123       34.8731  -48.8974  -51.4463 H         1 UNK         0.1094 
    124 H124       34.8150  -48.3333  -54.4849 H         1 UNK         0.0794 
    125 H125       36.1583  -47.9582  -53.4127 H         1 UNK         0.0794 
    126 H126       35.7228  -49.6267  -53.7142 H         1 UNK         0.0794 
    127 H127       32.8170  -47.1907  -52.3598 H         1 UNK         0.3016 
@<TRIPOS>BOND
     1    1    2 1    
     2    1   67 1    
     3    1   68 1    
     4    1   69 1    
     5    2    3 2    
     6    2    4 am   BACKBONE|DICT|INTERRES
     7    4    5 1    
     8    4   70 1    
     9    5    6 1    
    10    5   65 1    
    11    5   71 1    
    12    6    7 1    
    13    6   72 1    
    14    6   73 1    
    15    7    8 1    
    16    8    9 1    
    17    8   74 1    
    18    8   75 1    
    19    9   10 ar   
    20    9   14 ar   
    21   10   11 ar   
    22   10   76 1    
    23   11   12 ar   
    24   11   48 1    
    25   12   13 ar   
    26   12   77 1    
    27   13   14 ar   
    28   13   15 1    
    29   14   78 1    
    30   15   16 1    
    31   15   79 1    
    32   15   80 1    
    33   16   17 1    
    34   17   18 1    
    35   17   81 1    
    36   17   82 1    
    37   18   19 1    
    38   18   22 1    
    39   18   83 1    
    40   19   20 am   BACKBONE|DICT|INTERRES
    41   19   21 2    
    42   20   84 1    
    43   20   85 1    
    44   22   23 am   BACKBONE|DICT|INTERRES
    45   22   86 1    
    46   23   24 2    
    47   23   25 1    
    48   25   26 1    
    49   25   27 1    
    50   25   87 1    
    51   26   88 1    
    52   26   89 1    
    53   26   90 1    
    54   27   28 am   BACKBONE|DICT|INTERRES
    55   27   91 1    
    56   28   29 2    
    57   28   30 1    
    58   30   31 1    
    59   30   32 1    
    60   30   92 1    
    61   31   93 1    
    62   31   94 1    
    63   31   95 1    
    64   32   33 am   BACKBONE|DICT|INTERRES
    65   32   96 1    
    66   33   34 2    
    67   33   35 1    
    68   35   36 1    
    69   35   37 1    
    70   35   97 1    
    71   36   98 1    
    72   36   99 1    
    73   36  100 1    
    74   37   38 am   BACKBONE|DICT|INTERRES
    75   37  101 1    
    76   38   39 2    
    77   38   40 1    
    78   40   41 1    
    79   40   42 1    
    80   40  102 1    
    81   41  103 1    
    82   41  104 1    
    83   41  105 1    
    84   42   43 am   BACKBONE|DICT|INTERRES
    85   42  106 1    
    86   43   44 2    
    87   43   45 1    
    88   45   46 1    
    89   45   49 1    
    90   45  107 1    
    91   46   47 1    
    92   46  108 1    
    93   46  109 1    
    94   47   48 1    
    95   48  110 1    
    96   48  111 1    
    97   49   50 am   BACKBONE|DICT|INTERRES
    98   49  112 1    
    99   50   51 2    
   100   50   52 1    
   101   52   53 1    
   102   52   54 1    
   103   52  113 1    
   104   53  114 1    
   105   53  115 1    
   106   53  116 1    
   107   54   55 am   BACKBONE|DICT|INTERRES
   108   54  117 1    
   109   55   56 2    
   110   55   57 1    
   111   57   58 1    
   112   57   59 1    
   113   57  118 1    
   114   58  119 1    
   115   58  120 1    
   116   58  121 1    
   117   59   60 am   BACKBONE|DICT|INTERRES
   118   59  122 1    
   119   60   61 2    
   120   60   62 1    
   121   62   63 1    
   122   62   64 1    
   123   62  123 1    
   124   63  124 1    
   125   63  125 1    
   126   63  126 1    
   127   64   65 am   BACKBONE|DICT|INTERRES
   128   64  127 1    
   129   65   66 2    
@<TRIPOS>SUBSTRUCTURE
     1 UNK         1 GROUP             0       ****    0 ROOT    
