@<TRIPOS>MOLECULE
3R134
127   129    1
SMALL
USER_CHARGES


@<TRIPOS>ATOM
      1 CA         36.4565  -47.1023  -55.4984 C.3       0 UNK        -0.1968 
      2 C          35.2492  -46.6644  -54.6847 C.2       0 UNK         0.4852 
      3 O          34.1977  -47.3042  -54.7671 O.2       0 UNK        -0.5359 
      4 N          35.3965  -45.5965  -53.8861 N.am      1 UNK        -0.4300 
      5 CA         34.3625  -44.9541  -53.0569 C.3       1 UNK         0.0863 
      6 C6         34.7718  -43.5129  -52.6461 C.3       11 UNK        -0.0953 
      7 S7         35.0980  -42.4227  -54.0747 S.3       11 UNK        -0.2369 
      8 C8         33.5720  -41.4285  -54.1511 C.3       11 UNK         0.0226 
      9 C9         32.3813  -42.2684  -54.5866 C.ar      11 UNK        -0.0699 
     10 C10        31.4859  -42.7720  -53.6380 C.ar      11 UNK        -0.0804 
     11 C11        30.4342  -43.6045  -54.0305 C.ar      11 UNK        -0.0871 
     12 C12        30.2699  -43.9151  -55.3819 C.ar      11 UNK        -0.1008 
     13 C13        31.1277  -43.3764  -56.3455 C.ar      11 UNK        -0.0735 
     14 C14        32.1886  -42.5618  -55.9399 C.ar      11 UNK        -0.0945 
     15 C15        30.9442  -43.7240  -57.8158 C.3       11 UNK         0.0169 
     16 S16        30.5524  -42.2821  -58.8655 S.3       11 UNK        -0.2669 
     17 C17        28.8836  -41.6847  -58.3871 C.3       11 UNK        -0.0850 
     18 CA         27.8756  -42.6996  -57.7799 C.3       10 UNK         0.0855 
     19 C          26.5329  -42.0011  -57.4111 C.2       10 UNK         0.5543 
     20 N          25.3909  -42.4294  -57.9354 N.am      10 UNK        -0.7343 
     21 O          26.5275  -41.0545  -56.6282 O.2       10 UNK        -0.5027 
     22 N          27.7241  -43.9057  -58.6125 N.am      10 UNK        -0.4495 
     23 C          27.3956  -45.1124  -58.1351 C.2       10 UNK         0.4903 
     24 O          27.1839  -45.3470  -56.9432 O.2       10 UNK        -0.4860 
     25 CA         27.3133  -46.2424  -59.1697 C.3       9 UNK         0.0227 
     26 CB         28.7105  -46.6639  -59.6561 C.3       9 UNK        -0.1964 
     27 N          26.6519  -47.4051  -58.5803 N.am      9 UNK        -0.4231 
     28 C          25.6107  -48.0499  -59.1188 C.2       9 UNK         0.5014 
     29 O          25.1245  -47.7673  -60.2159 O.2       9 UNK        -0.5270 
     30 CA         25.0364  -49.2202  -58.3073 C.3       8 UNK         0.0284 
     31 CB         23.9706  -50.0291  -59.0782 C.3       8 UNK        -0.1977 
     32 N          26.1184  -50.0997  -57.8652 N.am      8 UNK        -0.4342 
     33 C          26.0719  -50.8894  -56.7867 C.2       8 UNK         0.5039 
     34 O          25.0865  -50.9619  -56.0499 O.2       8 UNK        -0.5547 
     35 CA         27.3102  -51.7588  -56.4844 C.3       7 UNK         0.0281 
     36 CB         28.4408  -51.6406  -57.5285 C.3       7 UNK        -0.1963 
     37 N          27.8458  -51.4207  -55.1682 N.am      7 UNK        -0.4444 
     38 C          27.4008  -51.8915  -53.9959 C.2       7 UNK         0.5104 
     39 O          26.5652  -52.7899  -53.8843 O.2       7 UNK        -0.5100 
     40 CA         27.9921  -51.2601  -52.7213 C.3       6 UNK         0.0396 
     41 CB         29.1028  -52.1529  -52.1458 C.3       6 UNK        -0.1801 
     42 N          28.5243  -49.9104  -52.9269 N.am      6 UNK        -0.4747 
     43 C          27.7953  -48.8164  -53.1999 C.2       6 UNK         0.5012 
     44 O          26.5660  -48.8033  -53.2596 O.2       6 UNK        -0.5003 
     45 CA         28.5899  -47.5223  -53.4574 C.3       5 UNK         0.0782 
     46 C46        28.9485  -46.8420  -52.1050 C.3       11 UNK        -0.0868 
     47 S47        30.2960  -45.6176  -52.1916 S.3       11 UNK        -0.2515 
     48 C48        29.4976  -44.1989  -52.9927 C.3       11 UNK         0.0199 
     49 N          29.7559  -47.7873  -54.3048 N.am      5 UNK        -0.4607 
     50 C          29.7123  -48.1052  -55.6058 C.2       4 UNK         0.5031 
     51 O          28.6731  -48.2049  -56.2594 O.2       4 UNK        -0.5119 
     52 CA         31.0629  -48.3951  -56.2829 C.3       4 UNK         0.0263 
     53 CB         31.6967  -47.0983  -56.8058 C.3       4 UNK        -0.1967 
     54 N          32.0119  -49.0604  -55.3882 N.am      4 UNK        -0.4237 
     55 C          31.8542  -50.3023  -54.9073 C.2       3 UNK         0.4908 
     56 O          30.9161  -51.0390  -55.2089 O.2       3 UNK        -0.5102 
     57 CA         32.8946  -50.7903  -53.8868 C.3       3 UNK         0.0241 
     58 CB         34.1521  -51.3085  -54.6028 C.3       3 UNK        -0.1971 
     59 N          33.2735  -49.7585  -52.9186 N.am      3 UNK        -0.4139 
     60 C          32.4426  -49.1908  -52.0311 C.2       2 UNK         0.5016 
     61 O          31.2525  -49.4827  -51.9176 O.2       2 UNK        -0.5319 
     62 CA         33.0331  -48.0584  -51.1866 C.3       2 UNK         0.0286 
     63 CB         34.0788  -48.5789  -50.1820 C.3       2 UNK        -0.1963 
     64 N          33.6077  -47.0744  -52.0973 N.am      2 UNK        -0.4790 
     65 C          33.9420  -45.8102  -51.8345 C.2       1 UNK         0.5024 
     66 O          33.9183  -45.3234  -50.7026 O.2       1 UNK        -0.4888 
     67 H67        36.2166  -47.0802  -56.5610 H         1 UNK         0.0892 
     68 H68        36.7369  -48.1212  -55.2333 H         1 UNK         0.0892 
     69 H69        37.3184  -46.4568  -55.3309 H         1 UNK         0.0892 
     70 H70        36.2952  -45.1366  -53.8594 H         1 UNK         0.3107 
     71 H71        33.4665  -44.8730  -53.6761 H         1 UNK         0.0773 
     72 H72        35.6725  -43.5377  -52.0302 H         1 UNK         0.0680 
     73 H73        34.0006  -43.0517  -52.0270 H         1 UNK         0.0680 
     74 H74        33.3872  -40.9627  -53.1818 H         1 UNK         0.0650 
     75 H75        33.7193  -40.6115  -54.8589 H         1 UNK         0.0650 
     76 H76        31.6269  -42.5485  -52.5894 H         1 UNK         0.1397 
     77 H77        29.4737  -44.5834  -55.6809 H         1 UNK         0.1363 
     78 H78        32.8756  -42.1705  -56.6779 H         1 UNK         0.1355 
     79 H79        30.1909  -44.4966  -57.9448 H         1 UNK         0.0707 
     80 H80        31.8745  -44.1620  -58.1799 H         1 UNK         0.0707 
     81 H81        28.4457  -41.2213  -59.2731 H         1 UNK         0.1034 
     82 H82        29.0410  -40.8663  -57.6816 H         1 UNK         0.1034 
     83 H83        28.2784  -43.0072  -56.8189 H         1 UNK         0.0482 
     84 H84        24.5289  -41.9706  -57.6857 H         1 UNK         0.3460 
     85 H85        25.3830  -43.2079  -58.5742 H         1 UNK         0.3460 
     86 H86        27.8779  -43.7853  -59.6031 H         1 UNK         0.2989 
     87 H87        26.7439  -45.8609  -60.0197 H         1 UNK         0.0559 
     88 H88        29.2857  -47.1307  -58.8580 H         1 UNK         0.0848 
     89 H89        29.2842  -45.8136  -60.0271 H         1 UNK         0.0848 
     90 H90        28.6387  -47.3832  -60.4720 H         1 UNK         0.0848 
     91 H91        26.9765  -47.6548  -57.6505 H         1 UNK         0.3144 
     92 H92        24.5608  -48.7758  -57.4302 H         1 UNK         0.0727 
     93 H93        23.5385  -50.8142  -58.4576 H         1 UNK         0.0790 
     94 H94        24.3903  -50.4989  -59.9684 H         1 UNK         0.0790 
     95 H95        23.1488  -49.3886  -59.4008 H         1 UNK         0.0790 
     96 H96        26.9672  -50.0710  -58.4140 H         1 UNK         0.3215 
     97 H97        26.9740  -52.7978  -56.4759 H         1 UNK         0.0863 
     98 H98        29.2713  -52.3001  -57.2749 H         1 UNK         0.0808 
     99 H99        28.8412  -50.6283  -57.5913 H         1 UNK         0.0808 
    100 H100       28.0985  -51.9338  -58.5219 H         1 UNK         0.0808 
    101 H101       28.5651  -50.7101  -55.1429 H         1 UNK         0.3118 
    102 H102       27.1895  -51.1943  -51.9840 H         1 UNK         0.0546 
    103 H103       28.7308  -53.1576  -51.9409 H         1 UNK         0.0828 
    104 H104       29.4894  -51.7522  -51.2086 H         1 UNK         0.0828 
    105 H105       29.9397  -52.2491  -52.8385 H         1 UNK         0.0828 
    106 H106       29.5303  -49.8019  -52.8232 H         1 UNK         0.3005 
    107 H107       27.9366  -46.8479  -54.0166 H         1 UNK         0.1257 
    108 H108       29.2722  -47.5845  -51.3723 H         1 UNK         0.0775 
    109 H109       28.0648  -46.3680  -51.6741 H         1 UNK         0.0775 
    110 H110       28.5583  -44.4999  -53.4587 H         1 UNK         0.0840 
    111 H111       29.2432  -43.4518  -52.2396 H         1 UNK         0.0840 
    112 H112       30.6525  -47.7345  -53.8452 H         1 UNK         0.2987 
    113 H113       30.8774  -49.0561  -57.1320 H         1 UNK         0.0785 
    114 H114       31.0450  -46.6105  -57.5264 H         1 UNK         0.0798 
    115 H115       32.6444  -47.2929  -57.3081 H         1 UNK         0.0798 
    116 H116       31.8868  -46.3870  -56.0007 H         1 UNK         0.0798 
    117 H117       32.8296  -48.5189  -55.1137 H         1 UNK         0.3079 
    118 H118       32.4490  -51.6186  -53.3318 H         1 UNK         0.0794 
    119 H119       34.6635  -50.5141  -55.1485 H         1 UNK         0.0786 
    120 H120       33.8974  -52.0877  -55.3227 H         1 UNK         0.0786 
    121 H121       34.8609  -51.7415  -53.8966 H         1 UNK         0.0786 
    122 H122       34.2340  -49.4484  -52.9444 H         1 UNK         0.3032 
    123 H123       32.2146  -47.5885  -50.6366 H         1 UNK         0.1094 
    124 H124       34.4195  -47.7853  -49.5171 H         1 UNK         0.0794 
    125 H125       33.6570  -49.3645  -49.5537 H         1 UNK         0.0794 
    126 H126       34.9554  -48.9924  -50.6814 H         1 UNK         0.0794 
    127 H127       33.6666  -47.3475  -53.0780 H         1 UNK         0.3016 
@<TRIPOS>BOND
     1    1    2 1    
     2    1   67 1    
     3    1   68 1    
     4    1   69 1    
     5    2    3 2    
     6    2    4 am   BACKBONE|DICT|INTERRES
     7    4    5 1    
     8    4   70 1    
     9    5    6 1    
    10    5   65 1    
    11    5   71 1    
    12    6    7 1    
    13    6   72 1    
    14    6   73 1    
    15    7    8 1    
    16    8    9 1    
    17    8   74 1    
    18    8   75 1    
    19    9   10 ar   
    20    9   14 ar   
    21   10   11 ar   
    22   10   76 1    
    23   11   12 ar   
    24   11   48 1    
    25   12   13 ar   
    26   12   77 1    
    27   13   14 ar   
    28   13   15 1    
    29   14   78 1    
    30   15   16 1    
    31   15   79 1    
    32   15   80 1    
    33   16   17 1    
    34   17   18 1    
    35   17   81 1    
    36   17   82 1    
    37   18   19 1    
    38   18   22 1    
    39   18   83 1    
    40   19   20 am   BACKBONE|DICT|INTERRES
    41   19   21 2    
    42   20   84 1    
    43   20   85 1    
    44   22   23 am   BACKBONE|DICT|INTERRES
    45   22   86 1    
    46   23   24 2    
    47   23   25 1    
    48   25   26 1    
    49   25   27 1    
    50   25   87 1    
    51   26   88 1    
    52   26   89 1    
    53   26   90 1    
    54   27   28 am   BACKBONE|DICT|INTERRES
    55   27   91 1    
    56   28   29 2    
    57   28   30 1    
    58   30   31 1    
    59   30   32 1    
    60   30   92 1    
    61   31   93 1    
    62   31   94 1    
    63   31   95 1    
    64   32   33 am   BACKBONE|DICT|INTERRES
    65   32   96 1    
    66   33   34 2    
    67   33   35 1    
    68   35   36 1    
    69   35   37 1    
    70   35   97 1    
    71   36   98 1    
    72   36   99 1    
    73   36  100 1    
    74   37   38 am   BACKBONE|DICT|INTERRES
    75   37  101 1    
    76   38   39 2    
    77   38   40 1    
    78   40   41 1    
    79   40   42 1    
    80   40  102 1    
    81   41  103 1    
    82   41  104 1    
    83   41  105 1    
    84   42   43 am   BACKBONE|DICT|INTERRES
    85   42  106 1    
    86   43   44 2    
    87   43   45 1    
    88   45   46 1    
    89   45   49 1    
    90   45  107 1    
    91   46   47 1    
    92   46  108 1    
    93   46  109 1    
    94   47   48 1    
    95   48  110 1    
    96   48  111 1    
    97   49   50 am   BACKBONE|DICT|INTERRES
    98   49  112 1    
    99   50   51 2    
   100   50   52 1    
   101   52   53 1    
   102   52   54 1    
   103   52  113 1    
   104   53  114 1    
   105   53  115 1    
   106   53  116 1    
   107   54   55 am   BACKBONE|DICT|INTERRES
   108   54  117 1    
   109   55   56 2    
   110   55   57 1    
   111   57   58 1    
   112   57   59 1    
   113   57  118 1    
   114   58  119 1    
   115   58  120 1    
   116   58  121 1    
   117   59   60 am   BACKBONE|DICT|INTERRES
   118   59  122 1    
   119   60   61 2    
   120   60   62 1    
   121   62   63 1    
   122   62   64 1    
   123   62  123 1    
   124   63  124 1    
   125   63  125 1    
   126   63  126 1    
   127   64   65 am   BACKBONE|DICT|INTERRES
   128   64  127 1    
   129   65   66 2    
@<TRIPOS>SUBSTRUCTURE
     1 UNK         1 GROUP             0       ****    0 ROOT    
