@<TRIPOS>MOLECULE
3R134
127   129    1
SMALL
USER_CHARGES


@<TRIPOS>ATOM
      1 CA         33.6675  -43.3412  -51.3073 C.3       0 UNK        -0.1968 
      2 C          34.5622  -44.1127  -52.2660 C.2       0 UNK         0.4852 
      3 O          35.6176  -43.6069  -52.6508 O.2       0 UNK        -0.5359 
      4 N          34.1519  -45.3297  -52.6401 N.am      1 UNK        -0.4300 
      5 CA         34.8992  -46.2515  -53.4957 C.3       1 UNK         0.0863 
      6 C6         34.2330  -46.4485  -54.8806 C.3       11 UNK        -0.0953 
      7 S7         34.3100  -44.9601  -55.9313 S.3       11 UNK        -0.2369 
      8 C8         32.7046  -45.0491  -56.7904 C.3       11 UNK         0.0226 
      9 C9         31.6582  -44.1066  -56.2052 C.ar      11 UNK        -0.0699 
     10 C10        31.3578  -44.1204  -54.8394 C.ar      11 UNK        -0.0804 
     11 C11        30.4124  -43.2376  -54.3048 C.ar      11 UNK        -0.0871 
     12 C12        29.7668  -42.3355  -55.1549 C.ar      11 UNK        -0.1008 
     13 C13        30.0418  -42.3184  -56.5270 C.ar      11 UNK        -0.0735 
     14 C14        30.9865  -43.2104  -57.0427 C.ar      11 UNK        -0.0945 
     15 C15        29.3908  -41.2935  -57.4528 C.3       11 UNK         0.0169 
     16 S16        27.6225  -40.9989  -57.1164 S.3       11 UNK        -0.2669 
     17 C17        26.8305  -42.4893  -57.8147 C.3       11 UNK        -0.0850 
     18 CA         26.3943  -43.5340  -56.7445 C.3       10 UNK         0.0855 
     19 C          25.1446  -43.1292  -55.8997 C.2       10 UNK         0.5543 
     20 N          24.4611  -44.0792  -55.2708 N.am      10 UNK        -0.7343 
     21 O          24.7853  -41.9591  -55.7979 O.2       10 UNK        -0.5027 
     22 N          26.2864  -44.8929  -57.3012 N.am      10 UNK        -0.4495 
     23 C          25.4655  -45.2751  -58.2907 C.2       10 UNK         0.4903 
     24 O          24.7625  -44.4970  -58.9376 O.2       10 UNK        -0.4860 
     25 CA         25.3919  -46.7867  -58.5837 C.3       9 UNK         0.0227 
     26 CB         24.8586  -47.1062  -59.9968 C.3       9 UNK        -0.1964 
     27 N          26.6481  -47.4941  -58.3168 N.am      9 UNK        -0.4231 
     28 C          27.8265  -47.3555  -58.9437 C.2       9 UNK         0.5014 
     29 O          28.0153  -46.5966  -59.8952 O.2       9 UNK        -0.5270 
     30 CA         29.0093  -48.1948  -58.4165 C.3       8 UNK         0.0284 
     31 CB         30.0507  -47.2883  -57.7453 C.3       8 UNK        -0.1977 
     32 N          28.6201  -49.2434  -57.4686 N.am      8 UNK        -0.4342 
     33 C          27.9605  -50.3645  -57.7931 C.2       8 UNK         0.5039 
     34 O          27.6780  -50.6863  -58.9475 O.2       8 UNK        -0.5547 
     35 CA         27.4971  -51.2499  -56.6264 C.3       7 UNK         0.0281 
     36 CB         28.6110  -52.2181  -56.2074 C.3       7 UNK        -0.1963 
     37 N          27.0722  -50.4548  -55.4706 N.am      7 UNK        -0.4444 
     38 C          25.9280  -49.7578  -55.4157 C.2       7 UNK         0.5104 
     39 O          25.0963  -49.7329  -56.3222 O.2       7 UNK        -0.5100 
     40 CA         25.6889  -48.9144  -54.1525 C.3       6 UNK         0.0396 
     41 CB         25.1037  -49.7798  -53.0255 C.3       6 UNK        -0.1801 
     42 N          26.9024  -48.2449  -53.6793 N.am      6 UNK        -0.4747 
     43 C          27.5363  -47.2628  -54.3375 C.2       6 UNK         0.5012 
     44 O          27.1485  -46.7960  -55.4075 O.2       6 UNK        -0.5003 
     45 CA         28.8361  -46.7284  -53.7091 C.3       5 UNK         0.0782 
     46 C46        28.5246  -45.5319  -52.7782 C.3       11 UNK        -0.0868 
     47 S47        30.0283  -44.8334  -52.0158 S.3       11 UNK        -0.2515 
     48 C48        30.1196  -43.1934  -52.8074 C.3       11 UNK         0.0199 
     49 N          29.6071  -47.7739  -53.0250 N.am      5 UNK        -0.4607 
     50 C          30.1428  -48.8539  -53.6056 C.2       4 UNK         0.5031 
     51 O          29.9750  -49.1487  -54.7915 O.2       4 UNK        -0.5119 
     52 CA         30.9747  -49.7513  -52.6781 C.3       4 UNK         0.0263 
     53 CB         30.1333  -50.9090  -52.1033 C.3       4 UNK        -0.1967 
     54 N          32.2195  -50.1912  -53.3180 N.am      4 UNK        -0.4237 
     55 C          32.4323  -51.1992  -54.1804 C.2       3 UNK         0.4908 
     56 O          31.5935  -52.0436  -54.4904 O.2       3 UNK        -0.5102 
     57 CA         33.8313  -51.2988  -54.8228 C.3       3 UNK         0.0241 
     58 CB         33.7619  -50.8847  -56.3031 C.3       3 UNK        -0.1971 
     59 N          34.8533  -50.4881  -54.1564 N.am      3 UNK        -0.4139 
     60 C          35.3823  -50.7381  -52.9501 C.2       2 UNK         0.5016 
     61 O          35.1396  -51.7486  -52.2902 O.2       2 UNK        -0.5319 
     62 CA         36.3152  -49.6581  -52.3675 C.3       2 UNK         0.0286 
     63 CB         37.7872  -50.0506  -52.5737 C.3       2 UNK        -0.1963 
     64 N          36.0906  -48.3146  -52.9221 N.am      2 UNK        -0.4790 
     65 C          34.9660  -47.6006  -52.7677 C.2       1 UNK         0.5024 
     66 O          33.9808  -48.0027  -52.1428 O.2       1 UNK        -0.4888 
     67 H67        32.7963  -43.9214  -51.0047 H         1 UNK         0.0892 
     68 H68        34.2228  -43.0740  -50.4087 H         1 UNK         0.0892 
     69 H69        33.3204  -42.4224  -51.7788 H         1 UNK         0.0892 
     70 H70        33.3203  -45.7304  -52.2266 H         1 UNK         0.3107 
     71 H71        35.9217  -45.8951  -53.6386 H         1 UNK         0.0773 
     72 H72        34.7263  -47.2479  -55.4370 H         1 UNK         0.0680 
     73 H73        33.1947  -46.7630  -54.7566 H         1 UNK         0.0680 
     74 H74        32.3282  -46.0700  -56.7687 H         1 UNK         0.0650 
     75 H75        32.8788  -44.8157  -57.8417 H         1 UNK         0.0650 
     76 H76        31.8775  -44.8069  -54.1884 H         1 UNK         0.1397 
     77 H77        29.0585  -41.6291  -54.7442 H         1 UNK         0.1363 
     78 H78        31.2172  -43.1905  -58.0992 H         1 UNK         0.1355 
     79 H79        29.9221  -40.3484  -57.3341 H         1 UNK         0.0707 
     80 H80        29.5104  -41.5802  -58.4988 H         1 UNK         0.0707 
     81 H81        27.5255  -42.9499  -58.5184 H         1 UNK         0.1034 
     82 H82        25.9736  -42.1754  -58.4130 H         1 UNK         0.1034 
     83 H83        27.2061  -43.6059  -56.0201 H         1 UNK         0.0482 
     84 H84        24.7486  -45.0425  -55.3370 H         1 UNK         0.3460 
     85 H85        23.6537  -43.8266  -54.7232 H         1 UNK         0.3460 
     86 H86        26.7654  -45.6185  -56.7724 H         1 UNK         0.2989 
     87 H87        24.6737  -47.1902  -57.8686 H         1 UNK         0.0559 
     88 H88        25.4836  -46.6679  -60.7753 H         1 UNK         0.0848 
     89 H89        23.8502  -46.7134  -60.1326 H         1 UNK         0.0848 
     90 H90        24.8113  -48.1815  -60.1691 H         1 UNK         0.0848 
     91 H91        26.6239  -48.1215  -57.5243 H         1 UNK         0.3144 
     92 H92        29.4779  -48.6745  -59.2783 H         1 UNK         0.0727 
     93 H93        30.8993  -47.8678  -57.3810 H         1 UNK         0.0790 
     94 H94        29.6270  -46.7428  -56.9021 H         1 UNK         0.0790 
     95 H95        30.4359  -46.5494  -58.4492 H         1 UNK         0.0790 
     96 H96        28.8871  -49.1049  -56.4977 H         1 UNK         0.3215 
     97 H97        26.6443  -51.8398  -56.9704 H         1 UNK         0.0863 
     98 H98        29.5023  -51.6789  -55.8893 H         1 UNK         0.0808 
     99 H99        28.9010  -52.8629  -57.0380 H         1 UNK         0.0808 
    100 H100       28.2963  -52.8639  -55.3876 H         1 UNK         0.0808 
    101 H101       27.7234  -50.3798  -54.7023 H         1 UNK         0.3118 
    102 H102       24.9564  -48.1436  -54.4024 H         1 UNK         0.0546 
    103 H103       24.8507  -49.1772  -52.1531 H         1 UNK         0.0828 
    104 H104       25.7982  -50.5581  -52.7068 H         1 UNK         0.0828 
    105 H105       24.1874  -50.2748  -53.3507 H         1 UNK         0.0828 
    106 H106       27.2918  -48.5620  -52.8032 H         1 UNK         0.3005 
    107 H107       29.4532  -46.3624  -54.5320 H         1 UNK         0.1257 
    108 H108       27.8538  -45.8353  -51.9720 H         1 UNK         0.0775 
    109 H109       28.0002  -44.7473  -53.3281 H         1 UNK         0.0775 
    110 H110       29.1856  -42.6638  -52.6123 H         1 UNK         0.0840 
    111 H111       30.9031  -42.6129  -52.3207 H         1 UNK         0.0840 
    112 H112       29.7937  -47.6017  -52.0474 H         1 UNK         0.2987 
    113 H113       31.3038  -49.1429  -51.8338 H         1 UNK         0.0785 
    114 H114       30.7414  -51.5796  -51.4962 H         1 UNK         0.0798 
    115 H115       29.3351  -50.5280  -51.4655 H         1 UNK         0.0798 
    116 H116       29.6592  -51.5005  -52.8872 H         1 UNK         0.0798 
    117 H117       33.0040  -49.5786  -53.1282 H         1 UNK         0.3079 
    118 H118       34.1397  -52.3452  -54.7708 H         1 UNK         0.0794 
    119 H119       33.0390  -51.4957  -56.8459 H         1 UNK         0.0786 
    120 H120       34.7250  -51.0107  -56.7982 H         1 UNK         0.0786 
    121 H121       33.4559  -49.8437  -56.4176 H         1 UNK         0.0786 
    122 H122       35.1442  -49.6464  -54.6307 H         1 UNK         0.3032 
    123 H123       36.1185  -49.6133  -51.2936 H         1 UNK         0.1094 
    124 H124       38.0509  -50.0927  -53.6313 H         1 UNK         0.0794 
    125 H125       38.4592  -49.3439  -52.0864 H         1 UNK         0.0794 
    126 H126       37.9922  -51.0341  -52.1478 H         1 UNK         0.0794 
    127 H127       36.8509  -47.9169  -53.4568 H         1 UNK         0.3016 
@<TRIPOS>BOND
     1    1    2 1    
     2    1   67 1    
     3    1   68 1    
     4    1   69 1    
     5    2    3 2    
     6    2    4 am   BACKBONE|DICT|INTERRES
     7    4    5 1    
     8    4   70 1    
     9    5    6 1    
    10    5   65 1    
    11    5   71 1    
    12    6    7 1    
    13    6   72 1    
    14    6   73 1    
    15    7    8 1    
    16    8    9 1    
    17    8   74 1    
    18    8   75 1    
    19    9   10 ar   
    20    9   14 ar   
    21   10   11 ar   
    22   10   76 1    
    23   11   12 ar   
    24   11   48 1    
    25   12   13 ar   
    26   12   77 1    
    27   13   14 ar   
    28   13   15 1    
    29   14   78 1    
    30   15   16 1    
    31   15   79 1    
    32   15   80 1    
    33   16   17 1    
    34   17   18 1    
    35   17   81 1    
    36   17   82 1    
    37   18   19 1    
    38   18   22 1    
    39   18   83 1    
    40   19   20 am   BACKBONE|DICT|INTERRES
    41   19   21 2    
    42   20   84 1    
    43   20   85 1    
    44   22   23 am   BACKBONE|DICT|INTERRES
    45   22   86 1    
    46   23   24 2    
    47   23   25 1    
    48   25   26 1    
    49   25   27 1    
    50   25   87 1    
    51   26   88 1    
    52   26   89 1    
    53   26   90 1    
    54   27   28 am   BACKBONE|DICT|INTERRES
    55   27   91 1    
    56   28   29 2    
    57   28   30 1    
    58   30   31 1    
    59   30   32 1    
    60   30   92 1    
    61   31   93 1    
    62   31   94 1    
    63   31   95 1    
    64   32   33 am   BACKBONE|DICT|INTERRES
    65   32   96 1    
    66   33   34 2    
    67   33   35 1    
    68   35   36 1    
    69   35   37 1    
    70   35   97 1    
    71   36   98 1    
    72   36   99 1    
    73   36  100 1    
    74   37   38 am   BACKBONE|DICT|INTERRES
    75   37  101 1    
    76   38   39 2    
    77   38   40 1    
    78   40   41 1    
    79   40   42 1    
    80   40  102 1    
    81   41  103 1    
    82   41  104 1    
    83   41  105 1    
    84   42   43 am   BACKBONE|DICT|INTERRES
    85   42  106 1    
    86   43   44 2    
    87   43   45 1    
    88   45   46 1    
    89   45   49 1    
    90   45  107 1    
    91   46   47 1    
    92   46  108 1    
    93   46  109 1    
    94   47   48 1    
    95   48  110 1    
    96   48  111 1    
    97   49   50 am   BACKBONE|DICT|INTERRES
    98   49  112 1    
    99   50   51 2    
   100   50   52 1    
   101   52   53 1    
   102   52   54 1    
   103   52  113 1    
   104   53  114 1    
   105   53  115 1    
   106   53  116 1    
   107   54   55 am   BACKBONE|DICT|INTERRES
   108   54  117 1    
   109   55   56 2    
   110   55   57 1    
   111   57   58 1    
   112   57   59 1    
   113   57  118 1    
   114   58  119 1    
   115   58  120 1    
   116   58  121 1    
   117   59   60 am   BACKBONE|DICT|INTERRES
   118   59  122 1    
   119   60   61 2    
   120   60   62 1    
   121   62   63 1    
   122   62   64 1    
   123   62  123 1    
   124   63  124 1    
   125   63  125 1    
   126   63  126 1    
   127   64   65 am   BACKBONE|DICT|INTERRES
   128   64  127 1    
   129   65   66 2    
@<TRIPOS>SUBSTRUCTURE
     1 UNK         1 GROUP             0       ****    0 ROOT    
