@<TRIPOS>MOLECULE
3R134
127   129    1
SMALL
USER_CHARGES


@<TRIPOS>ATOM
      1 CA         32.3327  -45.6054  -47.7458 C.3       0 UNK        -0.1968 
      2 C          32.0066  -45.8525  -49.2115 C.2       0 UNK         0.4852 
      3 O          30.8635  -46.1807  -49.5304 O.2       0 UNK        -0.5359 
      4 N          33.0073  -45.7036  -50.0939 N.am      1 UNK        -0.4300 
      5 CA         32.9231  -45.8633  -51.5570 C.3       1 UNK         0.0863 
      6 C6         31.9984  -44.8216  -52.2480 C.3       11 UNK        -0.0953 
      7 S7         32.3542  -43.0953  -51.7614 S.3       11 UNK        -0.2369 
      8 C8         33.4780  -42.5236  -53.0792 C.3       11 UNK         0.0226 
      9 C9         32.8367  -42.5521  -54.4606 C.ar      11 UNK        -0.0699 
     10 C10        33.4237  -43.2976  -55.4877 C.ar      11 UNK        -0.0804 
     11 C11        32.8169  -43.3691  -56.7444 C.ar      11 UNK        -0.0871 
     12 C12        31.6421  -42.6523  -56.9854 C.ar      11 UNK        -0.1008 
     13 C13        31.0286  -41.9303  -55.9596 C.ar      11 UNK        -0.0735 
     14 C14        31.6415  -41.8660  -54.7047 C.ar      11 UNK        -0.0945 
     15 C15        29.6766  -41.2717  -56.1914 C.3       11 UNK         0.0169 
     16 S16        28.3193  -42.4847  -56.0421 S.3       11 UNK        -0.2669 
     17 C17        28.3948  -43.3364  -57.6581 C.3       11 UNK        -0.0850 
     18 CA         26.9947  -43.7646  -58.1716 C.3       10 UNK         0.0855 
     19 C          27.0117  -44.1041  -59.6939 C.2       10 UNK         0.5543 
     20 N          26.4475  -45.2159  -60.1505 N.am      10 UNK        -0.7343 
     21 O          27.5393  -43.3296  -60.4883 O.2       10 UNK        -0.5027 
     22 N          26.4176  -44.8261  -57.3307 N.am      10 UNK        -0.4495 
     23 C          25.1088  -44.9988  -57.1126 C.2       10 UNK         0.4903 
     24 O          24.2380  -44.2237  -57.5126 O.2       10 UNK        -0.4860 
     25 CA         24.7157  -46.2742  -56.3413 C.3       9 UNK         0.0227 
     26 CB         23.1923  -46.5176  -56.3111 C.3       9 UNK        -0.1964 
     27 N          25.4175  -47.4682  -56.8285 N.am      9 UNK        -0.4231 
     28 C          25.4264  -47.9659  -58.0757 C.2       9 UNK         0.5014 
     29 O          24.8052  -47.4648  -59.0136 O.2       9 UNK        -0.5270 
     30 CA         26.3015  -49.2055  -58.3518 C.3       8 UNK         0.0284 
     31 CB         27.4670  -48.8381  -59.2865 C.3       8 UNK        -0.1977 
     32 N          26.8489  -49.8221  -57.1421 N.am      8 UNK        -0.4342 
     33 C          26.1542  -50.5504  -56.2583 C.2       8 UNK         0.5039 
     34 O          24.9763  -50.8754  -56.4092 O.2       8 UNK        -0.5547 
     35 CA         26.8881  -50.9281  -54.9606 C.3       7 UNK         0.0281 
     36 CB         27.7155  -52.2107  -55.1459 C.3       7 UNK        -0.1963 
     37 N          27.7483  -49.8411  -54.4791 N.am      7 UNK        -0.4444 
     38 C          27.2940  -48.6816  -53.9808 C.2       7 UNK         0.5104 
     39 O          26.1002  -48.4209  -53.8372 O.2       7 UNK        -0.5100 
     40 CA         28.3411  -47.6169  -53.6160 C.3       6 UNK         0.0396 
     41 CB         28.8365  -47.8267  -52.1774 C.3       6 UNK        -0.1801 
     42 N          29.4794  -47.5920  -54.5387 N.am      6 UNK        -0.4747 
     43 C          29.4043  -47.2062  -55.8218 C.2       6 UNK         0.5012 
     44 O          28.3724  -46.7924  -56.3535 O.2       6 UNK        -0.5003 
     45 CA         30.6923  -47.3256  -56.6624 C.3       5 UNK         0.0782 
     46 C46        31.6020  -46.1110  -56.3885 C.3       11 UNK        -0.0868 
     47 S47        33.1387  -46.0746  -57.3825 S.3       11 UNK        -0.2515 
     48 C48        33.3592  -44.3075  -57.8137 C.3       11 UNK         0.0199 
     49 N          31.3899  -48.6034  -56.4765 N.am      5 UNK        -0.4607 
     50 C          30.8632  -49.8140  -56.6942 C.2       4 UNK         0.5031 
     51 O          29.6853  -49.9880  -57.0036 O.2       4 UNK        -0.5119 
     52 CA         31.7658  -51.0513  -56.5361 C.3       4 UNK         0.0263 
     53 CB         32.2823  -51.5277  -57.9072 C.3       4 UNK        -0.1967 
     54 N          32.8600  -50.9208  -55.5633 N.am      4 UNK        -0.4237 
     55 C          33.9610  -50.1589  -55.6083 C.2       3 UNK         0.4908 
     56 O          34.2163  -49.3776  -56.5244 O.2       3 UNK        -0.5102 
     57 CA         34.9096  -50.2676  -54.3965 C.3       3 UNK         0.0241 
     58 CB         36.2237  -49.4911  -54.6041 C.3       3 UNK        -0.1971 
     59 N          34.2750  -49.7971  -53.1625 N.am      3 UNK        -0.4139 
     60 C          33.3093  -50.4302  -52.4830 C.2       2 UNK         0.5016 
     61 O          32.8765  -51.5405  -52.7978 O.2       2 UNK        -0.5319 
     62 CA         32.7095  -49.7162  -51.2585 C.3       2 UNK         0.0286 
     63 CB         33.1417  -50.4192  -49.9612 C.3       2 UNK        -0.1963 
     64 N          33.0275  -48.2875  -51.1493 N.am      2 UNK        -0.4790 
     65 C          32.5977  -47.3198  -51.9746 C.2       1 UNK         0.5024 
     66 O          31.9783  -47.5500  -53.0153 O.2       1 UNK        -0.4888 
     67 H67        33.3763  -45.3274  -47.5996 H         1 UNK         0.0892 
     68 H68        31.7104  -44.8008  -47.3550 H         1 UNK         0.0892 
     69 H69        32.1357  -46.5036  -47.1612 H         1 UNK         0.0892 
     70 H70        33.9158  -45.4242  -49.7503 H         1 UNK         0.3107 
     71 H71        33.9328  -45.6833  -51.9288 H         1 UNK         0.0773 
     72 H72        32.0692  -44.9069  -53.3319 H         1 UNK         0.0680 
     73 H73        30.9537  -45.0212  -52.0051 H         1 UNK         0.0680 
     74 H74        34.3826  -43.1331  -53.0548 H         1 UNK         0.0650 
     75 H75        33.7882  -41.5020  -52.8566 H         1 UNK         0.0650 
     76 H76        34.3258  -43.8639  -55.2997 H         1 UNK         0.1397 
     77 H77        31.1674  -42.7160  -57.9539 H         1 UNK         0.1363 
     78 H78        31.1699  -41.3133  -53.9036 H         1 UNK         0.1355 
     79 H79        29.6495  -40.7876  -57.1687 H         1 UNK         0.0707 
     80 H80        29.5170  -40.4797  -55.4580 H         1 UNK         0.0707 
     81 H81        28.8642  -42.6583  -58.3722 H         1 UNK         0.1034 
     82 H82        29.0544  -44.2014  -57.5788 H         1 UNK         0.1034 
     83 H83        26.3505  -42.8866  -58.0958 H         1 UNK         0.0482 
     84 H84        25.9483  -45.8479  -59.5365 H         1 UNK         0.3460 
     85 H85        26.4699  -45.3999  -61.1406 H         1 UNK         0.3460 
     86 H86        27.0697  -45.5227  -56.9787 H         1 UNK         0.2989 
     87 H87        25.0476  -46.1239  -55.3130 H         1 UNK         0.0559 
     88 H88        22.6707  -45.6778  -55.8506 H         1 UNK         0.0848 
     89 H89        22.9457  -47.4078  -55.7324 H         1 UNK         0.0848 
     90 H90        22.7827  -46.6451  -57.3137 H         1 UNK         0.0848 
     91 H91        25.9917  -47.9372  -56.1407 H         1 UNK         0.3144 
     92 H92        25.6735  -49.9415  -58.8579 H         1 UNK         0.0727 
     93 H93        28.1190  -48.0867  -58.8397 H         1 UNK         0.0790 
     94 H94        27.1011  -48.4319  -60.2304 H         1 UNK         0.0790 
     95 H95        28.0762  -49.7104  -59.5241 H         1 UNK         0.0790 
     96 H96        27.8444  -49.6845  -56.9746 H         1 UNK         0.3215 
     97 H97        26.1312  -51.1213  -54.1969 H         1 UNK         0.0863 
     98 H98        28.2068  -52.5045  -54.2182 H         1 UNK         0.0808 
     99 H99        28.4826  -52.0965  -55.9117 H         1 UNK         0.0808 
    100 H100       27.0772  -53.0413  -55.4502 H         1 UNK         0.0808 
    101 H101       28.7438  -49.9495  -54.6073 H         1 UNK         0.3118 
    102 H102       27.8505  -46.6423  -53.6643 H         1 UNK         0.0546 
    103 H103       29.4787  -47.0070  -51.8570 H         1 UNK         0.0828 
    104 H104       29.3993  -48.7545  -52.0727 H         1 UNK         0.0828 
    105 H105       28.0015  -47.8693  -51.4767 H         1 UNK         0.0828 
    106 H106       30.3882  -47.8381  -54.1551 H         1 UNK         0.3005 
    107 H107       30.3867  -47.2870  -57.7102 H         1 UNK         0.1257 
    108 H108       31.0240  -45.2078  -56.5751 H         1 UNK         0.0775 
    109 H109       31.8923  -46.0770  -55.3379 H         1 UNK         0.0775 
    110 H110       34.4201  -44.1084  -57.9707 H         1 UNK         0.0840 
    111 H111       32.8708  -44.1209  -58.7715 H         1 UNK         0.0840 
    112 H112       32.3865  -48.5487  -56.2957 H         1 UNK         0.2987 
    113 H113       31.1250  -51.8405  -56.1399 H         1 UNK         0.0785 
    114 H114       31.4522  -51.7304  -58.5854 H         1 UNK         0.0798 
    115 H115       32.8584  -52.4485  -57.8165 H         1 UNK         0.0798 
    116 H116       32.9151  -50.7806  -58.3874 H         1 UNK         0.0798 
    117 H117       32.7311  -51.4451  -54.7001 H         1 UNK         0.3079 
    118 H118       35.1621  -51.3233  -54.2758 H         1 UNK         0.0794 
    119 H119       36.9065  -49.6344  -53.7663 H         1 UNK         0.0786 
    120 H120       36.0481  -48.4202  -54.7155 H         1 UNK         0.0786 
    121 H121       36.7405  -49.8318  -55.5024 H         1 UNK         0.0786 
    122 H122       34.5431  -48.8797  -52.8392 H         1 UNK         0.3032 
    123 H123       31.6247  -49.8052  -51.3484 H         1 UNK         0.1094 
    124 H124       32.8872  -51.4800  -49.9862 H         1 UNK         0.0794 
    125 H125       34.2184  -50.3467  -49.8020 H         1 UNK         0.0794 
    126 H126       32.6423  -49.9910  -49.0917 H         1 UNK         0.0794 
    127 H127       33.5341  -48.0048  -50.3226 H         1 UNK         0.3016 
@<TRIPOS>BOND
     1    1    2 1    
     2    1   67 1    
     3    1   68 1    
     4    1   69 1    
     5    2    3 2    
     6    2    4 am   BACKBONE|DICT|INTERRES
     7    4    5 1    
     8    4   70 1    
     9    5    6 1    
    10    5   65 1    
    11    5   71 1    
    12    6    7 1    
    13    6   72 1    
    14    6   73 1    
    15    7    8 1    
    16    8    9 1    
    17    8   74 1    
    18    8   75 1    
    19    9   10 ar   
    20    9   14 ar   
    21   10   11 ar   
    22   10   76 1    
    23   11   12 ar   
    24   11   48 1    
    25   12   13 ar   
    26   12   77 1    
    27   13   14 ar   
    28   13   15 1    
    29   14   78 1    
    30   15   16 1    
    31   15   79 1    
    32   15   80 1    
    33   16   17 1    
    34   17   18 1    
    35   17   81 1    
    36   17   82 1    
    37   18   19 1    
    38   18   22 1    
    39   18   83 1    
    40   19   20 am   BACKBONE|DICT|INTERRES
    41   19   21 2    
    42   20   84 1    
    43   20   85 1    
    44   22   23 am   BACKBONE|DICT|INTERRES
    45   22   86 1    
    46   23   24 2    
    47   23   25 1    
    48   25   26 1    
    49   25   27 1    
    50   25   87 1    
    51   26   88 1    
    52   26   89 1    
    53   26   90 1    
    54   27   28 am   BACKBONE|DICT|INTERRES
    55   27   91 1    
    56   28   29 2    
    57   28   30 1    
    58   30   31 1    
    59   30   32 1    
    60   30   92 1    
    61   31   93 1    
    62   31   94 1    
    63   31   95 1    
    64   32   33 am   BACKBONE|DICT|INTERRES
    65   32   96 1    
    66   33   34 2    
    67   33   35 1    
    68   35   36 1    
    69   35   37 1    
    70   35   97 1    
    71   36   98 1    
    72   36   99 1    
    73   36  100 1    
    74   37   38 am   BACKBONE|DICT|INTERRES
    75   37  101 1    
    76   38   39 2    
    77   38   40 1    
    78   40   41 1    
    79   40   42 1    
    80   40  102 1    
    81   41  103 1    
    82   41  104 1    
    83   41  105 1    
    84   42   43 am   BACKBONE|DICT|INTERRES
    85   42  106 1    
    86   43   44 2    
    87   43   45 1    
    88   45   46 1    
    89   45   49 1    
    90   45  107 1    
    91   46   47 1    
    92   46  108 1    
    93   46  109 1    
    94   47   48 1    
    95   48  110 1    
    96   48  111 1    
    97   49   50 am   BACKBONE|DICT|INTERRES
    98   49  112 1    
    99   50   51 2    
   100   50   52 1    
   101   52   53 1    
   102   52   54 1    
   103   52  113 1    
   104   53  114 1    
   105   53  115 1    
   106   53  116 1    
   107   54   55 am   BACKBONE|DICT|INTERRES
   108   54  117 1    
   109   55   56 2    
   110   55   57 1    
   111   57   58 1    
   112   57   59 1    
   113   57  118 1    
   114   58  119 1    
   115   58  120 1    
   116   58  121 1    
   117   59   60 am   BACKBONE|DICT|INTERRES
   118   59  122 1    
   119   60   61 2    
   120   60   62 1    
   121   62   63 1    
   122   62   64 1    
   123   62  123 1    
   124   63  124 1    
   125   63  125 1    
   126   63  126 1    
   127   64   65 am   BACKBONE|DICT|INTERRES
   128   64  127 1    
   129   65   66 2    
@<TRIPOS>SUBSTRUCTURE
     1 UNK         1 GROUP             0       ****    0 ROOT    
