@<TRIPOS>MOLECULE
3R134
127   129    1
SMALL
USER_CHARGES


@<TRIPOS>ATOM
      1 CA         36.6375  -44.7246  -53.0099 C.3       0 UNK        -0.1968 
      2 C          35.3617  -45.5275  -52.8105 C.2       0 UNK         0.4852 
      3 O          35.2836  -46.6711  -53.2556 O.2       0 UNK        -0.5359 
      4 N          34.3677  -44.9498  -52.1223 N.am      1 UNK        -0.4300 
      5 CA         33.0221  -45.5102  -51.9109 C.3       1 UNK         0.0863 
      6 C6         32.0352  -44.4542  -51.3497 C.3       11 UNK        -0.0953 
      7 S7         32.0544  -42.8671  -52.2556 S.3       11 UNK        -0.2369 
      8 C8         30.5590  -42.9830  -53.2992 C.3       11 UNK         0.0226 
      9 C9         30.7146  -43.7019  -54.6430 C.ar      11 UNK        -0.0699 
     10 C10        31.9359  -44.2029  -55.1186 C.ar      11 UNK        -0.0804 
     11 C11        32.0156  -44.8325  -56.3652 C.ar      11 UNK        -0.0871 
     12 C12        30.8699  -44.9308  -57.1571 C.ar      11 UNK        -0.1008 
     13 C13        29.6413  -44.4565  -56.6928 C.ar      11 UNK        -0.0735 
     14 C14        29.5733  -43.8437  -55.4388 C.ar      11 UNK        -0.0945 
     15 C15        28.3843  -44.6726  -57.5226 C.3       11 UNK         0.0169 
     16 S16        27.8698  -43.1732  -58.4181 S.3       11 UNK        -0.2669 
     17 C17        26.8918  -42.2173  -57.2023 C.3       11 UNK        -0.0850 
     18 CA         25.8482  -43.0030  -56.3560 C.3       10 UNK         0.0855 
     19 C          25.0357  -42.0156  -55.4666 C.2       10 UNK         0.5543 
     20 N          23.7419  -41.8248  -55.6941 N.am      10 UNK        -0.7343 
     21 O          25.5952  -41.4115  -54.5551 O.2       10 UNK        -0.5027 
     22 N          25.0423  -43.9342  -57.1685 N.am      10 UNK        -0.4495 
     23 C          24.2671  -44.9076  -56.6711 C.2       10 UNK         0.4903 
     24 O          24.1311  -45.1285  -55.4679 O.2       10 UNK        -0.4860 
     25 CA         23.5096  -45.7935  -57.6748 C.3       9 UNK         0.0227 
     26 CB         22.8272  -44.9900  -58.8039 C.3       9 UNK        -0.1964 
     27 N          24.3484  -46.8798  -58.1917 N.am      9 UNK        -0.4231 
     28 C          25.4204  -46.7943  -58.9904 C.2       9 UNK         0.5014 
     29 O          25.8270  -45.7419  -59.4829 O.2       9 UNK        -0.5270 
     30 CA         26.1550  -48.1177  -59.2854 C.3       8 UNK         0.0284 
     31 CB         27.3438  -47.9365  -60.2482 C.3       8 UNK        -0.1977 
     32 N          26.6245  -48.7743  -58.0601 N.am      8 UNK        -0.4342 
     33 C          25.8546  -49.5039  -57.2373 C.2       8 UNK         0.5039 
     34 O          24.6462  -49.6647  -57.4187 O.2       8 UNK        -0.5547 
     35 CA         26.5133  -50.1582  -56.0074 C.3       7 UNK         0.0281 
     36 CB         26.8212  -51.6370  -56.2904 C.3       7 UNK        -0.1963 
     37 N          27.7384  -49.4845  -55.5754 N.am      7 UNK        -0.4444 
     38 C          27.7725  -48.2682  -55.0110 C.2       7 UNK         0.5104 
     39 O          26.7627  -47.6381  -54.6983 O.2       7 UNK        -0.5100 
     40 CA         29.1521  -47.6241  -54.7770 C.3       6 UNK         0.0396 
     41 CB         29.5142  -47.6206  -53.2861 C.3       6 UNK        -0.1801 
     42 N          30.2551  -48.2202  -55.5360 N.am      6 UNK        -0.4747 
     43 C          30.3355  -48.2945  -56.8741 C.2       6 UNK         0.5012 
     44 O          29.4534  -47.8962  -57.6346 O.2       6 UNK        -0.5003 
     45 CA         31.5719  -49.0029  -57.4649 C.3       5 UNK         0.0782 
     46 C46        32.6822  -47.9962  -57.8646 C.3       11 UNK        -0.0868 
     47 S47        33.5178  -47.1742  -56.4573 S.3       11 UNK        -0.2515 
     48 C48        33.3403  -45.4020  -56.8558 C.3       11 UNK         0.0199 
     49 N          32.0804  -50.0870  -56.6149 N.am      5 UNK        -0.4607 
     50 C          31.3692  -51.1422  -56.1895 C.2       4 UNK         0.5031 
     51 O          30.1992  -51.3454  -56.5157 O.2       4 UNK        -0.5119 
     52 CA         32.0495  -52.1297  -55.2214 C.3       4 UNK         0.0263 
     53 CB         32.3438  -53.4589  -55.9361 C.3       4 UNK        -0.1967 
     54 N          33.2834  -51.6447  -54.5902 N.am      4 UNK        -0.4237 
     55 C          33.3833  -50.5869  -53.7732 C.2       3 UNK         0.4908 
     56 O          32.4404  -49.8386  -53.5030 O.2       3 UNK        -0.5102 
     57 CA         34.7896  -50.3162  -53.2109 C.3       3 UNK         0.0241 
     58 CB         35.7243  -49.7826  -54.3103 C.3       3 UNK        -0.1971 
     59 N          34.7533  -49.3542  -52.1095 N.am      3 UNK        -0.4139 
     60 C          34.4146  -49.6557  -50.8464 C.2       2 UNK         0.5016 
     61 O          34.1847  -50.8024  -50.4578 O.2       2 UNK        -0.5319 
     62 CA         34.3268  -48.4964  -49.8325 C.3       2 UNK         0.0286 
     63 CB         35.5950  -48.4411  -48.9651 C.3       2 UNK        -0.1963 
     64 N          34.1293  -47.1939  -50.4712 N.am      2 UNK        -0.4790 
     65 C          32.9879  -46.7977  -51.0523 C.2       1 UNK         0.5024 
     66 O          31.9301  -47.4158  -50.9362 O.2       1 UNK        -0.4888 
     67 H67        37.4837  -45.2484  -52.5662 H         1 UNK         0.0892 
     68 H68        36.8350  -44.5978  -54.0739 H         1 UNK         0.0892 
     69 H69        36.5730  -43.7357  -52.5564 H         1 UNK         0.0892 
     70 H70        34.4945  -44.0117  -51.7689 H         1 UNK         0.3107 
     71 H71        32.6552  -45.8160  -52.8923 H         1 UNK         0.0773 
     72 H72        32.2765  -44.2326  -50.3083 H         1 UNK         0.0680 
     73 H73        31.0179  -44.8498  -51.3424 H         1 UNK         0.0680 
     74 H74        30.2291  -41.9638  -53.5048 H         1 UNK         0.0650 
     75 H75        29.7558  -43.4497  -52.7273 H         1 UNK         0.0650 
     76 H76        32.8355  -44.1092  -54.5292 H         1 UNK         0.1397 
     77 H77        30.9230  -45.4120  -58.1232 H         1 UNK         0.1363 
     78 H78        28.6249  -43.4772  -55.0743 H         1 UNK         0.1355 
     79 H79        27.5829  -45.0690  -56.9009 H         1 UNK         0.0707 
     80 H80        28.5674  -45.4460  -58.2689 H         1 UNK         0.0707 
     81 H81        27.5953  -41.7044  -56.5436 H         1 UNK         0.1034 
     82 H82        26.3892  -41.4264  -57.7626 H         1 UNK         0.1034 
     83 H83        26.3975  -43.6214  -55.6458 H         1 UNK         0.0482 
     84 H84        23.2783  -42.3173  -56.4402 H         1 UNK         0.3460 
     85 H85        23.2254  -41.1848  -55.1115 H         1 UNK         0.3460 
     86 H86        25.1665  -43.8818  -58.1710 H         1 UNK         0.2989 
     87 H87        22.7129  -46.2834  -57.1125 H         1 UNK         0.0559 
     88 H88        23.5397  -44.4865  -59.4571 H         1 UNK         0.0848 
     89 H89        22.1701  -44.2235  -58.3913 H         1 UNK         0.0848 
     90 H90        22.2115  -45.6380  -59.4276 H         1 UNK         0.0848 
     91 H91        24.1447  -47.8064  -57.8238 H         1 UNK         0.3144 
     92 H92        25.4373  -48.7761  -59.7797 H         1 UNK         0.0727 
     93 H93        27.0131  -47.5212  -61.2011 H         1 UNK         0.0790 
     94 H94        28.0945  -47.2580  -59.8429 H         1 UNK         0.0790 
     95 H95        27.8320  -48.8874  -60.4615 H         1 UNK         0.0790 
     96 H96        27.5996  -48.6202  -57.8177 H         1 UNK         0.3215 
     97 H97        25.7936  -50.1107  -55.1872 H         1 UNK         0.0863 
     98 H98        27.5273  -51.7513  -57.1140 H         1 UNK         0.0808 
     99 H99        25.9142  -52.1793  -56.5614 H         1 UNK         0.0808 
    100 H100       27.2446  -52.1305  -55.4154 H         1 UNK         0.0808 
    101 H101       28.6153  -49.9381  -55.8056 H         1 UNK         0.3118 
    102 H102       29.0632  -46.5877  -55.0973 H         1 UNK         0.0546 
    103 H103       28.7116  -47.1932  -52.6838 H         1 UNK         0.0828 
    104 H104       30.4043  -47.0188  -53.1066 H         1 UNK         0.0828 
    105 H105       29.7080  -48.6269  -52.9124 H         1 UNK         0.0828 
    106 H106       31.0229  -48.5998  -54.9947 H         1 UNK         0.3005 
    107 H107       31.2235  -49.4795  -58.3842 H         1 UNK         0.1257 
    108 H108       32.2829  -47.2492  -58.5516 H         1 UNK         0.0775 
    109 H109       33.4508  -48.5206  -58.4343 H         1 UNK         0.0775 
    110 H110       34.1666  -44.8630  -56.3896 H         1 UNK         0.0840 
    111 H111       33.4510  -45.2443  -57.9296 H         1 UNK         0.0840 
    112 H112       33.0247  -49.9764  -56.2767 H         1 UNK         0.2987 
    113 H113       31.3325  -52.3250  -54.4212 H         1 UNK         0.0785 
    114 H114       33.0772  -53.3343  -56.7338 H         1 UNK         0.0798 
    115 H115       31.4392  -53.8699  -56.3872 H         1 UNK         0.0798 
    116 H116       32.7237  -54.2090  -55.2421 H         1 UNK         0.0798 
    117 H117       34.1152  -52.1888  -54.7709 H         1 UNK         0.3079 
    118 H118       35.1968  -51.2587  -52.8381 H         1 UNK         0.0794 
    119 H119       35.3357  -48.8691  -54.7606 H         1 UNK         0.0786 
    120 H120       35.8549  -50.5102  -55.1119 H         1 UNK         0.0786 
    121 H121       36.7152  -49.5601  -53.9139 H         1 UNK         0.0786 
    122 H122       34.8851  -48.3797  -52.3680 H         1 UNK         0.3032 
    123 H123       33.4722  -48.6973  -49.1821 H         1 UNK         0.1094 
    124 H124       35.5197  -47.6683  -48.1999 H         1 UNK         0.0794 
    125 H125       35.7566  -49.3895  -48.4505 H         1 UNK         0.0794 
    126 H126       36.4850  -48.2390  -49.5625 H         1 UNK         0.0794 
    127 H127       34.9508  -46.6238  -50.6115 H         1 UNK         0.3016 
@<TRIPOS>BOND
     1    1    2 1    
     2    1   67 1    
     3    1   68 1    
     4    1   69 1    
     5    2    3 2    
     6    2    4 am   BACKBONE|DICT|INTERRES
     7    4    5 1    
     8    4   70 1    
     9    5    6 1    
    10    5   65 1    
    11    5   71 1    
    12    6    7 1    
    13    6   72 1    
    14    6   73 1    
    15    7    8 1    
    16    8    9 1    
    17    8   74 1    
    18    8   75 1    
    19    9   10 ar   
    20    9   14 ar   
    21   10   11 ar   
    22   10   76 1    
    23   11   12 ar   
    24   11   48 1    
    25   12   13 ar   
    26   12   77 1    
    27   13   14 ar   
    28   13   15 1    
    29   14   78 1    
    30   15   16 1    
    31   15   79 1    
    32   15   80 1    
    33   16   17 1    
    34   17   18 1    
    35   17   81 1    
    36   17   82 1    
    37   18   19 1    
    38   18   22 1    
    39   18   83 1    
    40   19   20 am   BACKBONE|DICT|INTERRES
    41   19   21 2    
    42   20   84 1    
    43   20   85 1    
    44   22   23 am   BACKBONE|DICT|INTERRES
    45   22   86 1    
    46   23   24 2    
    47   23   25 1    
    48   25   26 1    
    49   25   27 1    
    50   25   87 1    
    51   26   88 1    
    52   26   89 1    
    53   26   90 1    
    54   27   28 am   BACKBONE|DICT|INTERRES
    55   27   91 1    
    56   28   29 2    
    57   28   30 1    
    58   30   31 1    
    59   30   32 1    
    60   30   92 1    
    61   31   93 1    
    62   31   94 1    
    63   31   95 1    
    64   32   33 am   BACKBONE|DICT|INTERRES
    65   32   96 1    
    66   33   34 2    
    67   33   35 1    
    68   35   36 1    
    69   35   37 1    
    70   35   97 1    
    71   36   98 1    
    72   36   99 1    
    73   36  100 1    
    74   37   38 am   BACKBONE|DICT|INTERRES
    75   37  101 1    
    76   38   39 2    
    77   38   40 1    
    78   40   41 1    
    79   40   42 1    
    80   40  102 1    
    81   41  103 1    
    82   41  104 1    
    83   41  105 1    
    84   42   43 am   BACKBONE|DICT|INTERRES
    85   42  106 1    
    86   43   44 2    
    87   43   45 1    
    88   45   46 1    
    89   45   49 1    
    90   45  107 1    
    91   46   47 1    
    92   46  108 1    
    93   46  109 1    
    94   47   48 1    
    95   48  110 1    
    96   48  111 1    
    97   49   50 am   BACKBONE|DICT|INTERRES
    98   49  112 1    
    99   50   51 2    
   100   50   52 1    
   101   52   53 1    
   102   52   54 1    
   103   52  113 1    
   104   53  114 1    
   105   53  115 1    
   106   53  116 1    
   107   54   55 am   BACKBONE|DICT|INTERRES
   108   54  117 1    
   109   55   56 2    
   110   55   57 1    
   111   57   58 1    
   112   57   59 1    
   113   57  118 1    
   114   58  119 1    
   115   58  120 1    
   116   58  121 1    
   117   59   60 am   BACKBONE|DICT|INTERRES
   118   59  122 1    
   119   60   61 2    
   120   60   62 1    
   121   62   63 1    
   122   62   64 1    
   123   62  123 1    
   124   63  124 1    
   125   63  125 1    
   126   63  126 1    
   127   64   65 am   BACKBONE|DICT|INTERRES
   128   64  127 1    
   129   65   66 2    
@<TRIPOS>SUBSTRUCTURE
     1 UNK         1 GROUP             0       ****    0 ROOT    
