@<TRIPOS>MOLECULE
3R134
127   129    1
SMALL
USER_CHARGES


@<TRIPOS>ATOM
      1 CA         36.1461  -44.1905  -51.9386 C.3       0 UNK        -0.1968 
      2 C          35.0292  -45.2076  -52.1172 C.2       0 UNK         0.4852 
      3 O          35.1268  -46.0749  -52.9835 O.2       0 UNK        -0.5359 
      4 N          33.9728  -45.1126  -51.2990 N.am      1 UNK        -0.4300 
      5 CA         32.7846  -45.9774  -51.3483 C.3       1 UNK         0.0863 
      6 C6         31.5242  -45.2678  -50.7945 C.3       11 UNK        -0.0953 
      7 S7         31.1730  -43.6778  -51.6281 S.3       11 UNK        -0.2369 
      8 C8         29.8355  -44.1124  -52.7974 C.3       11 UNK         0.0226 
      9 C9         30.2582  -44.2643  -54.2612 C.ar      11 UNK        -0.0699 
     10 C10        31.5597  -44.6128  -54.6469 C.ar      11 UNK        -0.0804 
     11 C11        31.8896  -44.7826  -55.9948 C.ar      11 UNK        -0.0871 
     12 C12        30.9158  -44.5649  -56.9729 C.ar      11 UNK        -0.1008 
     13 C13        29.6142  -44.2129  -56.6081 C.ar      11 UNK        -0.0735 
     14 C14        29.2917  -44.0748  -55.2548 C.ar      11 UNK        -0.0945 
     15 C15        28.5485  -43.9951  -57.6699 C.3       11 UNK         0.0169 
     16 S16        28.0771  -42.2409  -57.7681 S.3       11 UNK        -0.2669 
     17 C17        26.6913  -42.2957  -58.9516 C.3       11 UNK        -0.0850 
     18 CA         25.3105  -42.3343  -58.2440 C.3       10 UNK         0.0855 
     19 C          24.1765  -41.9789  -59.2366 C.2       10 UNK         0.5543 
     20 N          23.6830  -40.7491  -59.2028 N.am      10 UNK        -0.7343 
     21 O          23.7679  -42.7937  -60.0617 O.2       10 UNK        -0.5027 
     22 N          25.0478  -43.6555  -57.6660 N.am      10 UNK        -0.4495 
     23 C          24.9925  -43.9679  -56.3694 C.2       10 UNK         0.4903 
     24 O          25.1803  -43.1595  -55.4602 O.2       10 UNK        -0.4860 
     25 CA         24.6911  -45.4363  -56.0069 C.3       9 UNK         0.0227 
     26 CB         23.1723  -45.6802  -55.9165 C.3       9 UNK        -0.1964 
     27 N          25.3480  -46.4467  -56.8538 N.am      9 UNK        -0.4231 
     28 C          25.1610  -46.7142  -58.1579 C.2       9 UNK         0.5014 
     29 O          24.3683  -46.1015  -58.8735 O.2       9 UNK        -0.5270 
     30 CA         26.0141  -47.8267  -58.7964 C.3       8 UNK         0.0284 
     31 CB         27.1042  -47.2162  -59.6927 C.3       8 UNK        -0.1977 
     32 N          26.6356  -48.7173  -57.8138 N.am      8 UNK        -0.4342 
     33 C          25.9737  -49.6694  -57.1370 C.2       8 UNK         0.5039 
     34 O          24.7917  -49.9489  -57.3407 O.2       8 UNK        -0.5547 
     35 CA         26.7355  -50.4275  -56.0323 C.3       7 UNK         0.0281 
     36 CB         27.1509  -51.8220  -56.5269 C.3       7 UNK        -0.1963 
     37 N          27.9152  -49.7158  -55.5313 N.am      7 UNK        -0.4444 
     38 C          27.8806  -48.5390  -54.8862 C.2       7 UNK         0.5104 
     39 O          26.8372  -47.9480  -54.6068 O.2       7 UNK        -0.5100 
     40 CA         29.2252  -47.8707  -54.5517 C.3       6 UNK         0.0396 
     41 CB         29.5956  -48.0981  -53.0809 C.3       6 UNK        -0.1801 
     42 N          30.3394  -48.2939  -55.4028 N.am      6 UNK        -0.4747 
     43 C          30.3966  -48.1389  -56.7355 C.2       6 UNK         0.5012 
     44 O          29.4898  -47.6383  -57.4021 O.2       6 UNK        -0.5003 
     45 CA         31.6352  -48.7106  -57.4583 C.3       5 UNK         0.0782 
     46 C46        32.6971  -47.6200  -57.7497 C.3       11 UNK        -0.0868 
     47 S47        33.5610  -46.9914  -56.2645 S.3       11 UNK        -0.2515 
     48 C48        33.3032  -45.1900  -56.3872 C.3       11 UNK         0.0199 
     49 N          32.2137  -49.8816  -56.7861 N.am      5 UNK        -0.4607 
     50 C          31.5657  -51.0289  -56.5377 C.2       4 UNK         0.5031 
     51 O          30.4024  -51.2374  -56.8813 O.2       4 UNK        -0.5119 
     52 CA         32.3157  -52.1238  -55.7570 C.3       4 UNK         0.0263 
     53 CB         32.7979  -53.2242  -56.7161 C.3       4 UNK        -0.1967 
     54 N          33.4516  -51.6538  -54.9543 N.am      4 UNK        -0.4237 
     55 C          33.3768  -50.7889  -53.9337 C.2       3 UNK         0.4908 
     56 O          32.3405  -50.2114  -53.5929 O.2       3 UNK        -0.5102 
     57 CA         34.6884  -50.5112  -53.1904 C.3       3 UNK         0.0241 
     58 CB         35.6103  -49.5993  -54.0236 C.3       3 UNK        -0.1971 
     59 N          34.3737  -49.8741  -51.9170 N.am      3 UNK        -0.4139 
     60 C          35.1793  -49.7598  -50.8560 C.2       2 UNK         0.5016 
     61 O          36.3117  -50.2447  -50.8064 O.2       2 UNK        -0.5319 
     62 CA         34.6371  -48.9317  -49.6701 C.3       2 UNK         0.0286 
     63 CB         35.6756  -48.7456  -48.5477 C.3       2 UNK        -0.1963 
     64 N          34.1876  -47.6109  -50.1218 N.am      2 UNK        -0.4790 
     65 C          33.0004  -47.3569  -50.6897 C.2       1 UNK         0.5024 
     66 O          32.1036  -48.1978  -50.7506 O.2       1 UNK        -0.4888 
     67 H67        35.9319  -43.4848  -51.1360 H         1 UNK         0.0892 
     68 H68        37.0817  -44.6976  -51.7047 H         1 UNK         0.0892 
     69 H69        36.2862  -43.6243  -52.8590 H         1 UNK         0.0892 
     70 H70        33.9430  -44.3751  -50.6088 H         1 UNK         0.3107 
     71 H71        32.5878  -46.2209  -52.3920 H         1 UNK         0.0773 
     72 H72        31.6493  -45.0617  -49.7300 H         1 UNK         0.0680 
     73 H73        30.6488  -45.9149  -50.8682 H         1 UNK         0.0680 
     74 H74        29.0873  -43.3212  -52.7283 H         1 UNK         0.0650 
     75 H75        29.3332  -45.0261  -52.4797 H         1 UNK         0.0650 
     76 H76        32.3313  -44.7544  -53.9086 H         1 UNK         0.1397 
     77 H77        31.1663  -44.6801  -58.0182 H         1 UNK         0.1363 
     78 H78        28.2793  -43.8111  -54.9784 H         1 UNK         0.1355 
     79 H79        28.9002  -44.3282  -58.6475 H         1 UNK         0.0707 
     80 H80        27.6790  -44.6057  -57.4288 H         1 UNK         0.0707 
     81 H81        26.7763  -41.4007  -59.5715 H         1 UNK         0.1034 
     82 H82        26.8080  -43.1413  -59.6322 H         1 UNK         0.1034 
     83 H83        25.3042  -41.5811  -57.4532 H         1 UNK         0.0482 
     84 H84        24.0203  -40.0694  -58.5385 H         1 UNK         0.3460 
     85 H85        22.9543  -40.4953  -59.8519 H         1 UNK         0.3460 
     86 H86        24.7901  -44.3804  -58.3333 H         1 UNK         0.2989 
     87 H87        25.1030  -45.5956  -55.0090 H         1 UNK         0.0559 
     88 H88        22.6755  -45.5292  -56.8753 H         1 UNK         0.0848 
     89 H89        22.7110  -44.9961  -55.2030 H         1 UNK         0.0848 
     90 H90        22.9534  -46.6940  -55.5812 H         1 UNK         0.0848 
     91 H91        26.0218  -47.0195  -56.3575 H         1 UNK         0.3144 
     92 H92        25.3520  -48.4212  -59.4298 H         1 UNK         0.0727 
     93 H93        27.7818  -46.5767  -59.1273 H         1 UNK         0.0790 
     94 H94        26.6637  -46.6042  -60.4811 H         1 UNK         0.0790 
     95 H95        27.7000  -47.9894  -60.1780 H         1 UNK         0.0790 
     96 H96        27.6108  -48.5384  -57.5932 H         1 UNK         0.3215 
     97 H97        26.0475  -50.5534  -55.1935 H         1 UNK         0.0863 
     98 H98        27.6662  -52.3854  -55.7488 H         1 UNK         0.0808 
     99 H99        27.8120  -51.7619  -57.3923 H         1 UNK         0.0808 
    100 H100       26.2786  -52.4049  -56.8255 H         1 UNK         0.0808 
    101 H101       28.8180  -50.1156  -55.7608 H         1 UNK         0.3118 
    102 H102       29.0899  -46.8007  -54.7063 H         1 UNK         0.0546 
    103 H103       28.7968  -47.7662  -52.4165 H         1 UNK         0.0828 
    104 H104       30.4905  -47.5374  -52.8161 H         1 UNK         0.0828 
    105 H105       29.7858  -49.1508  -52.8681 H         1 UNK         0.0828 
    106 H106       31.1166  -48.7506  -54.9401 H         1 UNK         0.3005 
    107 H107       31.2682  -49.0663  -58.4239 H         1 UNK         0.1257 
    108 H108       32.2473  -46.7933  -58.3006 H         1 UNK         0.0775 
    109 H109       33.4562  -48.0278  -58.4189 H         1 UNK         0.0775 
    110 H110       34.0182  -44.6941  -55.7287 H         1 UNK         0.0840 
    111 H111       33.5395  -44.8512  -57.3971 H         1 UNK         0.0840 
    112 H112       33.1598  -49.7772  -56.4505 H         1 UNK         0.2987 
    113 H113       31.5941  -52.5668  -55.0672 H         1 UNK         0.0785 
    114 H114       31.9697  -53.6183  -57.3073 H         1 UNK         0.0798 
    115 H115       33.2314  -54.0642  -56.1730 H         1 UNK         0.0798 
    116 H116       33.5475  -52.8506  -57.4148 H         1 UNK         0.0798 
    117 H117       34.3493  -52.0634  -55.1715 H         1 UNK         0.3079 
    118 H118       35.1850  -51.4642  -52.9962 H         1 UNK         0.0794 
    119 H119       35.1519  -48.6257  -54.2020 H         1 UNK         0.0786 
    120 H120       35.8370  -50.0386  -54.9955 H         1 UNK         0.0786 
    121 H121       36.5618  -49.4274  -53.5204 H         1 UNK         0.0786 
    122 H122       33.4343  -49.4889  -51.8680 H         1 UNK         0.3032 
    123 H123       33.7904  -49.4823  -49.2532 H         1 UNK         0.1094 
    124 H124       36.5618  -48.2162  -48.9000 H         1 UNK         0.0794 
    125 H125       35.2591  -48.1841  -47.7113 H         1 UNK         0.0794 
    126 H126       36.0046  -49.7092  -48.1560 H         1 UNK         0.0794 
    127 H127       34.8862  -46.8823  -50.1502 H         1 UNK         0.3016 
@<TRIPOS>BOND
     1    1    2 1    
     2    1   67 1    
     3    1   68 1    
     4    1   69 1    
     5    2    3 2    
     6    2    4 am   BACKBONE|DICT|INTERRES
     7    4    5 1    
     8    4   70 1    
     9    5    6 1    
    10    5   65 1    
    11    5   71 1    
    12    6    7 1    
    13    6   72 1    
    14    6   73 1    
    15    7    8 1    
    16    8    9 1    
    17    8   74 1    
    18    8   75 1    
    19    9   10 ar   
    20    9   14 ar   
    21   10   11 ar   
    22   10   76 1    
    23   11   12 ar   
    24   11   48 1    
    25   12   13 ar   
    26   12   77 1    
    27   13   14 ar   
    28   13   15 1    
    29   14   78 1    
    30   15   16 1    
    31   15   79 1    
    32   15   80 1    
    33   16   17 1    
    34   17   18 1    
    35   17   81 1    
    36   17   82 1    
    37   18   19 1    
    38   18   22 1    
    39   18   83 1    
    40   19   20 am   BACKBONE|DICT|INTERRES
    41   19   21 2    
    42   20   84 1    
    43   20   85 1    
    44   22   23 am   BACKBONE|DICT|INTERRES
    45   22   86 1    
    46   23   24 2    
    47   23   25 1    
    48   25   26 1    
    49   25   27 1    
    50   25   87 1    
    51   26   88 1    
    52   26   89 1    
    53   26   90 1    
    54   27   28 am   BACKBONE|DICT|INTERRES
    55   27   91 1    
    56   28   29 2    
    57   28   30 1    
    58   30   31 1    
    59   30   32 1    
    60   30   92 1    
    61   31   93 1    
    62   31   94 1    
    63   31   95 1    
    64   32   33 am   BACKBONE|DICT|INTERRES
    65   32   96 1    
    66   33   34 2    
    67   33   35 1    
    68   35   36 1    
    69   35   37 1    
    70   35   97 1    
    71   36   98 1    
    72   36   99 1    
    73   36  100 1    
    74   37   38 am   BACKBONE|DICT|INTERRES
    75   37  101 1    
    76   38   39 2    
    77   38   40 1    
    78   40   41 1    
    79   40   42 1    
    80   40  102 1    
    81   41  103 1    
    82   41  104 1    
    83   41  105 1    
    84   42   43 am   BACKBONE|DICT|INTERRES
    85   42  106 1    
    86   43   44 2    
    87   43   45 1    
    88   45   46 1    
    89   45   49 1    
    90   45  107 1    
    91   46   47 1    
    92   46  108 1    
    93   46  109 1    
    94   47   48 1    
    95   48  110 1    
    96   48  111 1    
    97   49   50 am   BACKBONE|DICT|INTERRES
    98   49  112 1    
    99   50   51 2    
   100   50   52 1    
   101   52   53 1    
   102   52   54 1    
   103   52  113 1    
   104   53  114 1    
   105   53  115 1    
   106   53  116 1    
   107   54   55 am   BACKBONE|DICT|INTERRES
   108   54  117 1    
   109   55   56 2    
   110   55   57 1    
   111   57   58 1    
   112   57   59 1    
   113   57  118 1    
   114   58  119 1    
   115   58  120 1    
   116   58  121 1    
   117   59   60 am   BACKBONE|DICT|INTERRES
   118   59  122 1    
   119   60   61 2    
   120   60   62 1    
   121   62   63 1    
   122   62   64 1    
   123   62  123 1    
   124   63  124 1    
   125   63  125 1    
   126   63  126 1    
   127   64   65 am   BACKBONE|DICT|INTERRES
   128   64  127 1    
   129   65   66 2    
@<TRIPOS>SUBSTRUCTURE
     1 UNK         1 GROUP             0       ****    0 ROOT    
