@<TRIPOS>MOLECULE
3R134
127   129    1
SMALL
USER_CHARGES


@<TRIPOS>ATOM
      1 CA         33.8768  -43.5350  -50.6730 C.3       0 UNK        -0.1968 
      2 C          34.8773  -44.5834  -51.1354 C.2       0 UNK         0.4852 
      3 O          35.6876  -45.0569  -50.3382 O.2       0 UNK        -0.5359 
      4 N          34.8150  -44.9662  -52.4170 N.am      1 UNK        -0.4300 
      5 CA         35.6825  -45.9392  -53.0949 C.3       1 UNK         0.0863 
      6 C6         35.7368  -45.6591  -54.6247 C.3       11 UNK        -0.0953 
      7 S7         34.1018  -45.6656  -55.4448 S.3       11 UNK        -0.2369 
      8 C8         33.7322  -43.8937  -55.6399 C.3       11 UNK         0.0226 
      9 C9         32.2430  -43.6596  -55.4476 C.ar      11 UNK        -0.0699 
     10 C10        31.7184  -43.6158  -54.1552 C.ar      11 UNK        -0.0804 
     11 C11        30.3439  -43.5077  -53.9477 C.ar      11 UNK        -0.0871 
     12 C12        29.4887  -43.3953  -55.0465 C.ar      11 UNK        -0.1008 
     13 C13        30.0017  -43.4073  -56.3484 C.ar      11 UNK        -0.0735 
     14 C14        31.3815  -43.5441  -56.5434 C.ar      11 UNK        -0.0945 
     15 C15        29.0605  -43.3515  -57.5427 C.3       11 UNK         0.0169 
     16 S16        27.9351  -41.9203  -57.4926 S.3       11 UNK        -0.2669 
     17 C17        26.8975  -42.2643  -58.9549 C.3       11 UNK        -0.0850 
     18 CA         25.5352  -42.9263  -58.6112 C.3       10 UNK         0.0855 
     19 C          24.6714  -43.0644  -59.9007 C.2       10 UNK         0.5543 
     20 N          24.4717  -44.2595  -60.4461 N.am      10 UNK        -0.7343 
     21 O          24.1764  -42.0641  -60.4140 O.2       10 UNK        -0.5027 
     22 N          25.7076  -44.1838  -57.8661 N.am      10 UNK        -0.4495 
     23 C          24.7326  -44.8583  -57.2437 C.2       10 UNK         0.4903 
     24 O          23.5935  -44.4150  -57.0892 O.2       10 UNK        -0.4860 
     25 CA         25.0818  -46.2659  -56.7089 C.3       9 UNK         0.0227 
     26 CB         23.8866  -47.2363  -56.8077 C.3       9 UNK        -0.1964 
     27 N          26.2790  -46.8809  -57.3049 N.am      9 UNK        -0.4231 
     28 C          26.5115  -47.1292  -58.6046 C.2       9 UNK         0.5014 
     29 O          25.7429  -46.8118  -59.5141 O.2       9 UNK        -0.5270 
     30 CA         27.8406  -47.8151  -58.9557 C.3       8 UNK         0.0284 
     31 CB         28.9958  -46.8015  -58.9605 C.3       8 UNK        -0.1977 
     32 N          28.1604  -48.9264  -58.0575 N.am      8 UNK        -0.4342 
     33 C          27.5584  -50.1240  -58.1079 C.2       8 UNK         0.5039 
     34 O          26.6823  -50.4172  -58.9228 O.2       8 UNK        -0.5547 
     35 CA         28.0117  -51.1811  -57.0866 C.3       7 UNK         0.0281 
     36 CB         29.3558  -51.7985  -57.5030 C.3       7 UNK        -0.1963 
     37 N          28.1021  -50.6494  -55.7256 N.am      7 UNK        -0.4444 
     38 C          27.0428  -50.2624  -54.9998 C.2       7 UNK         0.5104 
     39 O          25.8757  -50.3551  -55.3803 O.2       7 UNK        -0.5100 
     40 CA         27.3306  -49.6606  -53.6150 C.3       6 UNK         0.0396 
     41 CB         27.4217  -50.7652  -52.5504 C.3       6 UNK        -0.1801 
     42 N          28.5489  -48.8506  -53.5842 N.am      6 UNK        -0.4747 
     43 C          28.7135  -47.6938  -54.2427 C.2       6 UNK         0.5012 
     44 O          27.8619  -47.1898  -54.9756 O.2       6 UNK        -0.5003 
     45 CA         30.0912  -47.0176  -54.0921 C.3       5 UNK         0.0782 
     46 C46        30.2853  -46.4011  -52.6772 C.3       11 UNK        -0.0868 
     47 S47        28.9976  -45.1845  -52.2037 S.3       11 UNK        -0.2515 
     48 C48        29.7880  -43.5771  -52.5352 C.3       11 UNK         0.0199 
     49 N          31.1653  -47.9590  -54.4339 N.am      5 UNK        -0.4607 
     50 C          31.2996  -48.5592  -55.6305 C.2       4 UNK         0.5031 
     51 O          30.5899  -48.3056  -56.6028 O.2       4 UNK        -0.5119 
     52 CA         32.3341  -49.6930  -55.7637 C.3       4 UNK         0.0263 
     53 CB         33.6183  -49.2119  -56.4522 C.3       4 UNK        -0.1967 
     54 N          32.6514  -50.3437  -54.4925 N.am      4 UNK        -0.4237 
     55 C          31.7649  -51.0475  -53.7718 C.2       3 UNK         0.4908 
     56 O          30.6146  -51.2766  -54.1503 O.2       3 UNK        -0.5102 
     57 CA         32.2064  -51.5465  -52.3836 C.3       3 UNK         0.0241 
     58 CB         32.5403  -53.0457  -52.4376 C.3       3 UNK        -0.1971 
     59 N          33.3392  -50.8201  -51.7954 N.am      3 UNK        -0.4139 
     60 C          33.3699  -49.5087  -51.5160 C.2       2 UNK         0.5016 
     61 O          32.4374  -48.7409  -51.7645 O.2       2 UNK        -0.5319 
     62 CA         34.6508  -48.9510  -50.8602 C.3       2 UNK         0.0286 
     63 CB         35.8422  -49.9371  -50.8465 C.3       2 UNK        -0.1963 
     64 N          35.0540  -47.6686  -51.4491 N.am      2 UNK        -0.4790 
     65 C          35.3537  -47.4129  -52.7312 C.2       1 UNK         0.5024 
     66 O          35.3842  -48.2881  -53.5978 O.2       1 UNK        -0.4888 
     67 H67        33.6589  -42.8161  -51.4622 H         1 UNK         0.0892 
     68 H68        32.9455  -44.0106  -50.3661 H         1 UNK         0.0892 
     69 H69        34.2727  -42.9817  -49.8216 H         1 UNK         0.0892 
     70 H70        34.1004  -44.5788  -53.0121 H         1 UNK         0.3107 
     71 H71        36.6956  -45.7808  -52.7193 H         1 UNK         0.0773 
     72 H72        36.3743  -46.3890  -55.1268 H         1 UNK         0.0680 
     73 H73        36.2173  -44.6960  -54.8025 H         1 UNK         0.0680 
     74 H74        34.0562  -43.5630  -56.6277 H         1 UNK         0.0650 
     75 H75        34.2911  -43.3012  -54.9142 H         1 UNK         0.0650 
     76 H76        32.3755  -43.7164  -53.3061 H         1 UNK         0.1397 
     77 H77        28.4206  -43.3283  -54.8893 H         1 UNK         0.1363 
     78 H78        31.7836  -43.5911  -57.5462 H         1 UNK         0.1355 
     79 H79        29.6218  -43.3302  -58.4783 H         1 UNK         0.0707 
     80 H80        28.4706  -44.2661  -57.5492 H         1 UNK         0.0707 
     81 H81        26.7313  -41.3101  -59.4591 H         1 UNK         0.1034 
     82 H82        27.4550  -42.8781  -59.6653 H         1 UNK         0.1034 
     83 H83        24.9942  -42.2422  -57.9546 H         1 UNK         0.0482 
     84 H84        23.9096  -44.3331  -61.2788 H         1 UNK         0.3460 
     85 H85        24.8844  -45.0944  -60.0416 H         1 UNK         0.3460 
     86 H86        26.6073  -44.6282  -57.9460 H         1 UNK         0.2989 
     87 H87        25.3116  -46.1335  -55.6508 H         1 UNK         0.0559 
     88 H88        23.5661  -47.3762  -57.8406 H         1 UNK         0.0848 
     89 H89        23.0280  -46.8651  -56.2470 H         1 UNK         0.0848 
     90 H90        24.1381  -48.2155  -56.3995 H         1 UNK         0.0848 
     91 H91        26.9907  -47.1434  -56.6243 H         1 UNK         0.3144 
     92 H92        27.7454  -48.2115  -59.9691 H         1 UNK         0.0727 
     93 H93        29.2065  -46.4257  -57.9590 H         1 UNK         0.0790 
     94 H94        28.7692  -45.9462  -59.5985 H         1 UNK         0.0790 
     95 H95        29.9126  -47.2537  -59.3391 H         1 UNK         0.0790 
     96 H96        28.9107  -48.7702  -57.3871 H         1 UNK         0.3215 
     97 H97        27.2656  -51.9790  -57.0776 H         1 UNK         0.0863 
     98 H98        29.7245  -52.5026  -56.7565 H         1 UNK         0.0808 
     99 H99        30.1183  -51.0364  -57.6578 H         1 UNK         0.0808 
    100 H100       29.2537  -52.3434  -58.4423 H         1 UNK         0.0808 
    101 H101       29.0212  -50.6051  -55.2975 H         1 UNK         0.3118 
    102 H102       26.4929  -49.0089  -53.3576 H         1 UNK         0.0546 
    103 H103       26.5110  -51.3655  -52.5343 H         1 UNK         0.0828 
    104 H104       27.5491  -50.3461  -51.5523 H         1 UNK         0.0828 
    105 H105       28.2545  -51.4436  -52.7395 H         1 UNK         0.0828 
    106 H106       29.3257  -49.2172  -53.0526 H         1 UNK         0.3005 
    107 H107       30.1335  -46.2113  -54.8271 H         1 UNK         0.1257 
    108 H108       31.2693  -45.9378  -52.6001 H         1 UNK         0.0775 
    109 H109       30.2784  -47.1879  -51.9213 H         1 UNK         0.0775 
    110 H110       29.0545  -42.7824  -52.3919 H         1 UNK         0.0840 
    111 H111       30.5727  -43.4055  -51.7966 H         1 UNK         0.0840 
    112 H112       31.7696  -48.2434  -53.6699 H         1 UNK         0.2987 
    113 H113       31.8923  -50.4531  -56.4079 H         1 UNK         0.0785 
    114 H114       33.3932  -48.7165  -57.3977 H         1 UNK         0.0798 
    115 H115       34.2858  -50.0448  -56.6728 H         1 UNK         0.0798 
    116 H116       34.1651  -48.5017  -55.8366 H         1 UNK         0.0798 
    117 H117       33.5679  -50.1667  -54.1039 H         1 UNK         0.3079 
    118 H118       31.3535  -51.4109  -51.7152 H         1 UNK         0.0794 
    119 H119       33.4079  -53.2437  -53.0684 H         1 UNK         0.0786 
    120 H120       31.7048  -53.6179  -52.8441 H         1 UNK         0.0786 
    121 H121       32.7477  -53.4436  -51.4440 H         1 UNK         0.0786 
    122 H122       34.1562  -51.3695  -51.5708 H         1 UNK         0.3032 
    123 H123       34.3836  -48.7403  -49.8234 H         1 UNK         0.1094 
    124 H124       36.7178  -49.4824  -50.3827 H         1 UNK         0.0794 
    125 H125       35.6134  -50.8331  -50.2682 H         1 UNK         0.0794 
    126 H126       36.1305  -50.2497  -51.8510 H         1 UNK         0.0794 
    127 H127       35.0868  -46.8768  -50.8135 H         1 UNK         0.3016 
@<TRIPOS>BOND
     1    1    2 1    
     2    1   67 1    
     3    1   68 1    
     4    1   69 1    
     5    2    3 2    
     6    2    4 am   BACKBONE|DICT|INTERRES
     7    4    5 1    
     8    4   70 1    
     9    5    6 1    
    10    5   65 1    
    11    5   71 1    
    12    6    7 1    
    13    6   72 1    
    14    6   73 1    
    15    7    8 1    
    16    8    9 1    
    17    8   74 1    
    18    8   75 1    
    19    9   10 ar   
    20    9   14 ar   
    21   10   11 ar   
    22   10   76 1    
    23   11   12 ar   
    24   11   48 1    
    25   12   13 ar   
    26   12   77 1    
    27   13   14 ar   
    28   13   15 1    
    29   14   78 1    
    30   15   16 1    
    31   15   79 1    
    32   15   80 1    
    33   16   17 1    
    34   17   18 1    
    35   17   81 1    
    36   17   82 1    
    37   18   19 1    
    38   18   22 1    
    39   18   83 1    
    40   19   20 am   BACKBONE|DICT|INTERRES
    41   19   21 2    
    42   20   84 1    
    43   20   85 1    
    44   22   23 am   BACKBONE|DICT|INTERRES
    45   22   86 1    
    46   23   24 2    
    47   23   25 1    
    48   25   26 1    
    49   25   27 1    
    50   25   87 1    
    51   26   88 1    
    52   26   89 1    
    53   26   90 1    
    54   27   28 am   BACKBONE|DICT|INTERRES
    55   27   91 1    
    56   28   29 2    
    57   28   30 1    
    58   30   31 1    
    59   30   32 1    
    60   30   92 1    
    61   31   93 1    
    62   31   94 1    
    63   31   95 1    
    64   32   33 am   BACKBONE|DICT|INTERRES
    65   32   96 1    
    66   33   34 2    
    67   33   35 1    
    68   35   36 1    
    69   35   37 1    
    70   35   97 1    
    71   36   98 1    
    72   36   99 1    
    73   36  100 1    
    74   37   38 am   BACKBONE|DICT|INTERRES
    75   37  101 1    
    76   38   39 2    
    77   38   40 1    
    78   40   41 1    
    79   40   42 1    
    80   40  102 1    
    81   41  103 1    
    82   41  104 1    
    83   41  105 1    
    84   42   43 am   BACKBONE|DICT|INTERRES
    85   42  106 1    
    86   43   44 2    
    87   43   45 1    
    88   45   46 1    
    89   45   49 1    
    90   45  107 1    
    91   46   47 1    
    92   46  108 1    
    93   46  109 1    
    94   47   48 1    
    95   48  110 1    
    96   48  111 1    
    97   49   50 am   BACKBONE|DICT|INTERRES
    98   49  112 1    
    99   50   51 2    
   100   50   52 1    
   101   52   53 1    
   102   52   54 1    
   103   52  113 1    
   104   53  114 1    
   105   53  115 1    
   106   53  116 1    
   107   54   55 am   BACKBONE|DICT|INTERRES
   108   54  117 1    
   109   55   56 2    
   110   55   57 1    
   111   57   58 1    
   112   57   59 1    
   113   57  118 1    
   114   58  119 1    
   115   58  120 1    
   116   58  121 1    
   117   59   60 am   BACKBONE|DICT|INTERRES
   118   59  122 1    
   119   60   61 2    
   120   60   62 1    
   121   62   63 1    
   122   62   64 1    
   123   62  123 1    
   124   63  124 1    
   125   63  125 1    
   126   63  126 1    
   127   64   65 am   BACKBONE|DICT|INTERRES
   128   64  127 1    
   129   65   66 2    
@<TRIPOS>SUBSTRUCTURE
     1 UNK         1 GROUP             0       ****    0 ROOT    
