@<TRIPOS>MOLECULE
3R134
127   129    1
SMALL
USER_CHARGES


@<TRIPOS>ATOM
      1 CA         37.5814  -44.0817  -49.3613 C.3       0 UNK        -0.1968 
      2 C          36.3392  -44.2199  -50.2295 C.2       0 UNK         0.4852 
      3 O          36.2013  -43.4973  -51.2177 O.2       0 UNK        -0.5359 
      4 N          35.4398  -45.1419  -49.8705 N.am      1 UNK        -0.4300 
      5 CA         34.2130  -45.4629  -50.5966 C.3       1 UNK         0.0863 
      6 C6         33.1077  -44.3789  -50.4351 C.3       11 UNK        -0.0953 
      7 S7         31.9053  -44.4051  -51.8060 S.3       11 UNK        -0.2369 
      8 C8         32.7070  -43.3073  -53.0146 C.3       11 UNK         0.0226 
      9 C9         32.1425  -43.5374  -54.4088 C.ar      11 UNK        -0.0699 
     10 C10        32.9059  -44.1818  -55.3865 C.ar      11 UNK        -0.0804 
     11 C11        32.3844  -44.4042  -56.6652 C.ar      11 UNK        -0.0871 
     12 C12        31.0750  -44.0024  -56.9545 C.ar      11 UNK        -0.1008 
     13 C13        30.3001  -43.3544  -55.9842 C.ar      11 UNK        -0.0735 
     14 C14        30.8495  -43.1106  -54.7208 C.ar      11 UNK        -0.0945 
     15 C15        28.8832  -42.8891  -56.3044 C.3       11 UNK         0.0169 
     16 S16        27.6682  -43.4946  -55.0868 S.3       11 UNK        -0.2669 
     17 C17        26.1302  -42.6912  -55.6488 C.3       11 UNK        -0.0850 
     18 CA         25.0823  -43.7132  -56.1631 C.3       10 UNK         0.0855 
     19 C          23.6913  -43.0365  -56.3468 C.2       10 UNK         0.5543 
     20 N          23.1329  -42.9695  -57.5496 N.am      10 UNK        -0.7343 
     21 O          23.1056  -42.5663  -55.3746 O.2       10 UNK        -0.5027 
     22 N          25.5708  -44.4397  -57.3473 N.am      10 UNK        -0.4495 
     23 C          25.1128  -45.6266  -57.7650 C.2       10 UNK         0.4903 
     24 O          24.2345  -46.2625  -57.1803 O.2       10 UNK        -0.4860 
     25 CA         25.6999  -46.1825  -59.0754 C.3       9 UNK         0.0227 
     26 CB         26.8051  -45.3023  -59.6995 C.3       9 UNK        -0.1964 
     27 N          26.2282  -47.5280  -58.8534 N.am      9 UNK        -0.4231 
     28 C          25.5840  -48.6672  -59.1406 C.2       9 UNK         0.5014 
     29 O          24.4590  -48.7174  -59.6415 O.2       9 UNK        -0.5270 
     30 CA         26.3298  -49.9815  -58.8538 C.3       8 UNK         0.0284 
     31 CB         27.3871  -50.2497  -59.9378 C.3       8 UNK        -0.1977 
     32 N          26.9587  -50.0168  -57.5321 N.am      8 UNK        -0.4342 
     33 C          26.2919  -50.1203  -56.3733 C.2       8 UNK         0.5039 
     34 O          25.0668  -50.2178  -56.2927 O.2       8 UNK        -0.5547 
     35 CA         27.1313  -50.1254  -55.0825 C.3       7 UNK         0.0281 
     36 CB         27.7169  -51.5203  -54.8095 C.3       7 UNK        -0.1963 
     37 N          28.2089  -49.1365  -55.1141 N.am      7 UNK        -0.4444 
     38 C          28.0174  -47.8102  -55.0854 C.2       7 UNK         0.5104 
     39 O          26.9202  -47.2771  -54.9257 O.2       7 UNK        -0.5100 
     40 CA         29.2611  -46.9343  -55.2963 C.3       6 UNK         0.0396 
     41 CB         29.9710  -46.6585  -53.9630 C.3       6 UNK        -0.1801 
     42 N          30.2027  -47.5278  -56.2456 N.am      6 UNK        -0.4747 
     43 C          29.9775  -47.6335  -57.5624 C.2       6 UNK         0.5012 
     44 O          28.9511  -47.2394  -58.1132 O.2       6 UNK        -0.5003 
     45 CA         31.0508  -48.3495  -58.4036 C.3       5 UNK         0.0782 
     46 C46        32.1405  -47.3707  -58.9056 C.3       11 UNK        -0.0868 
     47 S47        33.3343  -46.8432  -57.6238 S.3       11 UNK        -0.2515 
     48 C48        33.2666  -45.0264  -57.7395 C.3       11 UNK         0.0199 
     49 N          31.6092  -49.5197  -57.7189 N.am      5 UNK        -0.4607 
     50 C          30.9068  -50.6149  -57.3978 C.2       4 UNK         0.5031 
     51 O          29.7269  -50.7788  -57.7033 O.2       4 UNK        -0.5119 
     52 CA         31.6186  -51.6815  -56.5470 C.3       4 UNK         0.0263 
     53 CB         32.3558  -52.6840  -57.4485 C.3       4 UNK        -0.1967 
     54 N          32.5528  -51.1220  -55.5628 N.am      4 UNK        -0.4237 
     55 C          32.2126  -50.2647  -54.5903 C.2       3 UNK         0.4908 
     56 O          31.0617  -49.8561  -54.4150 O.2       3 UNK        -0.5102 
     57 CA         33.3651  -49.7394  -53.7184 C.3       3 UNK         0.0241 
     58 CB         34.2686  -48.7898  -54.5242 C.3       3 UNK        -0.1971 
     59 N          32.8677  -49.0068  -52.5568 N.am      3 UNK        -0.4139 
     60 C          32.4263  -49.5490  -51.4151 C.2       2 UNK         0.5016 
     61 O          32.4411  -50.7588  -51.1789 O.2       2 UNK        -0.5319 
     62 CA         31.8789  -48.5566  -50.3666 C.3       2 UNK         0.0286 
     63 CB         31.9321  -49.1072  -48.9250 C.3       2 UNK        -0.1963 
     64 N          32.5022  -47.2258  -50.4614 N.am      2 UNK        -0.4790 
     65 C          33.7820  -46.8984  -50.2254 C.2       1 UNK         0.5024 
     66 O          34.6182  -47.6826  -49.7695 O.2       1 UNK        -0.4888 
     67 H67        37.5720  -44.7770  -48.5220 H         1 UNK         0.0892 
     68 H68        38.4759  -44.2760  -49.9525 H         1 UNK         0.0892 
     69 H69        37.6491  -43.0701  -48.9622 H         1 UNK         0.0892 
     70 H70        35.6280  -45.7628  -49.0929 H         1 UNK         0.3107 
     71 H71        34.4886  -45.5156  -51.6523 H         1 UNK         0.0773 
     72 H72        32.5788  -44.4958  -49.4874 H         1 UNK         0.0680 
     73 H73        33.5461  -43.3804  -50.4023 H         1 UNK         0.0680 
     74 H74        33.7845  -43.4794  -53.0073 H         1 UNK         0.0650 
     75 H75        32.5555  -42.2686  -52.7177 H         1 UNK         0.0650 
     76 H76        33.9130  -44.5027  -55.1573 H         1 UNK         0.1397 
     77 H77        30.6662  -44.1795  -57.9399 H         1 UNK         0.1363 
     78 H78        30.2588  -42.6085  -53.9668 H         1 UNK         0.1355 
     79 H79        28.8679  -41.7984  -56.3196 H         1 UNK         0.0707 
     80 H80        28.5830  -43.2241  -57.2983 H         1 UNK         0.0707 
     81 H81        25.7354  -42.1354  -54.7959 H         1 UNK         0.1034 
     82 H82        26.3493  -41.9449  -56.4144 H         1 UNK         0.1034 
     83 H83        24.9398  -44.4518  -55.3714 H         1 UNK         0.0482 
     84 H84        22.2309  -42.5317  -57.6522 H         1 UNK         0.3460 
     85 H85        23.6015  -43.3557  -58.3528 H         1 UNK         0.3460 
     86 H86        26.2876  -43.9804  -57.8871 H         1 UNK         0.2989 
     87 H87        24.8781  -46.2220  -59.7930 H         1 UNK         0.0559 
     88 H88        26.4204  -44.3214  -59.9817 H         1 UNK         0.0848 
     89 H89        27.1980  -45.7580  -60.6086 H         1 UNK         0.0848 
     90 H90        27.6467  -45.1514  -59.0225 H         1 UNK         0.0848 
     91 H91        27.1609  -47.5743  -58.4473 H         1 UNK         0.3144 
     92 H92        25.5981  -50.7913  -58.8956 H         1 UNK         0.0727 
     93 H93        27.8578  -51.2233  -59.7993 H         1 UNK         0.0790 
     94 H94        28.1736  -49.4945  -59.9312 H         1 UNK         0.0790 
     95 H95        26.9378  -50.2456  -60.9318 H         1 UNK         0.0790 
     96 H96        27.9755  -50.0374  -57.5112 H         1 UNK         0.3215 
     97 H97        26.4674  -49.8696  -54.2538 H         1 UNK         0.0863 
     98 H98        28.2859  -51.5371  -53.8797 H         1 UNK         0.0808 
     99 H99        28.3776  -51.8483  -55.6118 H         1 UNK         0.0808 
    100 H100       26.9231  -52.2629  -54.7188 H         1 UNK         0.0808 
    101 H101       29.1621  -49.4797  -55.1757 H         1 UNK         0.3118 
    102 H102       28.9352  -45.9822  -55.7149 H         1 UNK         0.0546 
    103 H103       29.3379  -46.0586  -53.3081 H         1 UNK         0.0828 
    104 H104       30.8942  -46.1025  -54.1182 H         1 UNK         0.0828 
    105 H105       30.2160  -47.5763  -53.4294 H         1 UNK         0.0828 
    106 H106       31.0495  -47.9240  -55.8639 H         1 UNK         0.3005 
    107 H107       30.5316  -48.7255  -59.2885 H         1 UNK         0.1257 
    108 H108       32.7141  -47.8532  -59.6983 H         1 UNK         0.0775 
    109 H109       31.6776  -46.5012  -59.3758 H         1 UNK         0.0775 
    110 H110       34.2820  -44.6422  -57.6304 H         1 UNK         0.0840 
    111 H111       32.9453  -44.7134  -58.7337 H         1 UNK         0.0840 
    112 H112       32.5730  -49.4486  -57.4276 H         1 UNK         0.2987 
    113 H113       30.8482  -52.2229  -55.9940 H         1 UNK         0.0785 
    114 H114       32.7824  -53.5020  -56.8676 H         1 UNK         0.0798 
    115 H115       33.1639  -52.2095  -58.0066 H         1 UNK         0.0798 
    116 H116       31.6742  -53.1278  -58.1758 H         1 UNK         0.0798 
    117 H117       33.5187  -51.4065  -55.6444 H         1 UNK         0.3079 
    118 H118       33.9557  -50.5923  -53.3769 H         1 UNK         0.0794 
    119 H119       34.6818  -49.2774  -55.4079 H         1 UNK         0.0786 
    120 H120       35.1134  -48.4481  -53.9255 H         1 UNK         0.0786 
    121 H121       33.7243  -47.9071  -54.8616 H         1 UNK         0.0786 
    122 H122       32.7809  -48.0081  -52.6627 H         1 UNK         0.3032 
    123 H123       30.8265  -48.4167  -50.6203 H         1 UNK         0.1094 
    124 H124       32.9466  -49.3705  -48.6253 H         1 UNK         0.0794 
    125 H125       31.5465  -48.3822  -48.2083 H         1 UNK         0.0794 
    126 H126       31.3251  -50.0084  -48.8302 H         1 UNK         0.0794 
    127 H127       31.9070  -46.4885  -50.8225 H         1 UNK         0.3016 
@<TRIPOS>BOND
     1    1    2 1    
     2    1   67 1    
     3    1   68 1    
     4    1   69 1    
     5    2    3 2    
     6    2    4 am   BACKBONE|DICT|INTERRES
     7    4    5 1    
     8    4   70 1    
     9    5    6 1    
    10    5   65 1    
    11    5   71 1    
    12    6    7 1    
    13    6   72 1    
    14    6   73 1    
    15    7    8 1    
    16    8    9 1    
    17    8   74 1    
    18    8   75 1    
    19    9   10 ar   
    20    9   14 ar   
    21   10   11 ar   
    22   10   76 1    
    23   11   12 ar   
    24   11   48 1    
    25   12   13 ar   
    26   12   77 1    
    27   13   14 ar   
    28   13   15 1    
    29   14   78 1    
    30   15   16 1    
    31   15   79 1    
    32   15   80 1    
    33   16   17 1    
    34   17   18 1    
    35   17   81 1    
    36   17   82 1    
    37   18   19 1    
    38   18   22 1    
    39   18   83 1    
    40   19   20 am   BACKBONE|DICT|INTERRES
    41   19   21 2    
    42   20   84 1    
    43   20   85 1    
    44   22   23 am   BACKBONE|DICT|INTERRES
    45   22   86 1    
    46   23   24 2    
    47   23   25 1    
    48   25   26 1    
    49   25   27 1    
    50   25   87 1    
    51   26   88 1    
    52   26   89 1    
    53   26   90 1    
    54   27   28 am   BACKBONE|DICT|INTERRES
    55   27   91 1    
    56   28   29 2    
    57   28   30 1    
    58   30   31 1    
    59   30   32 1    
    60   30   92 1    
    61   31   93 1    
    62   31   94 1    
    63   31   95 1    
    64   32   33 am   BACKBONE|DICT|INTERRES
    65   32   96 1    
    66   33   34 2    
    67   33   35 1    
    68   35   36 1    
    69   35   37 1    
    70   35   97 1    
    71   36   98 1    
    72   36   99 1    
    73   36  100 1    
    74   37   38 am   BACKBONE|DICT|INTERRES
    75   37  101 1    
    76   38   39 2    
    77   38   40 1    
    78   40   41 1    
    79   40   42 1    
    80   40  102 1    
    81   41  103 1    
    82   41  104 1    
    83   41  105 1    
    84   42   43 am   BACKBONE|DICT|INTERRES
    85   42  106 1    
    86   43   44 2    
    87   43   45 1    
    88   45   46 1    
    89   45   49 1    
    90   45  107 1    
    91   46   47 1    
    92   46  108 1    
    93   46  109 1    
    94   47   48 1    
    95   48  110 1    
    96   48  111 1    
    97   49   50 am   BACKBONE|DICT|INTERRES
    98   49  112 1    
    99   50   51 2    
   100   50   52 1    
   101   52   53 1    
   102   52   54 1    
   103   52  113 1    
   104   53  114 1    
   105   53  115 1    
   106   53  116 1    
   107   54   55 am   BACKBONE|DICT|INTERRES
   108   54  117 1    
   109   55   56 2    
   110   55   57 1    
   111   57   58 1    
   112   57   59 1    
   113   57  118 1    
   114   58  119 1    
   115   58  120 1    
   116   58  121 1    
   117   59   60 am   BACKBONE|DICT|INTERRES
   118   59  122 1    
   119   60   61 2    
   120   60   62 1    
   121   62   63 1    
   122   62   64 1    
   123   62  123 1    
   124   63  124 1    
   125   63  125 1    
   126   63  126 1    
   127   64   65 am   BACKBONE|DICT|INTERRES
   128   64  127 1    
   129   65   66 2    
@<TRIPOS>SUBSTRUCTURE
     1 UNK         1 GROUP             0       ****    0 ROOT    
