@<TRIPOS>MOLECULE
3R134
127   129    1
SMALL
USER_CHARGES


@<TRIPOS>ATOM
      1 CA         31.8667  -41.2329  -52.2579 C.3       0 UNK        -0.1968 
      2 C          32.4256  -42.6229  -51.9948 C.2       0 UNK         0.4852 
      3 O          32.4797  -43.0565  -50.8428 O.2       0 UNK        -0.5359 
      4 N          32.8257  -43.3358  -53.0549 N.am      1 UNK        -0.4300 
      5 CA         33.3906  -44.6892  -53.0300 C.3       1 UNK         0.0863 
      6 C6         34.3107  -44.9535  -54.2517 C.3       11 UNK        -0.0953 
      7 S7         35.5870  -43.6672  -54.5569 S.3       11 UNK        -0.2369 
      8 C8         34.7937  -42.3907  -55.6165 C.3       11 UNK         0.0226 
      9 C9         33.6433  -42.9257  -56.4573 C.ar      11 UNK        -0.0699 
     10 C10        33.8928  -43.8573  -57.4681 C.ar      11 UNK        -0.0804 
     11 C11        32.8327  -44.5004  -58.1112 C.ar      11 UNK        -0.0871 
     12 C12        31.5163  -44.1649  -57.7803 C.ar      11 UNK        -0.1008 
     13 C13        31.2572  -43.2167  -56.7872 C.ar      11 UNK        -0.0735 
     14 C14        32.3240  -42.5759  -56.1527 C.ar      11 UNK        -0.0945 
     15 C15        29.8330  -42.9570  -56.3238 C.3       11 UNK         0.0169 
     16 S16        29.4235  -44.0883  -54.9582 S.3       11 UNK        -0.2669 
     17 C17        27.7926  -43.4686  -54.4310 C.3       11 UNK        -0.0850 
     18 CA         27.0415  -44.5105  -53.5608 C.3       10 UNK         0.0855 
     19 C          25.7691  -43.8911  -52.9295 C.2       10 UNK         0.5543 
     20 N          25.8918  -43.2934  -51.7525 N.am      10 UNK        -0.7343 
     21 O          24.6842  -43.9117  -53.5082 O.2       10 UNK        -0.5027 
     22 N          26.7052  -45.7055  -54.3418 N.am      10 UNK        -0.4495 
     23 C          26.7881  -46.9719  -53.9268 C.2       10 UNK         0.4903 
     24 O          27.2188  -47.3118  -52.8245 O.2       10 UNK        -0.4860 
     25 CA         26.3572  -48.0670  -54.9170 C.3       9 UNK         0.0227 
     26 CB         24.8633  -48.4088  -54.7646 C.3       9 UNK        -0.1964 
     27 N          26.7198  -47.7911  -56.3129 N.am      9 UNK        -0.4231 
     28 C          26.2290  -46.8792  -57.1660 C.2       9 UNK         0.5014 
     29 O          25.3371  -46.0788  -56.8839 O.2       9 UNK        -0.5270 
     30 CA         26.8735  -46.8243  -58.5596 C.3       8 UNK         0.0284 
     31 CB         28.0664  -45.8542  -58.5481 C.3       8 UNK        -0.1977 
     32 N          27.3266  -48.1480  -58.9931 N.am      8 UNK        -0.4342 
     33 C          26.5741  -49.0261  -59.6708 C.2       8 UNK         0.5039 
     34 O          25.4436  -48.7790  -60.0927 O.2       8 UNK        -0.5547 
     35 CA         27.1787  -50.4213  -59.9197 C.3       7 UNK         0.0281 
     36 CB         27.9469  -50.4447  -61.2512 C.3       7 UNK        -0.1963 
     37 N          28.0642  -50.8674  -58.8402 N.am      7 UNK        -0.4444 
     38 C          27.6567  -51.1902  -57.6042 C.2       7 UNK         0.5104 
     39 O          26.4756  -51.2289  -57.2610 O.2       7 UNK        -0.5100 
     40 CA         28.7507  -51.4925  -56.5617 C.3       6 UNK         0.0396 
     41 CB         28.9806  -53.0080  -56.4562 C.3       6 UNK        -0.1801 
     42 N          30.0391  -50.8242  -56.7942 N.am      6 UNK        -0.4747 
     43 C          30.2268  -49.5008  -56.9024 C.2       6 UNK         0.5012 
     44 O          29.3037  -48.6864  -56.8959 O.2       6 UNK        -0.5003 
     45 CA         31.6824  -49.0134  -57.0129 C.3       5 UNK         0.0782 
     46 C46        31.7769  -47.5622  -57.5456 C.3       11 UNK        -0.0868 
     47 S47        33.4404  -47.1829  -58.1860 S.3       11 UNK        -0.2515 
     48 C48        33.1182  -45.6298  -59.0861 C.3       11 UNK         0.0199 
     49 N          32.2960  -49.1587  -55.6912 N.am      5 UNK        -0.4607 
     50 C          32.8979  -50.2759  -55.2641 C.2       4 UNK         0.5031 
     51 O          33.1454  -51.2396  -55.9901 O.2       4 UNK        -0.5119 
     52 CA         33.2033  -50.3634  -53.7613 C.3       4 UNK         0.0263 
     53 CB         34.3852  -49.4574  -53.3783 C.3       4 UNK        -0.1967 
     54 N          32.0323  -50.0314  -52.9450 N.am      4 UNK        -0.4237 
     55 C          30.8886  -50.7308  -52.8960 C.2       3 UNK         0.4908 
     56 O          30.7183  -51.7895  -53.4999 O.2       3 UNK        -0.5102 
     57 CA         29.7236  -50.1770  -52.0464 C.3       3 UNK         0.0241 
     58 CB         29.7190  -50.8086  -50.6407 C.3       3 UNK        -0.1971 
     59 N          29.6334  -48.7100  -51.9741 N.am      3 UNK        -0.4139 
     60 C          30.5062  -47.8453  -51.4429 C.2       2 UNK         0.5016 
     61 O          31.5341  -48.1739  -50.8447 O.2       2 UNK        -0.5319 
     62 CA         30.1953  -46.3581  -51.6586 C.3       2 UNK         0.0286 
     63 CB         29.4395  -45.7740  -50.4553 C.3       2 UNK        -0.1963 
     64 N          31.4002  -45.5675  -51.9030 N.am      2 UNK        -0.4790 
     65 C          32.2574  -45.7381  -52.9195 C.2       1 UNK         0.5024 
     66 O          32.1500  -46.6396  -53.7572 O.2       1 UNK        -0.4888 
     67 H67        32.1792  -40.5458  -51.4719 H         1 UNK         0.0892 
     68 H68        30.7775  -41.2633  -52.2716 H         1 UNK         0.0892 
     69 H69        32.2134  -40.8298  -53.2086 H         1 UNK         0.0892 
     70 H70        32.7124  -42.9576  -53.9828 H         1 UNK         0.3107 
     71 H71        34.0045  -44.7878  -52.1321 H         1 UNK         0.0773 
     72 H72        33.7237  -45.1304  -55.1513 H         1 UNK         0.0680 
     73 H73        34.8477  -45.8898  -54.0909 H         1 UNK         0.0680 
     74 H74        34.4519  -41.5756  -54.9770 H         1 UNK         0.0650 
     75 H75        35.5505  -41.9599  -56.2734 H         1 UNK         0.0650 
     76 H76        34.9110  -44.1495  -57.6869 H         1 UNK         0.1397 
     77 H77        30.6950  -44.6845  -58.2522 H         1 UNK         0.1363 
     78 H78        32.1175  -41.8504  -55.3795 H         1 UNK         0.1355 
     79 H79        29.1301  -43.0994  -57.1456 H         1 UNK         0.0707 
     80 H80        29.7254  -41.9234  -55.9912 H         1 UNK         0.0707 
     81 H81        27.2017  -43.2032  -55.3098 H         1 UNK         0.1034 
     82 H82        27.9532  -42.5428  -53.8749 H         1 UNK         0.1034 
     83 H83        27.7016  -44.7978  -52.7412 H         1 UNK         0.0482 
     84 H84        26.7768  -43.2583  -51.2719 H         1 UNK         0.3460 
     85 H85        25.0783  -42.8718  -51.3318 H         1 UNK         0.3460 
     86 H86        26.2591  -45.5408  -55.2383 H         1 UNK         0.2989 
     87 H87        26.9221  -48.9621  -54.6517 H         1 UNK         0.0559 
     88 H88        24.2226  -47.5535  -54.9811 H         1 UNK         0.0848 
     89 H89        24.6413  -48.7275  -53.7454 H         1 UNK         0.0848 
     90 H90        24.5750  -49.2230  -55.4297 H         1 UNK         0.0848 
     91 H91        27.5532  -48.2863  -56.6227 H         1 UNK         0.3144 
     92 H92        26.1302  -46.4422  -59.2627 H         1 UNK         0.0727 
     93 H93        27.7404  -44.8452  -58.2930 H         1 UNK         0.0790 
     94 H94        28.5484  -45.8028  -59.5244 H         1 UNK         0.0790 
     95 H95        28.8185  -46.1459  -57.8138 H         1 UNK         0.0790 
     96 H96        28.2235  -48.4534  -58.6353 H         1 UNK         0.3215 
     97 H97        26.3503  -51.1298  -59.9909 H         1 UNK         0.0863 
     98 H98        28.3134  -51.4454  -61.4811 H         1 UNK         0.0808 
     99 H99        28.8015  -49.7670  -61.2390 H         1 UNK         0.0808 
    100 H100       27.3025  -50.1406  -62.0773 H         1 UNK         0.0808 
    101 H101       29.0546  -50.8901  -59.0344 H         1 UNK         0.3118 
    102 H102       28.3798  -51.1395  -55.5971 H         1 UNK         0.0546 
    103 H103       28.0462  -53.5322  -56.2507 H         1 UNK         0.0828 
    104 H104       29.6684  -53.2498  -55.6456 H         1 UNK         0.0828 
    105 H105       29.3899  -53.4201  -57.3793 H         1 UNK         0.0828 
    106 H106       30.8600  -51.4158  -56.7650 H         1 UNK         0.3005 
    107 H107       32.1806  -49.6661  -57.7340 H         1 UNK         0.1257 
    108 H108       31.5113  -46.8444  -56.7664 H         1 UNK         0.0775 
    109 H109       31.0741  -47.4037  -58.3660 H         1 UNK         0.0775 
    110 H110       33.9900  -45.3817  -59.6934 H         1 UNK         0.0840 
    111 H111       32.2885  -45.7651  -59.7816 H         1 UNK         0.0840 
    112 H112       32.1284  -48.4062  -55.0319 H         1 UNK         0.2987 
    113 H113       33.4806  -51.3957  -53.5376 H         1 UNK         0.0785 
    114 H114       35.2732  -49.7105  -53.9591 H         1 UNK         0.0798 
    115 H115       34.6442  -49.5687  -52.3253 H         1 UNK         0.0798 
    116 H116       34.1680  -48.4047  -53.5591 H         1 UNK         0.0798 
    117 H117       32.0916  -49.2014  -52.3614 H         1 UNK         0.3079 
    118 H118       28.8077  -50.4939  -52.5481 H         1 UNK         0.0794 
    119 H119       30.6171  -50.5567  -50.0759 H         1 UNK         0.0786 
    120 H120       29.6729  -51.8966  -50.7042 H         1 UNK         0.0786 
    121 H121       28.8555  -50.4811  -50.0618 H         1 UNK         0.0786 
    122 H122       28.8016  -48.3113  -52.4041 H         1 UNK         0.3032 
    123 H123       29.5771  -46.2585  -52.5520 H         1 UNK         0.1094 
    124 H124       28.5013  -46.3058  -50.2904 H         1 UNK         0.0794 
    125 H125       30.0254  -45.8488  -49.5382 H         1 UNK         0.0794 
    126 H126       29.1929  -44.7238  -50.6119 H         1 UNK         0.0794 
    127 H127       31.5878  -44.7997  -51.2661 H         1 UNK         0.3016 
@<TRIPOS>BOND
     1    1    2 1    
     2    1   67 1    
     3    1   68 1    
     4    1   69 1    
     5    2    3 2    
     6    2    4 am   BACKBONE|DICT|INTERRES
     7    4    5 1    
     8    4   70 1    
     9    5    6 1    
    10    5   65 1    
    11    5   71 1    
    12    6    7 1    
    13    6   72 1    
    14    6   73 1    
    15    7    8 1    
    16    8    9 1    
    17    8   74 1    
    18    8   75 1    
    19    9   10 ar   
    20    9   14 ar   
    21   10   11 ar   
    22   10   76 1    
    23   11   12 ar   
    24   11   48 1    
    25   12   13 ar   
    26   12   77 1    
    27   13   14 ar   
    28   13   15 1    
    29   14   78 1    
    30   15   16 1    
    31   15   79 1    
    32   15   80 1    
    33   16   17 1    
    34   17   18 1    
    35   17   81 1    
    36   17   82 1    
    37   18   19 1    
    38   18   22 1    
    39   18   83 1    
    40   19   20 am   BACKBONE|DICT|INTERRES
    41   19   21 2    
    42   20   84 1    
    43   20   85 1    
    44   22   23 am   BACKBONE|DICT|INTERRES
    45   22   86 1    
    46   23   24 2    
    47   23   25 1    
    48   25   26 1    
    49   25   27 1    
    50   25   87 1    
    51   26   88 1    
    52   26   89 1    
    53   26   90 1    
    54   27   28 am   BACKBONE|DICT|INTERRES
    55   27   91 1    
    56   28   29 2    
    57   28   30 1    
    58   30   31 1    
    59   30   32 1    
    60   30   92 1    
    61   31   93 1    
    62   31   94 1    
    63   31   95 1    
    64   32   33 am   BACKBONE|DICT|INTERRES
    65   32   96 1    
    66   33   34 2    
    67   33   35 1    
    68   35   36 1    
    69   35   37 1    
    70   35   97 1    
    71   36   98 1    
    72   36   99 1    
    73   36  100 1    
    74   37   38 am   BACKBONE|DICT|INTERRES
    75   37  101 1    
    76   38   39 2    
    77   38   40 1    
    78   40   41 1    
    79   40   42 1    
    80   40  102 1    
    81   41  103 1    
    82   41  104 1    
    83   41  105 1    
    84   42   43 am   BACKBONE|DICT|INTERRES
    85   42  106 1    
    86   43   44 2    
    87   43   45 1    
    88   45   46 1    
    89   45   49 1    
    90   45  107 1    
    91   46   47 1    
    92   46  108 1    
    93   46  109 1    
    94   47   48 1    
    95   48  110 1    
    96   48  111 1    
    97   49   50 am   BACKBONE|DICT|INTERRES
    98   49  112 1    
    99   50   51 2    
   100   50   52 1    
   101   52   53 1    
   102   52   54 1    
   103   52  113 1    
   104   53  114 1    
   105   53  115 1    
   106   53  116 1    
   107   54   55 am   BACKBONE|DICT|INTERRES
   108   54  117 1    
   109   55   56 2    
   110   55   57 1    
   111   57   58 1    
   112   57   59 1    
   113   57  118 1    
   114   58  119 1    
   115   58  120 1    
   116   58  121 1    
   117   59   60 am   BACKBONE|DICT|INTERRES
   118   59  122 1    
   119   60   61 2    
   120   60   62 1    
   121   62   63 1    
   122   62   64 1    
   123   62  123 1    
   124   63  124 1    
   125   63  125 1    
   126   63  126 1    
   127   64   65 am   BACKBONE|DICT|INTERRES
   128   64  127 1    
   129   65   66 2    
@<TRIPOS>SUBSTRUCTURE
     1 UNK         1 GROUP             0       ****    0 ROOT    
