@<TRIPOS>MOLECULE
3R134
127   129    1
SMALL
USER_CHARGES


@<TRIPOS>ATOM
      1 CA         36.2866  -46.8378  -56.4432 C.3       0 UNK        -0.1968 
      2 C          35.6269  -46.4463  -55.1297 C.2       0 UNK         0.4852 
      3 O          35.8408  -47.1179  -54.1187 O.2       0 UNK        -0.5359 
      4 N          34.8165  -45.3764  -55.1443 N.am      1 UNK        -0.4300 
      5 CA         34.0380  -44.8532  -54.0147 C.3       1 UNK         0.0863 
      6 C6         34.9326  -44.1288  -52.9660 C.3       11 UNK        -0.0953 
      7 S7         34.0620  -43.3494  -51.5578 S.3       11 UNK        -0.2369 
      8 C8         33.2179  -41.9251  -52.3194 C.3       11 UNK         0.0226 
      9 C9         31.9035  -42.3061  -52.9929 C.ar      11 UNK        -0.0699 
     10 C10        30.8816  -42.9245  -52.2618 C.ar      11 UNK        -0.0804 
     11 C11        29.6651  -43.2562  -52.8694 C.ar      11 UNK        -0.0871 
     12 C12        29.4753  -42.9529  -54.2216 C.ar      11 UNK        -0.1008 
     13 C13        30.4882  -42.3401  -54.9635 C.ar      11 UNK        -0.0735 
     14 C14        31.6967  -42.0124  -54.3442 C.ar      11 UNK        -0.0945 
     15 C15        30.2639  -42.0183  -56.4300 C.3       11 UNK         0.0169 
     16 S16        30.8563  -43.3643  -57.5020 S.3       11 UNK        -0.2669 
     17 C17        29.9751  -42.9418  -59.0495 C.3       11 UNK        -0.0850 
     18 CA         28.7885  -43.8919  -59.3792 C.3       10 UNK         0.0855 
     19 C          29.2483  -45.1819  -60.1235 C.2       10 UNK         0.5543 
     20 N          28.9326  -46.3848  -59.6594 N.am      10 UNK        -0.7343 
     21 O          29.8916  -45.0865  -61.1660 O.2       10 UNK        -0.5027 
     22 N          27.9419  -44.1299  -58.2004 N.am      10 UNK        -0.4495 
     23 C          26.6392  -44.4221  -58.2250 C.2       10 UNK         0.4903 
     24 O          25.9376  -44.3981  -59.2381 O.2       10 UNK        -0.4860 
     25 CA         26.0207  -44.8426  -56.8795 C.3       9 UNK         0.0227 
     26 CB         24.9576  -43.8332  -56.4179 C.3       9 UNK        -0.1964 
     27 N          25.4319  -46.1827  -56.9607 N.am      9 UNK        -0.4231 
     28 C          26.1267  -47.2907  -57.2495 C.2       9 UNK         0.5014 
     29 O          27.3440  -47.2994  -57.4387 O.2       9 UNK        -0.5270 
     30 CA         25.3344  -48.5920  -57.3966 C.3       8 UNK         0.0284 
     31 CB         24.8092  -48.7286  -58.8401 C.3       8 UNK        -0.1977 
     32 N          26.2036  -49.7181  -57.0543 N.am      8 UNK        -0.4342 
     33 C          25.7950  -50.9742  -56.8316 C.2       8 UNK         0.5039 
     34 O          24.6193  -51.3362  -56.8998 O.2       8 UNK        -0.5547 
     35 CA         26.8699  -51.9999  -56.4450 C.3       7 UNK         0.0281 
     36 CB         27.8246  -52.2858  -57.6175 C.3       7 UNK        -0.1963 
     37 N          27.6224  -51.5280  -55.2841 N.am      7 UNK        -0.4444 
     38 C          27.2871  -51.7849  -54.0117 C.2       7 UNK         0.5104 
     39 O          26.3777  -52.5490  -53.6852 O.2       7 UNK        -0.5100 
     40 CA         28.0886  -51.0725  -52.9034 C.3       6 UNK         0.0396 
     41 CB         29.2265  -51.9774  -52.4052 C.3       6 UNK        -0.1801 
     42 N          28.6461  -49.7771  -53.3002 N.am      6 UNK        -0.4747 
     43 C          27.9324  -48.7156  -53.7071 C.2       6 UNK         0.5012 
     44 O          26.7014  -48.6823  -53.7179 O.2       6 UNK        -0.5003 
     45 CA         28.7296  -47.5038  -54.2320 C.3       5 UNK         0.0782 
     46 C46        29.0142  -46.4859  -53.0972 C.3       11 UNK        -0.0868 
     47 S47        27.6794  -45.2622  -52.9083 S.3       11 UNK        -0.2515 
     48 C48        28.5551  -43.9090  -52.0462 C.3       11 UNK         0.0199 
     49 N          29.9578  -47.8656  -54.9530 N.am      5 UNK        -0.4607 
     50 C          30.0653  -48.7099  -55.9910 C.2       4 UNK         0.5031 
     51 O          29.1398  -49.3914  -56.4298 O.2       4 UNK        -0.5119 
     52 CA         31.4620  -48.8573  -56.6087 C.3       4 UNK         0.0263 
     53 CB         31.8417  -47.6142  -57.4318 C.3       4 UNK        -0.1967 
     54 N          32.4541  -49.0836  -55.5598 N.am      4 UNK        -0.4237 
     55 C          32.7319  -50.2850  -55.0334 C.2       3 UNK         0.4908 
     56 O          32.2816  -51.3457  -55.4671 O.2       3 UNK        -0.5102 
     57 CA         33.6532  -50.3147  -53.8007 C.3       3 UNK         0.0241 
     58 CB         35.1153  -50.5291  -54.2232 C.3       3 UNK        -0.1971 
     59 N          33.5500  -49.1085  -52.9741 N.am      3 UNK        -0.4139 
     60 C          32.4557  -48.7657  -52.2763 C.2       2 UNK         0.5016 
     61 O          31.4298  -49.4446  -52.2332 O.2       2 UNK        -0.5319 
     62 CA         32.4846  -47.4130  -51.5434 C.3       2 UNK         0.0286 
     63 CB         33.0021  -47.5894  -50.1079 C.3       2 UNK        -0.1963 
     64 N          33.2720  -46.3763  -52.2171 N.am      2 UNK        -0.4790 
     65 C          33.0955  -45.9501  -53.4754 C.2       1 UNK         0.5024 
     66 O          32.2547  -46.4258  -54.2377 O.2       1 UNK        -0.4888 
     67 H67        35.9588  -47.8324  -56.7444 H         1 UNK         0.0892 
     68 H68        36.0432  -46.1426  -57.2464 H         1 UNK         0.0892 
     69 H69        37.3699  -46.8561  -56.3273 H         1 UNK         0.0892 
     70 H70        34.6651  -44.8953  -56.0199 H         1 UNK         0.3107 
     71 H71        33.3816  -44.1073  -54.4575 H         1 UNK         0.0773 
     72 H72        35.5161  -43.3529  -53.4639 H         1 UNK         0.0680 
     73 H73        35.6671  -44.8231  -52.5547 H         1 UNK         0.0680 
     74 H74        33.0047  -41.1931  -51.5393 H         1 UNK         0.0650 
     75 H75        33.8966  -41.4362  -53.0200 H         1 UNK         0.0650 
     76 H76        31.0374  -43.1427  -51.2140 H         1 UNK         0.1397 
     77 H77        28.5357  -43.1942  -54.6988 H         1 UNK         0.1363 
     78 H78        32.4764  -41.5306  -54.9185 H         1 UNK         0.1355 
     79 H79        29.2010  -41.8449  -56.6066 H         1 UNK         0.0707 
     80 H80        30.7747  -41.0918  -56.6972 H         1 UNK         0.0707 
     81 H81        30.6994  -42.9128  -59.8659 H         1 UNK         0.1034 
     82 H82        29.6005  -41.9196  -58.9798 H         1 UNK         0.1034 
     83 H83        28.1736  -43.3654  -60.1117 H         1 UNK         0.0482 
     84 H84        28.3879  -46.5069  -58.8099 H         1 UNK         0.3460 
     85 H85        29.2329  -47.1965  -60.1729 H         1 UNK         0.3460 
     86 H86        28.4486  -44.2164  -57.3313 H         1 UNK         0.2989 
     87 H87        26.8059  -44.8740  -56.1205 H         1 UNK         0.0559 
     88 H88        24.1220  -43.7767  -57.1167 H         1 UNK         0.0848 
     89 H89        25.3821  -42.8316  -56.3367 H         1 UNK         0.0848 
     90 H90        24.5605  -44.0949  -55.4369 H         1 UNK         0.0848 
     91 H91        24.4291  -46.2459  -56.8606 H         1 UNK         0.3144 
     92 H92        24.4964  -48.5728  -56.6968 H         1 UNK         0.0727 
     93 H93        25.6282  -48.7935  -59.5578 H         1 UNK         0.0790 
     94 H94        24.1989  -47.8688  -59.1197 H         1 UNK         0.0790 
     95 H95        24.1867  -49.6148  -58.9620 H         1 UNK         0.0790 
     96 H96        27.1896  -49.4768  -56.9565 H         1 UNK         0.3215 
     97 H97        26.3664  -52.9374  -56.1981 H         1 UNK         0.0863 
     98 H98        28.3589  -51.3938  -57.9446 H         1 UNK         0.0808 
     99 H99        27.2751  -52.6677  -58.4788 H         1 UNK         0.0808 
    100 H100       28.5664  -53.0373  -57.3473 H         1 UNK         0.0808 
    101 H101       28.3442  -50.8366  -55.4710 H         1 UNK         0.3118 
    102 H102       27.4054  -50.8932  -52.0710 H         1 UNK         0.0546 
    103 H103       29.7285  -51.5430  -51.5405 H         1 UNK         0.0828 
    104 H104       29.9773  -52.1428  -53.1793 H         1 UNK         0.0828 
    105 H105       28.8477  -52.9542  -52.1010 H         1 UNK         0.0828 
    106 H106       29.6572  -49.6885  -53.2564 H         1 UNK         0.3005 
    107 H107       28.0992  -47.0193  -54.9783 H         1 UNK         0.1257 
    108 H108       29.9232  -45.9276  -53.3158 H         1 UNK         0.0775 
    109 H109       29.1917  -46.9776  -52.1391 H         1 UNK         0.0775 
    110 H110       27.8287  -43.1413  -51.7771 H         1 UNK         0.0840 
    111 H111       28.9518  -44.2990  -51.1074 H         1 UNK         0.0840 
    112 H112       30.7919  -47.3515  -54.6773 H         1 UNK         0.2987 
    113 H113       31.4456  -49.7148  -57.2851 H         1 UNK         0.0785 
    114 H114       32.8305  -47.7211  -57.8777 H         1 UNK         0.0798 
    115 H115       31.1342  -47.4620  -58.2470 H         1 UNK         0.0798 
    116 H116       31.8417  -46.7029  -56.8331 H         1 UNK         0.0798 
    117 H117       32.8138  -48.2572  -55.0980 H         1 UNK         0.3079 
    118 H118       33.3486  -51.1647  -53.1861 H         1 UNK         0.0794 
    119 H119       35.7738  -50.5979  -53.3571 H         1 UNK         0.0786 
    120 H120       35.4771  -49.7187  -54.8564 H         1 UNK         0.0786 
    121 H121       35.2250  -51.4560  -54.7878 H         1 UNK         0.0786 
    122 H122       34.3360  -48.4688  -52.9920 H         1 UNK         0.3032 
    123 H123       31.4566  -47.0532  -51.4898 H         1 UNK         0.1094 
    124 H124       32.4185  -48.3397  -49.5722 H         1 UNK         0.0794 
    125 H125       34.0438  -47.9125  -50.0908 H         1 UNK         0.0794 
    126 H126       32.9284  -46.6602  -49.5423 H         1 UNK         0.0794 
    127 H127       33.9878  -45.9207  -51.6678 H         1 UNK         0.3016 
@<TRIPOS>BOND
     1    1    2 1    
     2    1   67 1    
     3    1   68 1    
     4    1   69 1    
     5    2    3 2    
     6    2    4 am   BACKBONE|DICT|INTERRES
     7    4    5 1    
     8    4   70 1    
     9    5    6 1    
    10    5   65 1    
    11    5   71 1    
    12    6    7 1    
    13    6   72 1    
    14    6   73 1    
    15    7    8 1    
    16    8    9 1    
    17    8   74 1    
    18    8   75 1    
    19    9   10 ar   
    20    9   14 ar   
    21   10   11 ar   
    22   10   76 1    
    23   11   12 ar   
    24   11   48 1    
    25   12   13 ar   
    26   12   77 1    
    27   13   14 ar   
    28   13   15 1    
    29   14   78 1    
    30   15   16 1    
    31   15   79 1    
    32   15   80 1    
    33   16   17 1    
    34   17   18 1    
    35   17   81 1    
    36   17   82 1    
    37   18   19 1    
    38   18   22 1    
    39   18   83 1    
    40   19   20 am   BACKBONE|DICT|INTERRES
    41   19   21 2    
    42   20   84 1    
    43   20   85 1    
    44   22   23 am   BACKBONE|DICT|INTERRES
    45   22   86 1    
    46   23   24 2    
    47   23   25 1    
    48   25   26 1    
    49   25   27 1    
    50   25   87 1    
    51   26   88 1    
    52   26   89 1    
    53   26   90 1    
    54   27   28 am   BACKBONE|DICT|INTERRES
    55   27   91 1    
    56   28   29 2    
    57   28   30 1    
    58   30   31 1    
    59   30   32 1    
    60   30   92 1    
    61   31   93 1    
    62   31   94 1    
    63   31   95 1    
    64   32   33 am   BACKBONE|DICT|INTERRES
    65   32   96 1    
    66   33   34 2    
    67   33   35 1    
    68   35   36 1    
    69   35   37 1    
    70   35   97 1    
    71   36   98 1    
    72   36   99 1    
    73   36  100 1    
    74   37   38 am   BACKBONE|DICT|INTERRES
    75   37  101 1    
    76   38   39 2    
    77   38   40 1    
    78   40   41 1    
    79   40   42 1    
    80   40  102 1    
    81   41  103 1    
    82   41  104 1    
    83   41  105 1    
    84   42   43 am   BACKBONE|DICT|INTERRES
    85   42  106 1    
    86   43   44 2    
    87   43   45 1    
    88   45   46 1    
    89   45   49 1    
    90   45  107 1    
    91   46   47 1    
    92   46  108 1    
    93   46  109 1    
    94   47   48 1    
    95   48  110 1    
    96   48  111 1    
    97   49   50 am   BACKBONE|DICT|INTERRES
    98   49  112 1    
    99   50   51 2    
   100   50   52 1    
   101   52   53 1    
   102   52   54 1    
   103   52  113 1    
   104   53  114 1    
   105   53  115 1    
   106   53  116 1    
   107   54   55 am   BACKBONE|DICT|INTERRES
   108   54  117 1    
   109   55   56 2    
   110   55   57 1    
   111   57   58 1    
   112   57   59 1    
   113   57  118 1    
   114   58  119 1    
   115   58  120 1    
   116   58  121 1    
   117   59   60 am   BACKBONE|DICT|INTERRES
   118   59  122 1    
   119   60   61 2    
   120   60   62 1    
   121   62   63 1    
   122   62   64 1    
   123   62  123 1    
   124   63  124 1    
   125   63  125 1    
   126   63  126 1    
   127   64   65 am   BACKBONE|DICT|INTERRES
   128   64  127 1    
   129   65   66 2    
@<TRIPOS>SUBSTRUCTURE
     1 UNK         1 GROUP             0       ****    0 ROOT    
