@<TRIPOS>MOLECULE
3R134
127   129    1
SMALL
USER_CHARGES


@<TRIPOS>ATOM
      1 CA         29.8819  -45.3534  -52.2132 C.3       0 UNK        -0.1968 
      2 C          31.2275  -45.4278  -51.5081 C.2       0 UNK         0.4852 
      3 O          31.3055  -45.9416  -50.3922 O.2       0 UNK        -0.5359 
      4 N          32.2878  -44.9212  -52.1505 N.am      1 UNK        -0.4300 
      5 CA         33.6487  -44.8379  -51.5979 C.3       1 UNK         0.0863 
      6 C6         34.4349  -43.6447  -52.2034 C.3       11 UNK        -0.0953 
      7 S7         33.5989  -42.0454  -51.9032 S.3       11 UNK        -0.2369 
      8 C8         33.4293  -41.3407  -53.5762 C.3       11 UNK         0.0226 
      9 C9         32.4860  -42.1481  -54.4565 C.ar      11 UNK        -0.0699 
     10 C10        33.0032  -42.9811  -55.4525 C.ar      11 UNK        -0.0804 
     11 C11        32.1491  -43.7540  -56.2411 C.ar      11 UNK        -0.0871 
     12 C12        30.7677  -43.6701  -56.0488 C.ar      11 UNK        -0.1008 
     13 C13        30.2357  -42.8337  -55.0652 C.ar      11 UNK        -0.0735 
     14 C14        31.1004  -42.0697  -54.2735 C.ar      11 UNK        -0.0945 
     15 C15        28.7337  -42.8110  -54.8170 C.3       11 UNK         0.0169 
     16 S16        27.8775  -41.5164  -55.7705 S.3       11 UNK        -0.2669 
     17 C17        27.8995  -42.1628  -57.4806 C.3       11 UNK        -0.0850 
     18 CA         26.6049  -42.9291  -57.8574 C.3       10 UNK         0.0855 
     19 C          26.5610  -43.2174  -59.3805 C.2       10 UNK         0.5543 
     20 N          25.8138  -42.4314  -60.1427 N.am      10 UNK        -0.7343 
     21 O          27.2350  -44.1173  -59.8781 O.2       10 UNK        -0.5027 
     22 N          26.4674  -44.1797  -57.0988 N.am      10 UNK        -0.4495 
     23 C          25.3004  -44.7739  -56.8270 C.2       10 UNK         0.4903 
     24 O          24.2005  -44.2870  -57.0967 O.2       10 UNK        -0.4860 
     25 CA         25.3967  -46.1488  -56.1408 C.3       9 UNK         0.0227 
     26 CB         24.0197  -46.7552  -55.7970 C.3       9 UNK        -0.1964 
     27 N          26.2071  -47.0993  -56.9103 N.am      9 UNK        -0.4231 
     28 C          25.9820  -47.5581  -58.1520 C.2       9 UNK         0.5014 
     29 O          25.0349  -47.2168  -58.8617 O.2       9 UNK        -0.5270 
     30 CA         26.9775  -48.6042  -58.6871 C.3       8 UNK         0.0284 
     31 CB         28.2323  -47.9207  -59.2552 C.3       8 UNK        -0.1977 
     32 N          27.3633  -49.5934  -57.6748 N.am      8 UNK        -0.4342 
     33 C          26.5320  -50.5010  -57.1396 C.2       8 UNK         0.5039 
     34 O          25.3688  -50.6675  -57.5092 O.2       8 UNK        -0.5547 
     35 CA         27.0780  -51.3551  -55.9806 C.3       7 UNK         0.0281 
     36 CB         27.8869  -52.5517  -56.5064 C.3       7 UNK        -0.1963 
     37 N          27.8883  -50.5743  -55.0421 N.am      7 UNK        -0.4444 
     38 C          27.4014  -49.6087  -54.2485 C.2       7 UNK         0.5104 
     39 O          26.2047  -49.3391  -54.1499 O.2       7 UNK        -0.5100 
     40 CA         28.4207  -48.7754  -53.4545 C.3       6 UNK         0.0396 
     41 CB         28.7520  -49.4453  -52.1122 C.3       6 UNK        -0.1801 
     42 N          29.6572  -48.5294  -54.1990 N.am      6 UNK        -0.4747 
     43 C          29.7449  -47.7892  -55.3127 C.2       6 UNK         0.5012 
     44 O          28.7962  -47.1726  -55.7969 O.2       6 UNK        -0.5003 
     45 CA         31.1103  -47.7529  -56.0260 C.3       5 UNK         0.0782 
     46 C46        32.0588  -46.7462  -55.3461 C.3       11 UNK        -0.0868 
     47 S47        33.4214  -46.2142  -56.4347 S.3       11 UNK        -0.2515 
     48 C48        32.7170  -44.7407  -57.2496 C.3       11 UNK         0.0199 
     49 N          31.7198  -49.0798  -56.0976 N.am      5 UNK        -0.4607 
     50 C          31.2301  -50.1193  -56.7804 C.2       4 UNK         0.5031 
     51 O          30.2223  -50.0625  -57.4834 O.2       4 UNK        -0.5119 
     52 CA         31.9726  -51.4546  -56.6062 C.3       4 UNK         0.0263 
     53 CB         33.1390  -51.5566  -57.6013 C.3       4 UNK        -0.1967 
     54 N          32.4719  -51.6430  -55.2385 N.am      4 UNK        -0.4237 
     55 C          31.6819  -51.8129  -54.1678 C.2       3 UNK         0.4908 
     56 O          30.4534  -51.8693  -54.2287 O.2       3 UNK        -0.5102 
     57 CA         32.3775  -51.8849  -52.7960 C.3       3 UNK         0.0241 
     58 CB         32.9894  -53.2765  -52.5670 C.3       3 UNK        -0.1971 
     59 N          33.4030  -50.8503  -52.6001 N.am      3 UNK        -0.4139 
     60 C          33.1523  -49.5339  -52.6007 C.2       2 UNK         0.5016 
     61 O          32.0309  -49.0581  -52.7949 O.2       2 UNK        -0.5319 
     62 CA         34.3412  -48.5849  -52.3871 C.3       2 UNK         0.0286 
     63 CB         35.2916  -48.6084  -53.6012 C.3       2 UNK        -0.1963 
     64 N          33.8068  -47.2381  -52.1894 N.am      2 UNK        -0.4790 
     65 C          34.4438  -46.1650  -51.7071 C.2       1 UNK         0.5024 
     66 O          35.6217  -46.1934  -51.3473 O.2       1 UNK        -0.4888 
     67 H67        29.9883  -45.1938  -53.2847 H         1 UNK         0.0892 
     68 H68        29.3313  -46.2803  -52.0636 H         1 UNK         0.0892 
     69 H69        29.2891  -44.5368  -51.8024 H         1 UNK         0.0892 
     70 H70        32.1651  -44.4800  -53.0514 H         1 UNK         0.3107 
     71 H71        33.5599  -44.6453  -50.5265 H         1 UNK         0.0773 
     72 H72        34.5968  -43.7941  -53.2713 H         1 UNK         0.0680 
     73 H73        35.4281  -43.5730  -51.7565 H         1 UNK         0.0680 
     74 H74        34.4170  -41.2623  -54.0333 H         1 UNK         0.0650 
     75 H75        33.0530  -40.3205  -53.4894 H         1 UNK         0.0650 
     76 H76        34.0729  -43.0567  -55.5940 H         1 UNK         0.1397 
     77 H77        30.1098  -44.2961  -56.6356 H         1 UNK         0.1363 
     78 H78        30.6978  -41.4296  -53.5001 H         1 UNK         0.1355 
     79 H79        28.5451  -42.6362  -53.7567 H         1 UNK         0.0707 
     80 H80        28.2971  -43.7857  -55.0371 H         1 UNK         0.0707 
     81 H81        28.0186  -41.2964  -58.1343 H         1 UNK         0.1034 
     82 H82        28.7819  -42.7752  -57.6558 H         1 UNK         0.1034 
     83 H83        25.7600  -42.2823  -57.6101 H         1 UNK         0.0482 
     84 H84        25.7874  -42.5948  -61.1372 H         1 UNK         0.3460 
     85 H85        25.2647  -41.6860  -59.7431 H         1 UNK         0.3460 
     86 H86        27.3202  -44.6811  -56.9022 H         1 UNK         0.2989 
     87 H87        25.9272  -45.9904  -55.2005 H         1 UNK         0.0559 
     88 H88        23.4542  -46.0919  -55.1415 H         1 UNK         0.0848 
     89 H89        24.1269  -47.7088  -55.2797 H         1 UNK         0.0848 
     90 H90        23.4148  -46.9245  -56.6883 H         1 UNK         0.0848 
     91 H91        27.0731  -47.3861  -56.4585 H         1 UNK         0.3144 
     92 H92        26.4875  -49.1401  -59.5028 H         1 UNK         0.0727 
     93 H93        28.7821  -47.3762  -58.4879 H         1 UNK         0.0790 
     94 H94        27.9656  -47.2029  -60.0324 H         1 UNK         0.0790 
     95 H95        28.9119  -48.6468  -59.7018 H         1 UNK         0.0790 
     96 H96        28.3363  -49.5948  -57.3801 H         1 UNK         0.3215 
     97 H97        26.2208  -51.7473  -55.4288 H         1 UNK         0.0863 
     98 H98        28.2450  -53.1785  -55.6894 H         1 UNK         0.0808 
     99 H99        28.7518  -52.2352  -57.0884 H         1 UNK         0.0808 
    100 H100       27.2733  -53.1799  -57.1533 H         1 UNK         0.0808 
    101 H101       28.8795  -50.7874  -54.9927 H         1 UNK         0.3118 
    102 H102       27.9574  -47.8089  -53.2474 H         1 UNK         0.0546 
    103 H103       29.2293  -50.4155  -52.2523 H         1 UNK         0.0828 
    104 H104       27.8487  -49.6069  -51.5227 H         1 UNK         0.0828 
    105 H105       29.4240  -48.8280  -51.5157 H         1 UNK         0.0828 
    106 H106       30.5068  -48.9418  -53.8165 H         1 UNK         0.3005 
    107 H107       30.9160  -47.4184  -57.0475 H         1 UNK         0.1257 
    108 H108       31.5220  -45.8859  -54.9588 H         1 UNK         0.0775 
    109 H109       32.5102  -47.1942  -54.4672 H         1 UNK         0.0775 
    110 H110       33.4938  -44.2543  -57.8413 H         1 UNK         0.0840 
    111 H111       31.9483  -45.0565  -57.9567 H         1 UNK         0.0840 
    112 H112       32.5446  -49.2216  -55.5361 H         1 UNK         0.2987 
    113 H113       31.2657  -52.2582  -56.8233 H         1 UNK         0.0785 
    114 H114       32.7862  -51.4381  -58.6269 H         1 UNK         0.0798 
    115 H115       33.6290  -52.5285  -57.5399 H         1 UNK         0.0798 
    116 H116       33.8925  -50.7877  -57.4254 H         1 UNK         0.0798 
    117 H117       33.4721  -51.6173  -55.1039 H         1 UNK         0.3079 
    118 H118       31.6076  -51.7278  -52.0373 H         1 UNK         0.0794 
    119 H119       33.3834  -53.3744  -51.5552 H         1 UNK         0.0786 
    120 H120       33.8011  -53.4851  -53.2650 H         1 UNK         0.0786 
    121 H121       32.2392  -54.0582  -52.6963 H         1 UNK         0.0786 
    122 H122       34.3472  -51.1698  -52.4363 H         1 UNK         0.3032 
    123 H123       34.8747  -48.8925  -51.4851 H         1 UNK         0.1094 
    124 H124       34.7844  -48.3082  -54.5185 H         1 UNK         0.0794 
    125 H125       36.1385  -47.9374  -53.4581 H         1 UNK         0.0794 
    126 H126       35.7027  -49.6049  -53.7657 H         1 UNK         0.0794 
    127 H127       32.8138  -47.1729  -52.3787 H         1 UNK         0.3016 
@<TRIPOS>BOND
     1    1    2 1    
     2    1   67 1    
     3    1   68 1    
     4    1   69 1    
     5    2    3 2    
     6    2    4 am   BACKBONE|DICT|INTERRES
     7    4    5 1    
     8    4   70 1    
     9    5    6 1    
    10    5   65 1    
    11    5   71 1    
    12    6    7 1    
    13    6   72 1    
    14    6   73 1    
    15    7    8 1    
    16    8    9 1    
    17    8   74 1    
    18    8   75 1    
    19    9   10 ar   
    20    9   14 ar   
    21   10   11 ar   
    22   10   76 1    
    23   11   12 ar   
    24   11   48 1    
    25   12   13 ar   
    26   12   77 1    
    27   13   14 ar   
    28   13   15 1    
    29   14   78 1    
    30   15   16 1    
    31   15   79 1    
    32   15   80 1    
    33   16   17 1    
    34   17   18 1    
    35   17   81 1    
    36   17   82 1    
    37   18   19 1    
    38   18   22 1    
    39   18   83 1    
    40   19   20 am   BACKBONE|DICT|INTERRES
    41   19   21 2    
    42   20   84 1    
    43   20   85 1    
    44   22   23 am   BACKBONE|DICT|INTERRES
    45   22   86 1    
    46   23   24 2    
    47   23   25 1    
    48   25   26 1    
    49   25   27 1    
    50   25   87 1    
    51   26   88 1    
    52   26   89 1    
    53   26   90 1    
    54   27   28 am   BACKBONE|DICT|INTERRES
    55   27   91 1    
    56   28   29 2    
    57   28   30 1    
    58   30   31 1    
    59   30   32 1    
    60   30   92 1    
    61   31   93 1    
    62   31   94 1    
    63   31   95 1    
    64   32   33 am   BACKBONE|DICT|INTERRES
    65   32   96 1    
    66   33   34 2    
    67   33   35 1    
    68   35   36 1    
    69   35   37 1    
    70   35   97 1    
    71   36   98 1    
    72   36   99 1    
    73   36  100 1    
    74   37   38 am   BACKBONE|DICT|INTERRES
    75   37  101 1    
    76   38   39 2    
    77   38   40 1    
    78   40   41 1    
    79   40   42 1    
    80   40  102 1    
    81   41  103 1    
    82   41  104 1    
    83   41  105 1    
    84   42   43 am   BACKBONE|DICT|INTERRES
    85   42  106 1    
    86   43   44 2    
    87   43   45 1    
    88   45   46 1    
    89   45   49 1    
    90   45  107 1    
    91   46   47 1    
    92   46  108 1    
    93   46  109 1    
    94   47   48 1    
    95   48  110 1    
    96   48  111 1    
    97   49   50 am   BACKBONE|DICT|INTERRES
    98   49  112 1    
    99   50   51 2    
   100   50   52 1    
   101   52   53 1    
   102   52   54 1    
   103   52  113 1    
   104   53  114 1    
   105   53  115 1    
   106   53  116 1    
   107   54   55 am   BACKBONE|DICT|INTERRES
   108   54  117 1    
   109   55   56 2    
   110   55   57 1    
   111   57   58 1    
   112   57   59 1    
   113   57  118 1    
   114   58  119 1    
   115   58  120 1    
   116   58  121 1    
   117   59   60 am   BACKBONE|DICT|INTERRES
   118   59  122 1    
   119   60   61 2    
   120   60   62 1    
   121   62   63 1    
   122   62   64 1    
   123   62  123 1    
   124   63  124 1    
   125   63  125 1    
   126   63  126 1    
   127   64   65 am   BACKBONE|DICT|INTERRES
   128   64  127 1    
   129   65   66 2    
@<TRIPOS>SUBSTRUCTURE
     1 UNK         1 GROUP             0       ****    0 ROOT    
