@<TRIPOS>MOLECULE
3R134
127   129    1
SMALL
USER_CHARGES


@<TRIPOS>ATOM
      1 CA         34.7316  -45.4669  -57.8970 C.3       0 UNK        -0.1968 
      2 C          34.3928  -45.9314  -56.4890 C.2       0 UNK         0.4852 
      3 O          34.1593  -47.1224  -56.2859 O.2       0 UNK        -0.5359 
      4 N          34.4011  -45.0042  -55.5194 N.am      1 UNK        -0.4300 
      5 CA         34.0236  -45.1801  -54.1062 C.3       1 UNK         0.0863 
      6 C6         34.2778  -43.8864  -53.2927 C.3       11 UNK        -0.0953 
      7 S7         33.4384  -42.4231  -53.9876 S.3       11 UNK        -0.2369 
      8 C8         32.3694  -41.9151  -52.6064 C.3       11 UNK         0.0226 
      9 C9         31.1363  -42.7970  -52.4869 C.ar      11 UNK        -0.0699 
     10 C10        31.0774  -43.8182  -51.5331 C.ar      11 UNK        -0.0804 
     11 C11        29.9207  -44.5916  -51.3936 C.ar      11 UNK        -0.0871 
     12 C12        28.8224  -44.3341  -52.2199 C.ar      11 UNK        -0.1008 
     13 C13        28.8861  -43.3548  -53.2141 C.ar      11 UNK        -0.0735 
     14 C14        30.0405  -42.5728  -53.3245 C.ar      11 UNK        -0.0945 
     15 C15        27.6958  -43.1515  -54.1486 C.3       11 UNK         0.0169 
     16 S16        28.1632  -42.9017  -55.8952 S.3       11 UNK        -0.2669 
     17 C17        29.1822  -44.3759  -56.2563 C.3       11 UNK        -0.0850 
     18 CA         28.8415  -44.9920  -57.6392 C.3       10 UNK         0.0855 
     19 C          29.9302  -45.9867  -58.1380 C.2       10 UNK         0.5543 
     20 N          29.5803  -47.1175  -58.7406 N.am      10 UNK        -0.7343 
     21 O          31.1195  -45.7079  -58.0195 O.2       10 UNK        -0.5027 
     22 N          27.4861  -45.5674  -57.6598 N.am      10 UNK        -0.4495 
     23 C          26.5310  -45.2429  -58.5408 C.2       10 UNK         0.4903 
     24 O          26.6501  -44.3520  -59.3841 O.2       10 UNK        -0.4860 
     25 CA         25.2227  -46.0608  -58.4787 C.3       9 UNK         0.0227 
     26 CB         24.3784  -45.9322  -59.7643 C.3       9 UNK        -0.1964 
     27 N          25.4177  -47.4777  -58.1419 N.am      9 UNK        -0.4231 
     28 C          26.2057  -48.3652  -58.7724 C.2       9 UNK         0.5014 
     29 O          26.9012  -48.0808  -59.7486 O.2       9 UNK        -0.5270 
     30 CA         26.2707  -49.7952  -58.2033 C.3       8 UNK         0.0284 
     31 CB         27.7010  -50.3556  -58.2744 C.3       8 UNK        -0.1977 
     32 N          25.8199  -49.8310  -56.8111 N.am      8 UNK        -0.4342 
     33 C          24.7247  -50.4635  -56.3668 C.2       8 UNK         0.5039 
     34 O          24.0141  -51.1832  -57.0694 O.2       8 UNK        -0.5547 
     35 CA         24.3297  -50.2347  -54.8934 C.3       7 UNK         0.0281 
     36 CB         24.8465  -51.3865  -54.0161 C.3       7 UNK        -0.1963 
     37 N          24.8041  -48.9602  -54.3428 N.am      7 UNK        -0.4444 
     38 C          24.4852  -47.7458  -54.8134 C.2       7 UNK         0.5104 
     39 O          23.6847  -47.5575  -55.7286 O.2       7 UNK        -0.5100 
     40 CA         25.2441  -46.5425  -54.2278 C.3       6 UNK         0.0396 
     41 CB         24.3795  -45.8164  -53.1861 C.3       6 UNK        -0.1801 
     42 N          26.5447  -46.8736  -53.6322 N.am      6 UNK        -0.4747 
     43 C          27.5974  -47.4018  -54.2764 C.2       6 UNK         0.5012 
     44 O          27.5521  -47.7312  -55.4665 O.2       6 UNK        -0.5003 
     45 CA         28.9102  -47.5602  -53.4747 C.3       5 UNK         0.0782 
     46 C46        28.7140  -47.7361  -51.9405 C.3       11 UNK        -0.0868 
     47 S47        30.2402  -47.3367  -51.0227 S.3       11 UNK        -0.2515 
     48 C48        29.8521  -45.6891  -50.3379 C.3       11 UNK         0.0199 
     49 N          29.6938  -48.6635  -54.0328 N.am      5 UNK        -0.4607 
     50 C          30.8837  -48.5418  -54.6280 C.2       4 UNK         0.5031 
     51 O          31.4604  -47.4703  -54.8099 O.2       4 UNK        -0.5119 
     52 CA         31.5183  -49.8530  -55.1065 C.3       4 UNK         0.0263 
     53 CB         30.8061  -50.3823  -56.3648 C.3       4 UNK        -0.1967 
     54 N          32.9445  -49.6735  -55.3767 N.am      4 UNK        -0.4237 
     55 C          33.8369  -50.6738  -55.3944 C.2       3 UNK         0.4908 
     56 O          33.5494  -51.8492  -55.1623 O.2       3 UNK        -0.5102 
     57 CA         35.2940  -50.3248  -55.7231 C.3       3 UNK         0.0241 
     58 CB         35.4815  -50.1389  -57.2386 C.3       3 UNK        -0.1971 
     59 N          35.7262  -49.1189  -55.0198 N.am      3 UNK        -0.4139 
     60 C          36.3851  -49.1135  -53.8527 C.2       2 UNK         0.5016 
     61 O          36.7096  -50.1357  -53.2463 O.2       2 UNK        -0.5319 
     62 CA         36.7775  -47.7474  -53.2598 C.3       2 UNK         0.0286 
     63 CB         38.2640  -47.4560  -53.5239 C.3       2 UNK        -0.1963 
     64 N          35.9783  -46.6353  -53.7776 N.am      2 UNK        -0.4790 
     65 C          34.7210  -46.3636  -53.3997 C.2       1 UNK         0.5024 
     66 O          34.1230  -46.9949  -52.5283 O.2       1 UNK        -0.4888 
     67 H67        35.6088  -45.9972  -58.2665 H         1 UNK         0.0892 
     68 H68        33.8982  -45.6779  -58.5666 H         1 UNK         0.0892 
     69 H69        34.9364  -44.3973  -57.9375 H         1 UNK         0.0892 
     70 H70        34.6048  -44.0476  -55.7718 H         1 UNK         0.3107 
     71 H71        32.9517  -45.3868  -54.0909 H         1 UNK         0.0773 
     72 H72        33.9648  -44.0227  -52.2563 H         1 UNK         0.0680 
     73 H73        35.3460  -43.6637  -53.2541 H         1 UNK         0.0680 
     74 H74        32.0582  -40.8824  -52.7706 H         1 UNK         0.0650 
     75 H75        32.9403  -41.9125  -51.6766 H         1 UNK         0.0650 
     76 H76        31.9261  -44.0018  -50.8886 H         1 UNK         0.1397 
     77 H77        27.9157  -44.9060  -52.0989 H         1 UNK         0.1363 
     78 H78        30.0927  -41.7919  -54.0709 H         1 UNK         0.1355 
     79 H79        27.1281  -42.2843  -53.8095 H         1 UNK         0.0707 
     80 H80        27.0175  -44.0039  -54.0988 H         1 UNK         0.0707 
     81 H81        30.2264  -44.0596  -56.2128 H         1 UNK         0.1034 
     82 H82        29.0654  -45.1213  -55.4712 H         1 UNK         0.1034 
     83 H83        28.8969  -44.1755  -58.3610 H         1 UNK         0.0482 
     84 H84        28.6103  -47.3247  -58.9461 H         1 UNK         0.3460 
     85 H85        30.3050  -47.7314  -59.0737 H         1 UNK         0.3460 
     86 H86        27.3320  -46.3393  -57.0211 H         1 UNK         0.2989 
     87 H87        24.6419  -45.6329  -57.6605 H         1 UNK         0.0559 
     88 H88        24.1147  -44.8921  -59.9600 H         1 UNK         0.0848 
     89 H89        23.4455  -46.4899  -59.6839 H         1 UNK         0.0848 
     90 H90        24.9165  -46.3020  -60.6379 H         1 UNK         0.0848 
     91 H91        24.8699  -47.8024  -57.3517 H         1 UNK         0.3144 
     92 H92        25.6286  -50.4149  -58.8321 H         1 UNK         0.0727 
     93 H93        28.4056  -49.6864  -57.7818 H         1 UNK         0.0790 
     94 H94        28.0287  -50.4689  -59.3086 H         1 UNK         0.0790 
     95 H95        27.7726  -51.3358  -57.8029 H         1 UNK         0.0790 
     96 H96        26.3462  -49.2475  -56.1675 H         1 UNK         0.3215 
     97 H97        23.2385  -50.2280  -54.8474 H         1 UNK         0.0863 
     98 H98        24.5022  -51.2883  -52.9864 H         1 UNK         0.0808 
     99 H99        25.9364  -51.4298  -54.0054 H         1 UNK         0.0808 
    100 H100       24.4866  -52.3483  -54.3845 H         1 UNK         0.0808 
    101 H101       25.4663  -49.0112  -53.5829 H         1 UNK         0.3118 
    102 H102       25.4317  -45.8515  -55.0525 H         1 UNK         0.0546 
    103 H103       24.1779  -46.4449  -52.3178 H         1 UNK         0.0828 
    104 H104       23.4158  -45.5301  -53.6104 H         1 UNK         0.0828 
    105 H105       24.8588  -44.9019  -52.8366 H         1 UNK         0.0828 
    106 H106       26.6388  -46.6624  -52.6500 H         1 UNK         0.3005 
    107 H107       29.4436  -46.6220  -53.6384 H         1 UNK         0.1257 
    108 H108       27.9178  -47.1182  -51.5288 H         1 UNK         0.0775 
    109 H109       28.4294  -48.7637  -51.7075 H         1 UNK         0.0775 
    110 H110       28.8683  -45.7015  -49.8664 H         1 UNK         0.0840 
    111 H111       30.5607  -45.4751  -49.5362 H         1 UNK         0.0840 
    112 H112       29.2687  -49.5771  -53.9769 H         1 UNK         0.2987 
    113 H113       31.4093  -50.5813  -54.2996 H         1 UNK         0.0785 
    114 H114       29.7607  -50.6030  -56.1508 H         1 UNK         0.0798 
    115 H115       31.2562  -51.3064  -56.7273 H         1 UNK         0.0798 
    116 H116       30.8359  -49.6539  -57.1762 H         1 UNK         0.0798 
    117 H117       33.2363  -48.7145  -55.5646 H         1 UNK         0.3079 
    118 H118       35.9152  -51.1699  -55.4182 H         1 UNK         0.0794 
    119 H119       36.5226  -49.9303  -57.4854 H         1 UNK         0.0786 
    120 H120       34.8750  -49.3211  -57.6291 H         1 UNK         0.0786 
    121 H121       35.1948  -51.0421  -57.7789 H         1 UNK         0.0786 
    122 H122       35.4120  -48.2364  -55.4160 H         1 UNK         0.3032 
    123 H123       36.6284  -47.8097  -52.1791 H         1 UNK         0.1094 
    124 H124       38.4778  -47.3788  -54.5907 H         1 UNK         0.0794 
    125 H125       38.5773  -46.5261  -53.0489 H         1 UNK         0.0794 
    126 H126       38.8948  -48.2506  -53.1224 H         1 UNK         0.0794 
    127 H127       36.3957  -46.0648  -54.4991 H         1 UNK         0.3016 
@<TRIPOS>BOND
     1    1    2 1    
     2    1   67 1    
     3    1   68 1    
     4    1   69 1    
     5    2    3 2    
     6    2    4 am   BACKBONE|DICT|INTERRES
     7    4    5 1    
     8    4   70 1    
     9    5    6 1    
    10    5   65 1    
    11    5   71 1    
    12    6    7 1    
    13    6   72 1    
    14    6   73 1    
    15    7    8 1    
    16    8    9 1    
    17    8   74 1    
    18    8   75 1    
    19    9   10 ar   
    20    9   14 ar   
    21   10   11 ar   
    22   10   76 1    
    23   11   12 ar   
    24   11   48 1    
    25   12   13 ar   
    26   12   77 1    
    27   13   14 ar   
    28   13   15 1    
    29   14   78 1    
    30   15   16 1    
    31   15   79 1    
    32   15   80 1    
    33   16   17 1    
    34   17   18 1    
    35   17   81 1    
    36   17   82 1    
    37   18   19 1    
    38   18   22 1    
    39   18   83 1    
    40   19   20 am   BACKBONE|DICT|INTERRES
    41   19   21 2    
    42   20   84 1    
    43   20   85 1    
    44   22   23 am   BACKBONE|DICT|INTERRES
    45   22   86 1    
    46   23   24 2    
    47   23   25 1    
    48   25   26 1    
    49   25   27 1    
    50   25   87 1    
    51   26   88 1    
    52   26   89 1    
    53   26   90 1    
    54   27   28 am   BACKBONE|DICT|INTERRES
    55   27   91 1    
    56   28   29 2    
    57   28   30 1    
    58   30   31 1    
    59   30   32 1    
    60   30   92 1    
    61   31   93 1    
    62   31   94 1    
    63   31   95 1    
    64   32   33 am   BACKBONE|DICT|INTERRES
    65   32   96 1    
    66   33   34 2    
    67   33   35 1    
    68   35   36 1    
    69   35   37 1    
    70   35   97 1    
    71   36   98 1    
    72   36   99 1    
    73   36  100 1    
    74   37   38 am   BACKBONE|DICT|INTERRES
    75   37  101 1    
    76   38   39 2    
    77   38   40 1    
    78   40   41 1    
    79   40   42 1    
    80   40  102 1    
    81   41  103 1    
    82   41  104 1    
    83   41  105 1    
    84   42   43 am   BACKBONE|DICT|INTERRES
    85   42  106 1    
    86   43   44 2    
    87   43   45 1    
    88   45   46 1    
    89   45   49 1    
    90   45  107 1    
    91   46   47 1    
    92   46  108 1    
    93   46  109 1    
    94   47   48 1    
    95   48  110 1    
    96   48  111 1    
    97   49   50 am   BACKBONE|DICT|INTERRES
    98   49  112 1    
    99   50   51 2    
   100   50   52 1    
   101   52   53 1    
   102   52   54 1    
   103   52  113 1    
   104   53  114 1    
   105   53  115 1    
   106   53  116 1    
   107   54   55 am   BACKBONE|DICT|INTERRES
   108   54  117 1    
   109   55   56 2    
   110   55   57 1    
   111   57   58 1    
   112   57   59 1    
   113   57  118 1    
   114   58  119 1    
   115   58  120 1    
   116   58  121 1    
   117   59   60 am   BACKBONE|DICT|INTERRES
   118   59  122 1    
   119   60   61 2    
   120   60   62 1    
   121   62   63 1    
   122   62   64 1    
   123   62  123 1    
   124   63  124 1    
   125   63  125 1    
   126   63  126 1    
   127   64   65 am   BACKBONE|DICT|INTERRES
   128   64  127 1    
   129   65   66 2    
@<TRIPOS>SUBSTRUCTURE
     1 UNK         1 GROUP             0       ****    0 ROOT    
