@<TRIPOS>MOLECULE
3R134
127   129    1
SMALL
USER_CHARGES


@<TRIPOS>ATOM
      1 CA         36.2081  -47.2747  -55.9888 C.3       0 UNK        -0.1968 
      2 C          35.1775  -46.7275  -55.0142 C.2       0 UNK         0.4852 
      3 O          34.0271  -47.1734  -55.0363 O.2       0 UNK        -0.5359 
      4 N          35.5850  -45.7871  -54.1475 N.am      1 UNK        -0.4300 
      5 CA         34.7644  -45.0631  -53.1605 C.3       1 UNK         0.0863 
      6 C6         35.4620  -43.7610  -52.6808 C.3       11 UNK        -0.0953 
      7 S7         35.7108  -42.5632  -54.0328 S.3       11 UNK        -0.2369 
      8 C8         34.2783  -41.4605  -53.7949 C.3       11 UNK         0.0226 
      9 C9         32.9624  -42.1999  -53.9916 C.ar      11 UNK        -0.0699 
     10 C10        32.1622  -42.5385  -52.8946 C.ar      11 UNK        -0.0804 
     11 C11        30.9700  -43.2525  -53.0651 C.ar      11 UNK        -0.0871 
     12 C12        30.5810  -43.6122  -54.3627 C.ar      11 UNK        -0.1008 
     13 C13        31.3750  -43.2824  -55.4646 C.ar      11 UNK        -0.0735 
     14 C14        32.5608  -42.5721  -55.2758 C.ar      11 UNK        -0.0945 
     15 C15        30.9566  -43.7115  -56.8576 C.3       11 UNK         0.0169 
     16 S16        29.9603  -42.4275  -57.6701 S.3       11 UNK        -0.2669 
     17 C17        29.0301  -43.4763  -58.8319 C.3       11 UNK        -0.0850 
     18 CA         27.7668  -44.0884  -58.1528 C.3       10 UNK         0.0855 
     19 C          26.4724  -43.2353  -58.3193 C.2       10 UNK         0.5543 
     20 N          26.5802  -41.9150  -58.2603 N.am      10 UNK        -0.7343 
     21 O          25.3649  -43.7527  -58.4517 O.2       10 UNK        -0.5027 
     22 N          27.5993  -45.5081  -58.4832 N.am      10 UNK        -0.4495 
     23 C          27.3318  -46.0201  -59.6924 C.2       10 UNK         0.4903 
     24 O          27.2689  -45.3578  -60.7284 O.2       10 UNK        -0.4860 
     25 CA         27.0983  -47.5384  -59.7529 C.3       9 UNK         0.0227 
     26 CB         28.4059  -48.2732  -60.0899 C.3       9 UNK        -0.1964 
     27 N          26.5745  -48.0466  -58.4847 N.am      9 UNK        -0.4231 
     28 C          25.2875  -48.0030  -58.1135 C.2       9 UNK         0.5014 
     29 O          24.3751  -47.6227  -58.8498 O.2       9 UNK        -0.5270 
     30 CA         24.9812  -48.4482  -56.6688 C.3       8 UNK         0.0284 
     31 CB         23.5006  -48.8259  -56.4488 C.3       8 UNK        -0.1977 
     32 N          25.8758  -49.5130  -56.1992 N.am      8 UNK        -0.4342 
     33 C          26.0115  -50.7471  -56.7118 C.2       8 UNK         0.5039 
     34 O          25.3265  -51.1862  -57.6366 O.2       8 UNK        -0.5547 
     35 CA         27.1200  -51.6431  -56.1278 C.3       7 UNK         0.0281 
     36 CB         28.2413  -51.8343  -57.1633 C.3       7 UNK        -0.1963 
     37 N          27.7000  -51.1331  -54.8815 N.am      7 UNK        -0.4444 
     38 C          27.0774  -51.1437  -53.6947 C.2       7 UNK         0.5104 
     39 O          25.9636  -51.6351  -53.5103 O.2       7 UNK        -0.5100 
     40 CA         27.8021  -50.4629  -52.5223 C.3       6 UNK         0.0396 
     41 CB         28.7869  -51.4406  -51.8623 C.3       6 UNK        -0.1801 
     42 N          28.5114  -49.2362  -52.8992 N.am      6 UNK        -0.4747 
     43 C          27.9421  -48.1186  -53.3774 C.2       6 UNK         0.5012 
     44 O          26.7368  -48.0071  -53.6021 O.2       6 UNK        -0.5003 
     45 CA         28.8932  -46.9535  -53.7179 C.3       5 UNK         0.0782 
     46 C46        29.5069  -46.2920  -52.4499 C.3       11 UNK        -0.0868 
     47 S47        28.7074  -44.7019  -52.0548 S.3       11 UNK        -0.2515 
     48 C48        30.1480  -43.5960  -51.8172 C.3       11 UNK         0.0199 
     49 N          29.9272  -47.4025  -54.6460 N.am      5 UNK        -0.4607 
     50 C          29.7266  -47.7379  -55.9260 C.2       4 UNK         0.5031 
     51 O          28.6507  -47.6125  -56.5146 O.2       4 UNK        -0.5119 
     52 CA         30.9333  -48.3356  -56.6668 C.3       4 UNK         0.0263 
     53 CB         31.6689  -47.2487  -57.4648 C.3       4 UNK        -0.1967 
     54 N          31.8764  -49.0086  -55.7646 N.am      4 UNK        -0.4237 
     55 C          31.6067  -50.1623  -55.1339 C.2       3 UNK         0.4908 
     56 O          30.5406  -50.7663  -55.2434 O.2       3 UNK        -0.5102 
     57 CA         32.6837  -50.7166  -54.1898 C.3       3 UNK         0.0241 
     58 CB         33.8655  -51.2911  -54.9881 C.3       3 UNK        -0.1971 
     59 N          33.1748  -49.7314  -53.2253 N.am      3 UNK        -0.4139 
     60 C          32.4306  -49.1156  -52.2945 C.2       2 UNK         0.5016 
     61 O          31.2186  -49.2696  -52.1617 O.2       2 UNK        -0.5319 
     62 CA         33.1588  -48.1018  -51.4134 C.3       2 UNK         0.0286 
     63 CB         34.1978  -48.7810  -50.4993 C.3       2 UNK        -0.1963 
     64 N          33.7740  -47.1230  -52.2986 N.am      2 UNK        -0.4790 
     65 C          34.2945  -45.9406  -51.9745 C.2       1 UNK         0.5024 
     66 O          34.3924  -45.5392  -50.8137 O.2       1 UNK        -0.4888 
     67 H67        37.1786  -46.7930  -55.8710 H         1 UNK         0.0892 
     68 H68        36.3379  -48.3455  -55.8345 H         1 UNK         0.0892 
     69 H69        35.8723  -47.1161  -57.0131 H         1 UNK         0.0892 
     70 H70        36.5503  -45.4920  -54.1802 H         1 UNK         0.3107 
     71 H71        33.8454  -44.7779  -53.6745 H         1 UNK         0.0773 
     72 H72        36.4332  -43.9905  -52.2392 H         1 UNK         0.0680 
     73 H73        34.8867  -43.2676  -51.8955 H         1 UNK         0.0680 
     74 H74        34.3282  -41.0087  -52.8030 H         1 UNK         0.0650 
     75 H75        34.3422  -40.6387  -54.5095 H         1 UNK         0.0650 
     76 H76        32.4758  -42.2546  -51.8990 H         1 UNK         0.1397 
     77 H77        29.6613  -44.1513  -54.5323 H         1 UNK         0.1363 
     78 H78        33.1798  -42.3207  -56.1263 H         1 UNK         0.1355 
     79 H79        31.8318  -43.9349  -57.4697 H         1 UNK         0.0707 
     80 H80        30.3830  -44.6370  -56.7901 H         1 UNK         0.0707 
     81 H81        29.7024  -44.2580  -59.1901 H         1 UNK         0.1034 
     82 H82        28.7697  -42.9006  -59.7222 H         1 UNK         0.1034 
     83 H83        27.9277  -44.1146  -57.0743 H         1 UNK         0.0482 
     84 H84        25.7526  -41.3462  -58.3469 H         1 UNK         0.3460 
     85 H85        27.4804  -41.4819  -58.1174 H         1 UNK         0.3460 
     86 H86        27.6570  -46.1487  -57.7011 H         1 UNK         0.2989 
     87 H87        26.3763  -47.7404  -60.5470 H         1 UNK         0.0559 
     88 H88        29.1743  -48.0998  -59.3364 H         1 UNK         0.0848 
     89 H89        28.8063  -47.9358  -61.0469 H         1 UNK         0.0848 
     90 H90        28.2478  -49.3491  -60.1661 H         1 UNK         0.0848 
     91 H91        27.2616  -48.3041  -57.7832 H         1 UNK         0.3144 
     92 H92        25.1937  -47.5823  -56.0398 H         1 UNK         0.0727 
     93 H93        23.1898  -49.6450  -57.0979 H         1 UNK         0.0790 
     94 H94        22.8461  -47.9793  -56.6595 H         1 UNK         0.0790 
     95 H95        23.3181  -49.1264  -55.4171 H         1 UNK         0.0790 
     96 H96        26.4750  -49.2554  -55.4237 H         1 UNK         0.3215 
     97 H97        26.6737  -52.6187  -55.9233 H         1 UNK         0.0863 
     98 H98        28.7254  -50.8889  -57.4108 H         1 UNK         0.0808 
     99 H99        27.8520  -52.2540  -58.0919 H         1 UNK         0.0808 
    100 H100       29.0075  -52.5180  -56.7973 H         1 UNK         0.0808 
    101 H101       28.6546  -50.7824  -54.9319 H         1 UNK         0.3118 
    102 H102       27.0474  -50.1898  -51.7821 H         1 UNK         0.0546 
    103 H103       29.2372  -51.0065  -50.9695 H         1 UNK         0.0828 
    104 H104       29.5947  -51.7170  -52.5415 H         1 UNK         0.0828 
    105 H105       28.2841  -52.3596  -51.5583 H         1 UNK         0.0828 
    106 H106       29.5188  -49.2392  -52.7371 H         1 UNK         0.3005 
    107 H107       28.2958  -46.2139  -54.2565 H         1 UNK         0.1257 
    108 H108       30.5736  -46.1087  -52.5910 H         1 UNK         0.0775 
    109 H109       29.4496  -46.9369  -51.5705 H         1 UNK         0.0775 
    110 H110       29.7834  -42.6632  -51.3849 H         1 UNK         0.0840 
    111 H111       30.8034  -44.0432  -51.0678 H         1 UNK         0.0840 
    112 H112       30.8409  -47.5715  -54.2543 H         1 UNK         0.2987 
    113 H113       30.5497  -49.0760  -57.3717 H         1 UNK         0.0785 
    114 H114       32.4777  -47.6742  -58.0589 H         1 UNK         0.0798 
    115 H115       30.9930  -46.7409  -58.1541 H         1 UNK         0.0798 
    116 H116       32.1008  -46.4916  -56.8096 H         1 UNK         0.0798 
    117 H117       32.7554  -48.5296  -55.5827 H         1 UNK         0.3079 
    118 H118       32.2301  -51.5314  -53.6213 H         1 UNK         0.0794 
    119 H119       34.5816  -51.7881  -54.3334 H         1 UNK         0.0786 
    120 H120       34.3981  -50.5161  -55.5410 H         1 UNK         0.0786 
    121 H121       33.5237  -52.0322  -55.7121 H         1 UNK         0.0786 
    122 H122       34.1621  -49.5240  -53.2596 H         1 UNK         0.3032 
    123 H123       32.4149  -47.5960  -50.7935 H         1 UNK         0.1094 
    124 H124       35.0143  -49.2277  -51.0674 H         1 UNK         0.0794 
    125 H125       34.6335  -48.0711  -49.7964 H         1 UNK         0.0794 
    126 H126       33.7367  -49.5734  -49.9080 H         1 UNK         0.0794 
    127 H127       33.7243  -47.3246  -53.2977 H         1 UNK         0.3016 
@<TRIPOS>BOND
     1    1    2 1    
     2    1   67 1    
     3    1   68 1    
     4    1   69 1    
     5    2    3 2    
     6    2    4 am   BACKBONE|DICT|INTERRES
     7    4    5 1    
     8    4   70 1    
     9    5    6 1    
    10    5   65 1    
    11    5   71 1    
    12    6    7 1    
    13    6   72 1    
    14    6   73 1    
    15    7    8 1    
    16    8    9 1    
    17    8   74 1    
    18    8   75 1    
    19    9   10 ar   
    20    9   14 ar   
    21   10   11 ar   
    22   10   76 1    
    23   11   12 ar   
    24   11   48 1    
    25   12   13 ar   
    26   12   77 1    
    27   13   14 ar   
    28   13   15 1    
    29   14   78 1    
    30   15   16 1    
    31   15   79 1    
    32   15   80 1    
    33   16   17 1    
    34   17   18 1    
    35   17   81 1    
    36   17   82 1    
    37   18   19 1    
    38   18   22 1    
    39   18   83 1    
    40   19   20 am   BACKBONE|DICT|INTERRES
    41   19   21 2    
    42   20   84 1    
    43   20   85 1    
    44   22   23 am   BACKBONE|DICT|INTERRES
    45   22   86 1    
    46   23   24 2    
    47   23   25 1    
    48   25   26 1    
    49   25   27 1    
    50   25   87 1    
    51   26   88 1    
    52   26   89 1    
    53   26   90 1    
    54   27   28 am   BACKBONE|DICT|INTERRES
    55   27   91 1    
    56   28   29 2    
    57   28   30 1    
    58   30   31 1    
    59   30   32 1    
    60   30   92 1    
    61   31   93 1    
    62   31   94 1    
    63   31   95 1    
    64   32   33 am   BACKBONE|DICT|INTERRES
    65   32   96 1    
    66   33   34 2    
    67   33   35 1    
    68   35   36 1    
    69   35   37 1    
    70   35   97 1    
    71   36   98 1    
    72   36   99 1    
    73   36  100 1    
    74   37   38 am   BACKBONE|DICT|INTERRES
    75   37  101 1    
    76   38   39 2    
    77   38   40 1    
    78   40   41 1    
    79   40   42 1    
    80   40  102 1    
    81   41  103 1    
    82   41  104 1    
    83   41  105 1    
    84   42   43 am   BACKBONE|DICT|INTERRES
    85   42  106 1    
    86   43   44 2    
    87   43   45 1    
    88   45   46 1    
    89   45   49 1    
    90   45  107 1    
    91   46   47 1    
    92   46  108 1    
    93   46  109 1    
    94   47   48 1    
    95   48  110 1    
    96   48  111 1    
    97   49   50 am   BACKBONE|DICT|INTERRES
    98   49  112 1    
    99   50   51 2    
   100   50   52 1    
   101   52   53 1    
   102   52   54 1    
   103   52  113 1    
   104   53  114 1    
   105   53  115 1    
   106   53  116 1    
   107   54   55 am   BACKBONE|DICT|INTERRES
   108   54  117 1    
   109   55   56 2    
   110   55   57 1    
   111   57   58 1    
   112   57   59 1    
   113   57  118 1    
   114   58  119 1    
   115   58  120 1    
   116   58  121 1    
   117   59   60 am   BACKBONE|DICT|INTERRES
   118   59  122 1    
   119   60   61 2    
   120   60   62 1    
   121   62   63 1    
   122   62   64 1    
   123   62  123 1    
   124   63  124 1    
   125   63  125 1    
   126   63  126 1    
   127   64   65 am   BACKBONE|DICT|INTERRES
   128   64  127 1    
   129   65   66 2    
@<TRIPOS>SUBSTRUCTURE
     1 UNK         1 GROUP             0       ****    0 ROOT    
