@<TRIPOS>MOLECULE
3R134
127   129    1
SMALL
USER_CHARGES


@<TRIPOS>ATOM
      1 CA         37.9720  -43.1587  -55.8602 C.3       0 UNK        -0.1968 
      2 C          37.0076  -43.8156  -54.8832 C.2       0 UNK         0.4852 
      3 O          37.1637  -43.6468  -53.6731 O.2       0 UNK        -0.5359 
      4 N          36.0214  -44.5594  -55.4071 N.am      1 UNK        -0.4300 
      5 CA         34.9741  -45.2825  -54.6690 C.3       1 UNK         0.0863 
      6 C6         33.9809  -44.3581  -53.9170 C.3       11 UNK        -0.0953 
      7 S7         33.1716  -43.1184  -54.9805 S.3       11 UNK        -0.2369 
      8 C8         32.3106  -42.1174  -53.7248 C.3       11 UNK         0.0226 
      9 C9         31.1015  -42.8470  -53.1559 C.ar      11 UNK        -0.0699 
     10 C10        31.2448  -43.7126  -52.0675 C.ar      11 UNK        -0.0804 
     11 C11        30.1467  -44.4178  -51.5680 C.ar      11 UNK        -0.0871 
     12 C12        28.8866  -44.2225  -52.1414 C.ar      11 UNK        -0.1008 
     13 C13        28.7278  -43.3476  -53.2212 C.ar      11 UNK        -0.0735 
     14 C14        29.8382  -42.6625  -53.7235 C.ar      11 UNK        -0.0945 
     15 C15        27.3556  -43.1491  -53.8456 C.3       11 UNK         0.0169 
     16 S16        26.9400  -44.5141  -54.9724 S.3       11 UNK        -0.2669 
     17 C17        27.9803  -44.1507  -56.4303 C.3       11 UNK        -0.0850 
     18 CA         27.1466  -43.9401  -57.7217 C.3       10 UNK         0.0855 
     19 C          28.0732  -43.5539  -58.9135 C.2       10 UNK         0.5543 
     20 N          28.2219  -44.3769  -59.9462 N.am      10 UNK        -0.7343 
     21 O          28.6683  -42.4795  -58.8978 O.2       10 UNK        -0.5027 
     22 N          26.2724  -45.0921  -57.9776 N.am      10 UNK        -0.4495 
     23 C          25.2482  -45.1327  -58.8380 C.2       10 UNK         0.4903 
     24 O          24.8284  -44.1516  -59.4534 O.2       10 UNK        -0.4860 
     25 CA         24.6006  -46.5178  -59.0467 C.3       9 UNK         0.0227 
     26 CB         23.9185  -46.6566  -60.4242 C.3       9 UNK        -0.1964 
     27 N          25.5355  -47.6293  -58.8053 N.am      9 UNK        -0.4231 
     28 C          26.6874  -47.8743  -59.4547 C.2       9 UNK         0.5014 
     29 O          27.0805  -47.1956  -60.4054 O.2       9 UNK        -0.5270 
     30 CA         27.5975  -49.0065  -58.9328 C.3       8 UNK         0.0284 
     31 CB         29.0305  -48.4878  -58.7147 C.3       8 UNK        -0.1977 
     32 N          27.1249  -49.6237  -57.6887 N.am      8 UNK        -0.4342 
     33 C          26.1609  -50.5517  -57.6142 C.2       8 UNK         0.5039 
     34 O          25.6040  -51.0370  -58.5992 O.2       8 UNK        -0.5547 
     35 CA         25.7024  -50.9769  -56.2076 C.3       7 UNK         0.0281 
     36 CB         26.5624  -52.1371  -55.6830 C.3       7 UNK        -0.1963 
     37 N          25.7017  -49.8872  -55.2256 N.am      7 UNK        -0.4444 
     38 C          24.9953  -48.7520  -55.3065 C.2       7 UNK         0.5104 
     39 O          24.2621  -48.4787  -56.2562 O.2       7 UNK        -0.5100 
     40 CA         25.1494  -47.7266  -54.1652 C.3       6 UNK         0.0396 
     41 CB         24.1764  -48.0259  -53.0089 C.3       6 UNK        -0.1801 
     42 N          26.5313  -47.5471  -53.6915 N.am      6 UNK        -0.4747 
     43 C          27.3100  -48.4240  -53.0433 C.2       6 UNK         0.5012 
     44 O          26.9265  -49.5351  -52.6684 O.2       6 UNK        -0.5003 
     45 CA         28.7877  -48.0311  -52.8336 C.3       5 UNK         0.0782 
     46 C46        29.0379  -47.7326  -51.3352 C.3       11 UNK        -0.0868 
     47 S47        30.7061  -47.0733  -51.0038 S.3       11 UNK        -0.2515 
     48 C48        30.3351  -45.3886  -50.4119 C.3       11 UNK         0.0199 
     49 N          29.6645  -49.0978  -53.3406 N.am      5 UNK        -0.4607 
     50 C          29.6433  -49.5835  -54.5912 C.2       4 UNK         0.5031 
     51 O          28.9725  -49.0902  -55.5014 O.2       4 UNK        -0.5119 
     52 CA         30.4441  -50.8755  -54.8457 C.3       4 UNK         0.0263 
     53 CB         30.6163  -51.1947  -56.3470 C.3       4 UNK        -0.1967 
     54 N          31.7324  -50.9444  -54.1444 N.am      4 UNK        -0.4237 
     55 C          32.8074  -50.1697  -54.3471 C.2       3 UNK         0.4908 
     56 O          32.8351  -49.1924  -55.1011 O.2       3 UNK        -0.5102 
     57 CA         34.0842  -50.5970  -53.6080 C.3       3 UNK         0.0241 
     58 CB         34.5737  -51.9800  -54.0892 C.3       3 UNK        -0.1971 
     59 N          35.1162  -49.5937  -53.8454 N.am      3 UNK        -0.4139 
     60 C          36.2418  -49.4250  -53.1431 C.2       2 UNK         0.5016 
     61 O          36.5702  -50.1354  -52.1917 O.2       2 UNK        -0.5319 
     62 CA         37.1648  -48.2664  -53.5693 C.3       2 UNK         0.0286 
     63 CB         38.3218  -48.7916  -54.4350 C.3       2 UNK        -0.1963 
     64 N          36.4785  -47.1867  -54.2903 N.am      2 UNK        -0.4790 
     65 C          35.5666  -46.3693  -53.7426 C.2       1 UNK         0.5024 
     66 O          35.2106  -46.4499  -52.5651 O.2       1 UNK        -0.4888 
     67 H67        37.9520  -42.0764  -55.7353 H         1 UNK         0.0892 
     68 H68        38.9884  -43.5047  -55.6739 H         1 UNK         0.0892 
     69 H69        37.7219  -43.3841  -56.8967 H         1 UNK         0.0892 
     70 H70        35.9615  -44.6401  -56.4127 H         1 UNK         0.3107 
     71 H71        34.3979  -45.8243  -55.4210 H         1 UNK         0.0773 
     72 H72        34.4808  -43.8418  -53.0954 H         1 UNK         0.0680 
     73 H73        33.1948  -44.9693  -53.4719 H         1 UNK         0.0680 
     74 H74        31.9967  -41.1779  -54.1821 H         1 UNK         0.0650 
     75 H75        33.0042  -41.8491  -52.9265 H         1 UNK         0.0650 
     76 H76        32.2195  -43.8563  -51.6217 H         1 UNK         0.1397 
     77 H77        28.0289  -44.7563  -51.7565 H         1 UNK         0.1363 
     78 H78        29.7232  -41.9889  -54.5615 H         1 UNK         0.1355 
     79 H79        26.6020  -43.1016  -53.0580 H         1 UNK         0.0707 
     80 H80        27.2992  -42.1986  -54.3786 H         1 UNK         0.0707 
     81 H81        28.5887  -43.2677  -56.2320 H         1 UNK         0.1034 
     82 H82        28.6851  -44.9745  -56.5590 H         1 UNK         0.1034 
     83 H83        26.4957  -43.0794  -57.5566 H         1 UNK         0.0482 
     84 H84        27.7347  -45.2646  -59.9865 H         1 UNK         0.3460 
     85 H85        28.8239  -44.1043  -60.7064 H         1 UNK         0.3460 
     86 H86        26.5275  -45.9457  -57.5065 H         1 UNK         0.2989 
     87 H87        23.8243  -46.6046  -58.2854 H         1 UNK         0.0559 
     88 H88        24.6225  -46.5063  -61.2431 H         1 UNK         0.0848 
     89 H89        23.1227  -45.9204  -60.5427 H         1 UNK         0.0848 
     90 H90        23.4671  -47.6412  -60.5458 H         1 UNK         0.0848 
     91 H91        25.2882  -48.2251  -58.0216 H         1 UNK         0.3144 
     92 H92        27.6319  -49.7705  -59.7121 H         1 UNK         0.0727 
     93 H93        29.0673  -47.7123  -57.9485 H         1 UNK         0.0790 
     94 H94        29.4439  -48.0623  -59.6301 H         1 UNK         0.0790 
     95 H95        29.6994  -49.2911  -58.4100 H         1 UNK         0.0790 
     96 H96        27.5820  -49.3208  -56.8305 H         1 UNK         0.3215 
     97 H97        24.6729  -51.3303  -56.2971 H         1 UNK         0.0863 
     98 H98        26.1816  -52.5163  -54.7345 H         1 UNK         0.0808 
     99 H99        27.5976  -51.8341  -55.5313 H         1 UNK         0.0808 
    100 H100       26.5656  -52.9708  -56.3867 H         1 UNK         0.0808 
    101 H101       26.2641  -50.0128  -54.3884 H         1 UNK         0.3118 
    102 H102       24.8608  -46.7605  -54.5821 H         1 UNK         0.0546 
    103 H103       24.3617  -48.9991  -52.5541 H         1 UNK         0.0828 
    104 H104       23.1450  -48.0295  -53.3638 H         1 UNK         0.0828 
    105 H105       24.2465  -47.2704  -52.2265 H         1 UNK         0.0828 
    106 H106       26.9487  -46.6712  -53.9836 H         1 UNK         0.3005 
    107 H107       28.9990  -47.1293  -53.4133 H         1 UNK         0.1257 
    108 H108       28.9125  -48.6398  -50.7406 H         1 UNK         0.0775 
    109 H109       28.2943  -47.0296  -50.9564 H         1 UNK         0.0775 
    110 H110       29.4566  -45.3947  -49.7649 H         1 UNK         0.0840 
    111 H111       31.1619  -45.0542  -49.7833 H         1 UNK         0.0840 
    112 H112       30.2405  -49.5591  -52.6529 H         1 UNK         0.2987 
    113 H113       29.8366  -51.6754  -54.4201 H         1 UNK         0.0785 
    114 H114       29.6511  -51.2751  -56.8483 H         1 UNK         0.0798 
    115 H115       31.1332  -52.1429  -56.4937 H         1 UNK         0.0798 
    116 H116       31.1861  -50.4204  -56.8610 H         1 UNK         0.0798 
    117 H117       31.8215  -51.7072  -53.4868 H         1 UNK         0.3079 
    118 H118       33.8648  -50.6312  -52.5387 H         1 UNK         0.0794 
    119 H119       33.8290  -52.7553  -53.9068 H         1 UNK         0.0786 
    120 H120       35.4813  -52.2874  -53.5697 H         1 UNK         0.0786 
    121 H121       34.7880  -51.9781  -55.1588 H         1 UNK         0.0786 
    122 H122       34.8881  -48.9399  -54.5845 H         1 UNK         0.3032 
    123 H123       37.5868  -47.8424  -52.6550 H         1 UNK         0.1094 
    124 H124       37.9642  -49.2133  -55.3752 H         1 UNK         0.0794 
    125 H125       39.0345  -48.0005  -54.6690 H         1 UNK         0.0794 
    126 H126       38.8726  -49.5769  -53.9150 H         1 UNK         0.0794 
    127 H127       36.7340  -47.0483  -55.2579 H         1 UNK         0.3016 
@<TRIPOS>BOND
     1    1    2 1    
     2    1   67 1    
     3    1   68 1    
     4    1   69 1    
     5    2    3 2    
     6    2    4 am   BACKBONE|DICT|INTERRES
     7    4    5 1    
     8    4   70 1    
     9    5    6 1    
    10    5   65 1    
    11    5   71 1    
    12    6    7 1    
    13    6   72 1    
    14    6   73 1    
    15    7    8 1    
    16    8    9 1    
    17    8   74 1    
    18    8   75 1    
    19    9   10 ar   
    20    9   14 ar   
    21   10   11 ar   
    22   10   76 1    
    23   11   12 ar   
    24   11   48 1    
    25   12   13 ar   
    26   12   77 1    
    27   13   14 ar   
    28   13   15 1    
    29   14   78 1    
    30   15   16 1    
    31   15   79 1    
    32   15   80 1    
    33   16   17 1    
    34   17   18 1    
    35   17   81 1    
    36   17   82 1    
    37   18   19 1    
    38   18   22 1    
    39   18   83 1    
    40   19   20 am   BACKBONE|DICT|INTERRES
    41   19   21 2    
    42   20   84 1    
    43   20   85 1    
    44   22   23 am   BACKBONE|DICT|INTERRES
    45   22   86 1    
    46   23   24 2    
    47   23   25 1    
    48   25   26 1    
    49   25   27 1    
    50   25   87 1    
    51   26   88 1    
    52   26   89 1    
    53   26   90 1    
    54   27   28 am   BACKBONE|DICT|INTERRES
    55   27   91 1    
    56   28   29 2    
    57   28   30 1    
    58   30   31 1    
    59   30   32 1    
    60   30   92 1    
    61   31   93 1    
    62   31   94 1    
    63   31   95 1    
    64   32   33 am   BACKBONE|DICT|INTERRES
    65   32   96 1    
    66   33   34 2    
    67   33   35 1    
    68   35   36 1    
    69   35   37 1    
    70   35   97 1    
    71   36   98 1    
    72   36   99 1    
    73   36  100 1    
    74   37   38 am   BACKBONE|DICT|INTERRES
    75   37  101 1    
    76   38   39 2    
    77   38   40 1    
    78   40   41 1    
    79   40   42 1    
    80   40  102 1    
    81   41  103 1    
    82   41  104 1    
    83   41  105 1    
    84   42   43 am   BACKBONE|DICT|INTERRES
    85   42  106 1    
    86   43   44 2    
    87   43   45 1    
    88   45   46 1    
    89   45   49 1    
    90   45  107 1    
    91   46   47 1    
    92   46  108 1    
    93   46  109 1    
    94   47   48 1    
    95   48  110 1    
    96   48  111 1    
    97   49   50 am   BACKBONE|DICT|INTERRES
    98   49  112 1    
    99   50   51 2    
   100   50   52 1    
   101   52   53 1    
   102   52   54 1    
   103   52  113 1    
   104   53  114 1    
   105   53  115 1    
   106   53  116 1    
   107   54   55 am   BACKBONE|DICT|INTERRES
   108   54  117 1    
   109   55   56 2    
   110   55   57 1    
   111   57   58 1    
   112   57   59 1    
   113   57  118 1    
   114   58  119 1    
   115   58  120 1    
   116   58  121 1    
   117   59   60 am   BACKBONE|DICT|INTERRES
   118   59  122 1    
   119   60   61 2    
   120   60   62 1    
   121   62   63 1    
   122   62   64 1    
   123   62  123 1    
   124   63  124 1    
   125   63  125 1    
   126   63  126 1    
   127   64   65 am   BACKBONE|DICT|INTERRES
   128   64  127 1    
   129   65   66 2    
@<TRIPOS>SUBSTRUCTURE
     1 UNK         1 GROUP             0       ****    0 ROOT    
