@<TRIPOS>MOLECULE
3R134
127   129    1
SMALL
USER_CHARGES


@<TRIPOS>ATOM
      1 CA         35.9840  -45.1806  -53.9858 C.3       0 UNK        -0.1968 
      2 C          36.1178  -45.3067  -52.4724 C.2       0 UNK         0.4852 
      3 O          37.2209  -45.5521  -51.9862 O.2       0 UNK        -0.5359 
      4 N          35.0452  -45.1586  -51.6848 N.am      1 UNK        -0.4300 
      5 CA         33.6552  -44.9033  -52.0822 C.3       1 UNK         0.0863 
      6 C6         33.1833  -43.4855  -51.6551 C.3       11 UNK        -0.0953 
      7 S7         34.1201  -42.1624  -52.4993 S.3       11 UNK        -0.2369 
      8 C8         32.8211  -41.2242  -53.3744 C.3       11 UNK         0.0226 
      9 C9         31.9751  -42.0873  -54.3028 C.ar      11 UNK        -0.0699 
     10 C10        32.5762  -42.8672  -55.2962 C.ar      11 UNK        -0.0804 
     11 C11        31.8006  -43.7017  -56.1051 C.ar      11 UNK        -0.0871 
     12 C12        30.4121  -43.7205  -55.9472 C.ar      11 UNK        -0.1008 
     13 C13        29.7979  -42.9319  -54.9722 C.ar      11 UNK        -0.0735 
     14 C14        30.5843  -42.1172  -54.1529 C.ar      11 UNK        -0.0945 
     15 C15        28.2923  -43.0026  -54.7665 C.3       11 UNK         0.0169 
     16 S16        27.4041  -41.6824  -55.6542 S.3       11 UNK        -0.2669 
     17 C17        27.5349  -42.2034  -57.4012 C.3       11 UNK        -0.0850 
     18 CA         26.3040  -43.0166  -57.8772 C.3       10 UNK         0.0855 
     19 C          26.3622  -43.2574  -59.4066 C.2       10 UNK         0.5543 
     20 N          25.5973  -42.5062  -60.1861 N.am      10 UNK        -0.7343 
     21 O          27.1277  -44.0887  -59.8913 O.2       10 UNK        -0.5027 
     22 N          26.2025  -44.3010  -57.1749 N.am      10 UNK        -0.4495 
     23 C          25.0568  -44.8956  -56.8283 C.2       10 UNK         0.4903 
     24 O          23.9427  -44.3932  -56.9881 O.2       10 UNK        -0.4860 
     25 CA         25.1981  -46.2940  -56.1980 C.3       9 UNK         0.0227 
     26 CB         23.8408  -46.9805  -55.9352 C.3       9 UNK        -0.1964 
     27 N          26.0857  -47.1729  -56.9691 N.am      9 UNK        -0.4231 
     28 C          25.9305  -47.5751  -58.2413 C.2       9 UNK         0.5014 
     29 O          25.0037  -47.2286  -58.9750 O.2       9 UNK        -0.5270 
     30 CA         26.9843  -48.5570  -58.7830 C.3       8 UNK         0.0284 
     31 CB         28.2411  -47.8006  -59.2442 C.3       8 UNK        -0.1977 
     32 N          27.3517  -49.5893  -57.8084 N.am      8 UNK        -0.4342 
     33 C          26.5183  -50.5356  -57.3479 C.2       8 UNK         0.5039 
     34 O          25.3730  -50.7056  -57.7680 O.2       8 UNK        -0.5547 
     35 CA         27.0376  -51.4307  -56.2086 C.3       7 UNK         0.0281 
     36 CB         27.9077  -52.5727  -56.7572 C.3       7 UNK        -0.1963 
     37 N          27.7855  -50.6755  -55.2009 N.am      7 UNK        -0.4444 
     38 C          27.2531  -49.7465  -54.3933 C.2       7 UNK         0.5104 
     39 O          26.0514  -49.4884  -54.3385 O.2       7 UNK        -0.5100 
     40 CA         28.2327  -48.9397  -53.5256 C.3       6 UNK         0.0396 
     41 CB         28.5106  -49.6544  -52.1938 C.3       6 UNK        -0.1801 
     42 N          29.4910  -48.6691  -54.2257 N.am      6 UNK        -0.4747 
     43 C          29.6133  -47.7964  -55.2371 C.2       6 UNK         0.5012 
     44 O          28.6861  -47.0988  -55.6518 O.2       6 UNK        -0.5003 
     45 CA         30.9885  -47.7102  -55.9279 C.3       5 UNK         0.0782 
     46 C46        31.9018  -46.7002  -55.2027 C.3       11 UNK        -0.0868 
     47 S47        33.2360  -46.0769  -56.2802 S.3       11 UNK        -0.2515 
     48 C48        32.4614  -44.6416  -57.1015 C.3       11 UNK         0.0199 
     49 N          31.6286  -49.0229  -56.0426 N.am      5 UNK        -0.4607 
     50 C          31.1846  -50.0114  -56.8290 C.2       4 UNK         0.5031 
     51 O          30.2082  -49.9036  -57.5693 O.2       4 UNK        -0.5119 
     52 CA         31.9142  -51.3629  -56.7315 C.3       4 UNK         0.0263 
     53 CB         33.1018  -51.4030  -57.7053 C.3       4 UNK        -0.1967 
     54 N          32.3793  -51.6768  -55.3761 N.am      4 UNK        -0.4237 
     55 C          31.5879  -51.7796  -54.2991 C.2       3 UNK         0.4908 
     56 O          30.3642  -51.6507  -54.3411 O.2       3 UNK        -0.5102 
     57 CA         32.2592  -52.0158  -52.9347 C.3       3 UNK         0.0241 
     58 CB         33.7064  -52.5534  -53.0262 C.3       3 UNK        -0.1971 
     59 N          32.1987  -50.8121  -52.0937 N.am      3 UNK        -0.4139 
     60 C          32.7257  -49.6099  -52.3716 C.2       2 UNK         0.5016 
     61 O          33.3373  -49.3516  -53.4129 O.2       2 UNK        -0.5319 
     62 CA         32.5307  -48.5108  -51.3139 C.3       2 UNK         0.0286 
     63 CB         33.1232  -48.9130  -49.9490 C.3       2 UNK        -0.1963 
     64 N          33.1738  -47.2816  -51.7748 N.am      2 UNK        -0.4790 
     65 C          32.7913  -46.0320  -51.4831 C.2       1 UNK         0.5024 
     66 O          31.8342  -45.7696  -50.7535 O.2       1 UNK        -0.4888 
     67 H67        36.9665  -45.1117  -54.4520 H         1 UNK         0.0892 
     68 H68        35.4831  -46.0577  -54.3926 H         1 UNK         0.0892 
     69 H69        35.4263  -44.2885  -54.2671 H         1 UNK         0.0892 
     70 H70        35.1741  -45.2738  -50.6891 H         1 UNK         0.3107 
     71 H71        33.5290  -44.9853  -53.1623 H         1 UNK         0.0773 
     72 H72        33.3001  -43.3502  -50.5785 H         1 UNK         0.0680 
     73 H73        32.1192  -43.3576  -51.8602 H         1 UNK         0.0680 
     74 H74        33.2928  -40.4341  -53.9599 H         1 UNK         0.0650 
     75 H75        32.1965  -40.7258  -52.6314 H         1 UNK         0.0650 
     76 H76        33.6516  -42.8588  -55.4091 H         1 UNK         0.1397 
     77 H77        29.8127  -44.3839  -56.5557 H         1 UNK         0.1363 
     78 H78        30.1107  -41.5180  -53.3872 H         1 UNK         0.1355 
     79 H79        27.9116  -43.9796  -55.0656 H         1 UNK         0.0707 
     80 H80        28.0690  -42.9126  -53.7024 H         1 UNK         0.0707 
     81 H81        28.4588  -42.7545  -57.5716 H         1 UNK         0.1034 
     82 H82        27.6282  -41.2915  -57.9943 H         1 UNK         0.1034 
     83 H83        25.4152  -42.4203  -57.6591 H         1 UNK         0.0482 
     84 H84        24.9735  -41.8162  -59.7966 H         1 UNK         0.3460 
     85 H85        25.6354  -42.6394  -61.1847 H         1 UNK         0.3460 
     86 H86        27.0622  -44.8180  -57.0689 H         1 UNK         0.2989 
     87 H87        25.6835  -46.1480  -55.2319 H         1 UNK         0.0559 
     88 H88        23.2229  -46.3813  -55.2655 H         1 UNK         0.0848 
     89 H89        23.9753  -47.9554  -55.4663 H         1 UNK         0.0848 
     90 H90        23.2748  -47.1276  -56.8556 H         1 UNK         0.0848 
     91 H91        26.9304  -47.4616  -56.4838 H         1 UNK         0.3144 
     92 H92        26.5540  -49.0600  -59.6516 H         1 UNK         0.0727 
     93 H93        28.9634  -48.4749  -59.7048 H         1 UNK         0.0790 
     94 H94        28.7368  -47.2937  -58.4165 H         1 UNK         0.0790 
     95 H95        27.9879  -47.0403  -59.9848 H         1 UNK         0.0790 
     96 H96        28.3165  -49.5924  -57.4865 H         1 UNK         0.3215 
     97 H97        26.1708  -51.8734  -55.7131 H         1 UNK         0.0863 
     98 H98        28.2624  -53.2225  -55.9568 H         1 UNK         0.0808 
     99 H99        28.7781  -52.1976  -57.2947 H         1 UNK         0.0808 
    100 H100       27.3400  -53.1927  -57.4523 H         1 UNK         0.0808 
    101 H101       28.7755  -50.8854  -55.1032 H         1 UNK         0.3118 
    102 H102       27.7587  -47.9825  -53.2967 H         1 UNK         0.0546 
    103 H103       29.0045  -50.6152  -52.3380 H         1 UNK         0.0828 
    104 H104       27.5802  -49.8479  -51.6582 H         1 UNK         0.0828 
    105 H105       29.1347  -49.0464  -51.5401 H         1 UNK         0.0828 
    106 H106       30.2750  -49.2659  -54.0044 H         1 UNK         0.3005 
    107 H107       30.7970  -47.3418  -56.9383 H         1 UNK         0.1257 
    108 H108       31.3409  -45.8712  -54.7752 H         1 UNK         0.0775 
    109 H109       32.3705  -47.1734  -54.3441 H         1 UNK         0.0775 
    110 H110       33.2225  -44.1010  -57.6660 H         1 UNK         0.0840 
    111 H111       31.7360  -44.9986  -57.8342 H         1 UNK         0.0840 
    112 H112       32.4249  -49.1925  -55.4389 H         1 UNK         0.2987 
    113 H113       31.2062  -52.1406  -57.0237 H         1 UNK         0.0785 
    114 H114       33.5756  -52.3848  -57.7143 H         1 UNK         0.0798 
    115 H115       33.8618  -50.6642  -57.4474 H         1 UNK         0.0798 
    116 H116       32.7762  -51.1932  -58.7253 H         1 UNK         0.0798 
    117 H117       33.3768  -51.7596  -55.2421 H         1 UNK         0.3079 
    118 H118       31.6592  -52.7769  -52.4333 H         1 UNK         0.0794 
    119 H119       33.7512  -53.4643  -53.6248 H         1 UNK         0.0786 
    120 H120       34.0883  -52.8057  -52.0368 H         1 UNK         0.0786 
    121 H121       34.3964  -51.8322  -53.4653 H         1 UNK         0.0786 
    122 H122       31.6934  -50.9223  -51.2256 H         1 UNK         0.3032 
    123 H123       31.4573  -48.3389  -51.2101 H         1 UNK         0.1094 
    124 H124       34.1881  -49.1372  -50.0246 H         1 UNK         0.0794 
    125 H125       33.0033  -48.1156  -49.2152 H         1 UNK         0.0794 
    126 H126       32.6303  -49.7953  -49.5398 H         1 UNK         0.0794 
    127 H127       33.9352  -47.4350  -52.4245 H         1 UNK         0.3016 
@<TRIPOS>BOND
     1    1    2 1    
     2    1   67 1    
     3    1   68 1    
     4    1   69 1    
     5    2    3 2    
     6    2    4 am   BACKBONE|DICT|INTERRES
     7    4    5 1    
     8    4   70 1    
     9    5    6 1    
    10    5   65 1    
    11    5   71 1    
    12    6    7 1    
    13    6   72 1    
    14    6   73 1    
    15    7    8 1    
    16    8    9 1    
    17    8   74 1    
    18    8   75 1    
    19    9   10 ar   
    20    9   14 ar   
    21   10   11 ar   
    22   10   76 1    
    23   11   12 ar   
    24   11   48 1    
    25   12   13 ar   
    26   12   77 1    
    27   13   14 ar   
    28   13   15 1    
    29   14   78 1    
    30   15   16 1    
    31   15   79 1    
    32   15   80 1    
    33   16   17 1    
    34   17   18 1    
    35   17   81 1    
    36   17   82 1    
    37   18   19 1    
    38   18   22 1    
    39   18   83 1    
    40   19   20 am   BACKBONE|DICT|INTERRES
    41   19   21 2    
    42   20   84 1    
    43   20   85 1    
    44   22   23 am   BACKBONE|DICT|INTERRES
    45   22   86 1    
    46   23   24 2    
    47   23   25 1    
    48   25   26 1    
    49   25   27 1    
    50   25   87 1    
    51   26   88 1    
    52   26   89 1    
    53   26   90 1    
    54   27   28 am   BACKBONE|DICT|INTERRES
    55   27   91 1    
    56   28   29 2    
    57   28   30 1    
    58   30   31 1    
    59   30   32 1    
    60   30   92 1    
    61   31   93 1    
    62   31   94 1    
    63   31   95 1    
    64   32   33 am   BACKBONE|DICT|INTERRES
    65   32   96 1    
    66   33   34 2    
    67   33   35 1    
    68   35   36 1    
    69   35   37 1    
    70   35   97 1    
    71   36   98 1    
    72   36   99 1    
    73   36  100 1    
    74   37   38 am   BACKBONE|DICT|INTERRES
    75   37  101 1    
    76   38   39 2    
    77   38   40 1    
    78   40   41 1    
    79   40   42 1    
    80   40  102 1    
    81   41  103 1    
    82   41  104 1    
    83   41  105 1    
    84   42   43 am   BACKBONE|DICT|INTERRES
    85   42  106 1    
    86   43   44 2    
    87   43   45 1    
    88   45   46 1    
    89   45   49 1    
    90   45  107 1    
    91   46   47 1    
    92   46  108 1    
    93   46  109 1    
    94   47   48 1    
    95   48  110 1    
    96   48  111 1    
    97   49   50 am   BACKBONE|DICT|INTERRES
    98   49  112 1    
    99   50   51 2    
   100   50   52 1    
   101   52   53 1    
   102   52   54 1    
   103   52  113 1    
   104   53  114 1    
   105   53  115 1    
   106   53  116 1    
   107   54   55 am   BACKBONE|DICT|INTERRES
   108   54  117 1    
   109   55   56 2    
   110   55   57 1    
   111   57   58 1    
   112   57   59 1    
   113   57  118 1    
   114   58  119 1    
   115   58  120 1    
   116   58  121 1    
   117   59   60 am   BACKBONE|DICT|INTERRES
   118   59  122 1    
   119   60   61 2    
   120   60   62 1    
   121   62   63 1    
   122   62   64 1    
   123   62  123 1    
   124   63  124 1    
   125   63  125 1    
   126   63  126 1    
   127   64   65 am   BACKBONE|DICT|INTERRES
   128   64  127 1    
   129   65   66 2    
@<TRIPOS>SUBSTRUCTURE
     1 UNK         1 GROUP             0       ****    0 ROOT    
