@<TRIPOS>MOLECULE
3R134
127   129    1
SMALL
USER_CHARGES


@<TRIPOS>ATOM
      1 CA         37.2849  -47.6442  -54.0147 C.3       0 UNK        -0.1968 
      2 C          36.2939  -47.5518  -55.1653 C.2       0 UNK         0.4852 
      3 O          36.5685  -48.0593  -56.2541 O.2       0 UNK        -0.5359 
      4 N          35.1425  -46.9119  -54.9322 N.am      1 UNK        -0.4300 
      5 CA         34.0312  -46.8082  -55.8745 C.3       1 UNK         0.0863 
      6 C6         33.2443  -45.4967  -55.6555 C.3       11 UNK        -0.0953 
      7 S7         32.1327  -45.1127  -57.0475 S.3       11 UNK        -0.2369 
      8 C8         31.5964  -43.4325  -56.6013 C.3       11 UNK         0.0226 
      9 C9         30.8693  -43.4133  -55.2656 C.ar      11 UNK        -0.0699 
     10 C10        31.5143  -42.9518  -54.1157 C.ar      11 UNK        -0.0804 
     11 C11        30.8566  -42.9643  -52.8839 C.ar      11 UNK        -0.0871 
     12 C12        29.5346  -43.4163  -52.8159 C.ar      11 UNK        -0.1008 
     13 C13        28.8741  -43.8869  -53.9561 C.ar      11 UNK        -0.0735 
     14 C14        29.5566  -43.8815  -55.1798 C.ar      11 UNK        -0.0945 
     15 C15        27.4409  -44.4031  -53.7983 C.3       11 UNK         0.0169 
     16 S16        26.6680  -45.1190  -55.2924 S.3       11 UNK        -0.2669 
     17 C17        26.1608  -43.6033  -56.1754 C.3       11 UNK        -0.0850 
     18 CA         25.9408  -43.7775  -57.7030 C.3       10 UNK         0.0855 
     19 C          27.2637  -43.9395  -58.5096 C.2       10 UNK         0.5543 
     20 N          27.3903  -44.9046  -59.4130 N.am      10 UNK        -0.7343 
     21 O          28.1877  -43.1502  -58.3342 O.2       10 UNK        -0.5027 
     22 N          24.9110  -44.7861  -58.0048 N.am      10 UNK        -0.4495 
     23 C          24.0463  -44.6978  -59.0244 C.2       10 UNK         0.4903 
     24 O          23.9692  -43.7187  -59.7692 O.2       10 UNK        -0.4860 
     25 CA         23.1153  -45.9080  -59.2540 C.3       9 UNK         0.0227 
     26 CB         22.3945  -45.8524  -60.6183 C.3       9 UNK        -0.1964 
     27 N          23.7771  -47.2091  -59.0872 N.am      9 UNK        -0.4231 
     28 C          24.8792  -47.6450  -59.7143 C.2       9 UNK         0.5014 
     29 O          25.5449  -46.9731  -60.5052 O.2       9 UNK        -0.5270 
     30 CA         25.3332  -49.0752  -59.3779 C.3       8 UNK         0.0284 
     31 CB         25.4496  -49.9335  -60.6491 C.3       8 UNK        -0.1977 
     32 N          26.6167  -49.0683  -58.6746 N.am      8 UNK        -0.4342 
     33 C          26.8072  -48.5435  -57.4584 C.2       8 UNK         0.5039 
     34 O          25.9018  -48.0448  -56.7835 O.2       8 UNK        -0.5547 
     35 CA         28.2413  -48.5887  -56.9137 C.3       7 UNK         0.0281 
     36 CB         29.1546  -47.6058  -57.6678 C.3       7 UNK        -0.1963 
     37 N          28.2278  -48.2108  -55.5055 N.am      7 UNK        -0.4444 
     38 C          28.7341  -48.9189  -54.4945 C.2       7 UNK         0.5104 
     39 O          29.3299  -49.9912  -54.6140 O.2       7 UNK        -0.5100 
     40 CA         28.5812  -48.2901  -53.1110 C.3       6 UNK         0.0396 
     41 CB         28.1659  -49.3153  -52.0377 C.3       6 UNK        -0.1801 
     42 N          29.8509  -47.6562  -52.7755 N.am      6 UNK        -0.4747 
     43 C          30.0209  -46.7552  -51.8024 C.2       6 UNK         0.5012 
     44 O          29.1149  -46.3959  -51.0480 O.2       6 UNK        -0.5003 
     45 CA         31.4475  -46.2056  -51.6299 C.3       5 UNK         0.0782 
     46 C46        31.5803  -45.1105  -50.5272 C.3       11 UNK        -0.0868 
     47 S47        32.7342  -43.7830  -51.0080 S.3       11 UNK        -0.2515 
     48 C48        31.5851  -42.5074  -51.6271 C.3       11 UNK         0.0199 
     49 N          32.3169  -47.3564  -51.3961 N.am      5 UNK        -0.4607 
     50 C          33.6019  -47.4603  -51.7355 C.2       4 UNK         0.5031 
     51 O          34.2462  -46.5692  -52.2883 O.2       4 UNK        -0.5119 
     52 CA         34.2918  -48.7996  -51.4251 C.3       4 UNK         0.0263 
     53 CB         34.4374  -49.0271  -49.9074 C.3       4 UNK        -0.1967 
     54 N          33.6761  -49.9527  -52.0958 N.am      4 UNK        -0.4237 
     55 C          32.4657  -50.5017  -51.9150 C.2       3 UNK         0.4908 
     56 O          31.6448  -50.1050  -51.0858 O.2       3 UNK        -0.5102 
     57 CA         32.1254  -51.6830  -52.8467 C.3       3 UNK         0.0241 
     58 CB         30.8027  -52.3869  -52.4947 C.3       3 UNK        -0.1971 
     59 N          32.0914  -51.2523  -54.2478 N.am      3 UNK        -0.4139 
     60 C          33.1856  -51.0802  -55.0026 C.2       2 UNK         0.5016 
     61 O          34.3254  -51.3221  -54.5979 O.2       2 UNK        -0.5319 
     62 CA         33.0241  -50.4905  -56.4144 C.3       2 UNK         0.0286 
     63 CB         31.5969  -50.5529  -56.9930 C.3       2 UNK        -0.1963 
     64 N          33.5526  -49.1237  -56.4629 N.am      2 UNK        -0.4790 
     65 C          33.1659  -48.0731  -55.7215 C.2       1 UNK         0.5024 
     66 O          32.2335  -48.0917  -54.9122 O.2       1 UNK        -0.4888 
     67 H67        36.9515  -47.0786  -53.1445 H         1 UNK         0.0892 
     68 H68        37.4164  -48.6839  -53.7161 H         1 UNK         0.0892 
     69 H69        38.2540  -47.2514  -54.3211 H         1 UNK         0.0892 
     70 H70        34.9319  -46.5922  -53.9873 H         1 UNK         0.3107 
     71 H71        34.4328  -46.7831  -56.8903 H         1 UNK         0.0773 
     72 H72        32.6750  -45.5274  -54.7259 H         1 UNK         0.0680 
     73 H73        33.9411  -44.6629  -55.5551 H         1 UNK         0.0680 
     74 H74        30.9348  -43.0533  -57.3816 H         1 UNK         0.0650 
     75 H75        32.4626  -42.7694  -56.5823 H         1 UNK         0.0650 
     76 H76        32.5377  -42.6068  -54.1728 H         1 UNK         0.1397 
     77 H77        29.0225  -43.4285  -51.8630 H         1 UNK         0.1363 
     78 H78        29.0871  -44.2508  -56.0788 H         1 UNK         0.1355 
     79 H79        27.4362  -45.1689  -53.0222 H         1 UNK         0.0707 
     80 H80        26.8092  -43.5944  -53.4278 H         1 UNK         0.0707 
     81 H81        25.2347  -43.2511  -55.7189 H         1 UNK         0.1034 
     82 H82        26.8907  -42.8132  -55.9884 H         1 UNK         0.1034 
     83 H83        25.5547  -42.8132  -58.0387 H         1 UNK         0.0482 
     84 H84        26.6267  -45.5375  -59.6243 H         1 UNK         0.3460 
     85 H85        28.2503  -44.9730  -59.9318 H         1 UNK         0.3460 
     86 H86        24.9514  -45.6359  -57.4571 H         1 UNK         0.2989 
     87 H87        22.3524  -45.8513  -58.4764 H         1 UNK         0.0559 
     88 H88        23.1020  -45.8661  -61.4483 H         1 UNK         0.0848 
     89 H89        21.7993  -44.9432  -60.7124 H         1 UNK         0.0848 
     90 H90        21.7148  -46.6951  -60.7437 H         1 UNK         0.0848 
     91 H91        23.3516  -47.8264  -58.4085 H         1 UNK         0.3144 
     92 H92        24.5925  -49.5413  -58.7243 H         1 UNK         0.0727 
     93 H93        25.7140  -50.9640  -60.4107 H         1 UNK         0.0790 
     94 H94        26.2028  -49.5429  -61.3349 H         1 UNK         0.0790 
     95 H95        24.5017  -49.9597  -61.1884 H         1 UNK         0.0790 
     96 H96        27.4110  -49.4309  -59.1817 H         1 UNK         0.3215 
     97 H97        28.6141  -49.6076  -57.0356 H         1 UNK         0.0863 
     98 H98        30.1722  -47.6339  -57.2775 H         1 UNK         0.0808 
     99 H99        28.7992  -46.5788  -57.5767 H         1 UNK         0.0808 
    100 H100       29.2093  -47.8419  -58.7307 H         1 UNK         0.0808 
    101 H101       27.6871  -47.3783  -55.3030 H         1 UNK         0.3118 
    102 H102       27.8039  -47.5257  -53.1672 H         1 UNK         0.0546 
    103 H103       28.9905  -49.9716  -51.7667 H         1 UNK         0.0828 
    104 H104       27.3430  -49.9408  -52.3855 H         1 UNK         0.0828 
    105 H105       27.8309  -48.8198  -51.1267 H         1 UNK         0.0828 
    106 H106       30.6357  -47.9066  -53.3713 H         1 UNK         0.3005 
    107 H107       31.7009  -45.7678  -52.5976 H         1 UNK         0.1257 
    108 H108       31.9208  -45.5483  -49.5875 H         1 UNK         0.0775 
    109 H109       30.6299  -44.6320  -50.2888 H         1 UNK         0.0775 
    110 H110       30.8761  -42.2407  -50.8417 H         1 UNK         0.0840 
    111 H111       32.1500  -41.5998  -51.8447 H         1 UNK         0.0840 
    112 H112       31.8627  -48.1907  -51.0309 H         1 UNK         0.2987 
    113 H113       35.3003  -48.7312  -51.8355 H         1 UNK         0.0785 
    114 H114       34.9637  -48.1940  -49.4397 H         1 UNK         0.0798 
    115 H115       35.0098  -49.9305  -49.6970 H         1 UNK         0.0798 
    116 H116       33.4729  -49.1198  -49.4077 H         1 UNK         0.0798 
    117 H117       34.2224  -50.3494  -52.8559 H         1 UNK         0.3079 
    118 H118       32.9192  -52.4223  -52.7178 H         1 UNK         0.0794 
    119 H119       29.9389  -51.7602  -52.7064 H         1 UNK         0.0786 
    120 H120       30.7663  -52.6555  -51.4381 H         1 UNK         0.0786 
    121 H121       30.6863  -53.3078  -53.0660 H         1 UNK         0.0786 
    122 H122       31.1953  -50.9229  -54.5961 H         1 UNK         0.3032 
    123 H123       33.6610  -51.0985  -57.0593 H         1 UNK         0.1094 
    124 H124       30.9384  -49.8320  -56.5172 H         1 UNK         0.0794 
    125 H125       31.6011  -50.3286  -58.0596 H         1 UNK         0.0794 
    126 H126       31.1563  -51.5437  -56.8747 H         1 UNK         0.0794 
    127 H127       34.3898  -49.0073  -57.0202 H         1 UNK         0.3016 
@<TRIPOS>BOND
     1    1    2 1    
     2    1   67 1    
     3    1   68 1    
     4    1   69 1    
     5    2    3 2    
     6    2    4 am   BACKBONE|DICT|INTERRES
     7    4    5 1    
     8    4   70 1    
     9    5    6 1    
    10    5   65 1    
    11    5   71 1    
    12    6    7 1    
    13    6   72 1    
    14    6   73 1    
    15    7    8 1    
    16    8    9 1    
    17    8   74 1    
    18    8   75 1    
    19    9   10 ar   
    20    9   14 ar   
    21   10   11 ar   
    22   10   76 1    
    23   11   12 ar   
    24   11   48 1    
    25   12   13 ar   
    26   12   77 1    
    27   13   14 ar   
    28   13   15 1    
    29   14   78 1    
    30   15   16 1    
    31   15   79 1    
    32   15   80 1    
    33   16   17 1    
    34   17   18 1    
    35   17   81 1    
    36   17   82 1    
    37   18   19 1    
    38   18   22 1    
    39   18   83 1    
    40   19   20 am   BACKBONE|DICT|INTERRES
    41   19   21 2    
    42   20   84 1    
    43   20   85 1    
    44   22   23 am   BACKBONE|DICT|INTERRES
    45   22   86 1    
    46   23   24 2    
    47   23   25 1    
    48   25   26 1    
    49   25   27 1    
    50   25   87 1    
    51   26   88 1    
    52   26   89 1    
    53   26   90 1    
    54   27   28 am   BACKBONE|DICT|INTERRES
    55   27   91 1    
    56   28   29 2    
    57   28   30 1    
    58   30   31 1    
    59   30   32 1    
    60   30   92 1    
    61   31   93 1    
    62   31   94 1    
    63   31   95 1    
    64   32   33 am   BACKBONE|DICT|INTERRES
    65   32   96 1    
    66   33   34 2    
    67   33   35 1    
    68   35   36 1    
    69   35   37 1    
    70   35   97 1    
    71   36   98 1    
    72   36   99 1    
    73   36  100 1    
    74   37   38 am   BACKBONE|DICT|INTERRES
    75   37  101 1    
    76   38   39 2    
    77   38   40 1    
    78   40   41 1    
    79   40   42 1    
    80   40  102 1    
    81   41  103 1    
    82   41  104 1    
    83   41  105 1    
    84   42   43 am   BACKBONE|DICT|INTERRES
    85   42  106 1    
    86   43   44 2    
    87   43   45 1    
    88   45   46 1    
    89   45   49 1    
    90   45  107 1    
    91   46   47 1    
    92   46  108 1    
    93   46  109 1    
    94   47   48 1    
    95   48  110 1    
    96   48  111 1    
    97   49   50 am   BACKBONE|DICT|INTERRES
    98   49  112 1    
    99   50   51 2    
   100   50   52 1    
   101   52   53 1    
   102   52   54 1    
   103   52  113 1    
   104   53  114 1    
   105   53  115 1    
   106   53  116 1    
   107   54   55 am   BACKBONE|DICT|INTERRES
   108   54  117 1    
   109   55   56 2    
   110   55   57 1    
   111   57   58 1    
   112   57   59 1    
   113   57  118 1    
   114   58  119 1    
   115   58  120 1    
   116   58  121 1    
   117   59   60 am   BACKBONE|DICT|INTERRES
   118   59  122 1    
   119   60   61 2    
   120   60   62 1    
   121   62   63 1    
   122   62   64 1    
   123   62  123 1    
   124   63  124 1    
   125   63  125 1    
   126   63  126 1    
   127   64   65 am   BACKBONE|DICT|INTERRES
   128   64  127 1    
   129   65   66 2    
@<TRIPOS>SUBSTRUCTURE
     1 UNK         1 GROUP             0       ****    0 ROOT    
