@<TRIPOS>MOLECULE
3R134
127   129    1
SMALL
USER_CHARGES


@<TRIPOS>ATOM
      1 CA         31.2565  -46.1653  -54.9826 C.3       0 UNK        -0.1968 
      2 C          32.7523  -45.9035  -54.9472 C.2       0 UNK         0.4852 
      3 O          33.4079  -45.9962  -55.9868 O.2       0 UNK        -0.5359 
      4 N          33.2863  -45.5874  -53.7584 N.am      1 UNK        -0.4300 
      5 CA         34.6842  -45.2558  -53.4560 C.3       1 UNK         0.0863 
      6 C6         35.1625  -43.9346  -54.1233 C.3       11 UNK        -0.0953 
      7 S7         34.6466  -42.4534  -53.1895 S.3       11 UNK        -0.2369 
      8 C8         33.1140  -41.9236  -54.0366 C.3       11 UNK         0.0226 
      9 C9         31.8148  -42.5621  -53.5353 C.ar      11 UNK        -0.0699 
     10 C10        31.7237  -43.2359  -52.3087 C.ar      11 UNK        -0.0804 
     11 C11        30.5216  -43.8198  -51.8990 C.ar      11 UNK        -0.0871 
     12 C12        29.3862  -43.6899  -52.7008 C.ar      11 UNK        -0.1008 
     13 C13        29.4521  -43.0040  -53.9155 C.ar      11 UNK        -0.0735 
     14 C14        30.6665  -42.4457  -54.3268 C.ar      11 UNK        -0.0945 
     15 C15        28.2056  -42.8794  -54.7768 C.3       11 UNK         0.0169 
     16 S16        28.0988  -44.2465  -55.9710 S.3       11 UNK        -0.2669 
     17 C17        28.9312  -43.5376  -57.4351 C.3       11 UNK        -0.0850 
     18 CA         27.9410  -43.3441  -58.6143 C.3       10 UNK         0.0855 
     19 C          28.5849  -42.5278  -59.7726 C.2       10 UNK         0.5543 
     20 N          28.6554  -43.0428  -60.9942 N.am      10 UNK        -0.7343 
     21 O          29.0207  -41.3992  -59.5592 O.2       10 UNK        -0.5027 
     22 N          27.3611  -44.6318  -59.0290 N.am      10 UNK        -0.4495 
     23 C          26.1448  -44.8093  -59.5587 C.2       10 UNK         0.4903 
     24 O          25.3547  -43.8921  -59.7836 O.2       10 UNK        -0.4860 
     25 CA         25.7378  -46.2545  -59.9111 C.3       9 UNK         0.0227 
     26 CB         25.6819  -46.4394  -61.4371 C.3       9 UNK        -0.1964 
     27 N          26.6382  -47.2639  -59.3407 N.am      9 UNK        -0.4231 
     28 C          26.6048  -47.6899  -58.0706 C.2       9 UNK         0.5014 
     29 O          25.7681  -47.3269  -57.2408 O.2       9 UNK        -0.5270 
     30 CA         27.7454  -48.6365  -57.6574 C.3       8 UNK         0.0284 
     31 CB         28.9245  -47.8317  -57.0897 C.3       8 UNK        -0.1977 
     32 N          27.3424  -49.6293  -56.6625 N.am      8 UNK        -0.4342 
     33 C          26.4409  -50.6004  -56.8569 C.2       8 UNK         0.5039 
     34 O          25.8260  -50.7682  -57.9115 O.2       8 UNK        -0.5547 
     35 CA         26.2102  -51.5765  -55.6947 C.3       7 UNK         0.0281 
     36 CB         27.2232  -52.7305  -55.7721 C.3       7 UNK        -0.1963 
     37 N          26.3253  -50.9214  -54.3887 N.am      7 UNK        -0.4444 
     38 C          25.2815  -50.5103  -53.6554 C.2       7 UNK         0.5104 
     39 O          24.1088  -50.6115  -54.0181 O.2       7 UNK        -0.5100 
     40 CA         25.5764  -49.9164  -52.2648 C.3       6 UNK         0.0396 
     41 CB         25.3604  -50.9815  -51.1773 C.3       6 UNK        -0.1801 
     42 N          26.9296  -49.3724  -52.1341 N.am      6 UNK        -0.4747 
     43 C          27.3201  -48.1836  -52.6157 C.2       6 UNK         0.5012 
     44 O          26.5661  -47.3999  -53.1911 O.2       6 UNK        -0.5003 
     45 CA         28.8052  -47.8067  -52.4274 C.3       5 UNK         0.0782 
     46 C46        28.9776  -46.9638  -51.1385 C.3       11 UNK        -0.0868 
     47 S47        30.6913  -46.3829  -50.8757 S.3       11 UNK        -0.2515 
     48 C48        30.4585  -44.5974  -50.5941 C.3       11 UNK         0.0199 
     49 N          29.7194  -48.9593  -52.4446 N.am      5 UNK        -0.4607 
     50 C          29.8456  -49.8532  -53.4324 C.2       4 UNK         0.5031 
     51 O          29.1200  -49.8884  -54.4284 O.2       4 UNK        -0.5119 
     52 CA         30.9608  -50.8984  -53.2790 C.3       4 UNK         0.0263 
     53 CB         30.3771  -52.3159  -53.1664 C.3       4 UNK        -0.1967 
     54 N          31.8743  -50.8277  -54.4204 N.am      4 UNK        -0.4237 
     55 C          32.7476  -49.8298  -54.6060 C.2       3 UNK         0.4908 
     56 O          32.9417  -48.9401  -53.7747 O.2       3 UNK        -0.5102 
     57 CA         33.4984  -49.8118  -55.9482 C.3       3 UNK         0.0241 
     58 CB         32.5447  -49.4685  -57.1060 C.3       3 UNK        -0.1971 
     59 N          34.5593  -48.8061  -55.9175 N.am      3 UNK        -0.4139 
     60 C          35.8440  -49.0420  -55.6236 C.2       2 UNK         0.5016 
     61 O          36.3199  -50.1670  -55.4642 O.2       2 UNK        -0.5319 
     62 CA         36.7546  -47.8092  -55.4730 C.3       2 UNK         0.0286 
     63 CB         37.4370  -47.4734  -56.8087 C.3       2 UNK        -0.1963 
     64 N          36.0175  -46.6348  -54.9989 N.am      2 UNK        -0.4790 
     65 C          35.6187  -46.4522  -53.7329 C.2       1 UNK         0.5024 
     66 O          35.9531  -47.1863  -52.8018 O.2       1 UNK        -0.4888 
     67 H67        31.0603  -47.2359  -55.0096 H         1 UNK         0.0892 
     68 H68        30.7589  -45.7467  -54.1102 H         1 UNK         0.0892 
     69 H69        30.8169  -45.7095  -55.8685 H         1 UNK         0.0892 
     70 H70        32.6744  -45.5810  -52.9543 H         1 UNK         0.3107 
     71 H71        34.7223  -45.1119  -52.3747 H         1 UNK         0.0773 
     72 H72        36.2531  -43.8957  -54.1568 H         1 UNK         0.0680 
     73 H73        34.8339  -43.8586  -55.1605 H         1 UNK         0.0680 
     74 H74        33.2227  -42.0985  -55.1079 H         1 UNK         0.0650 
     75 H75        33.0226  -40.8440  -53.9118 H         1 UNK         0.0650 
     76 H76        32.5901  -43.3280  -51.6701 H         1 UNK         0.1397 
     77 H77        28.4505  -44.1318  -52.3881 H         1 UNK         0.1363 
     78 H78        30.7190  -41.9167  -55.2681 H         1 UNK         0.1355 
     79 H79        28.1818  -41.9160  -55.2882 H         1 UNK         0.0707 
     80 H80        27.3165  -42.9034  -54.1448 H         1 UNK         0.0707 
     81 H81        29.3975  -42.5893  -57.1644 H         1 UNK         0.1034 
     82 H82        29.7500  -44.1979  -57.7257 H         1 UNK         0.1034 
     83 H83        27.1254  -42.7181  -58.2467 H         1 UNK         0.0482 
     84 H84        28.2914  -43.9626  -61.1814 H         1 UNK         0.3460 
     85 H85        29.0703  -42.5013  -61.7362 H         1 UNK         0.3460 
     86 H86        27.9375  -45.4437  -58.8764 H         1 UNK         0.2989 
     87 H87        24.7336  -46.4162  -59.5133 H         1 UNK         0.0559 
     88 H88        26.6575  -46.2901  -61.9013 H         1 UNK         0.0848 
     89 H89        24.9931  -45.7262  -61.8924 H         1 UNK         0.0848 
     90 H90        25.3317  -47.4369  -61.7036 H         1 UNK         0.0848 
     91 H91        27.3550  -47.6256  -59.9545 H         1 UNK         0.3144 
     92 H92        28.0877  -49.1811  -58.5399 H         1 UNK         0.0727 
     93 H93        29.3065  -47.1133  -57.8154 H         1 UNK         0.0790 
     94 H94        29.7496  -48.4874  -56.8157 H         1 UNK         0.0790 
     95 H95        28.6324  -47.2762  -56.1971 H         1 UNK         0.0790 
     96 H96        27.8407  -49.6028  -55.7770 H         1 UNK         0.3215 
     97 H97        25.2110  -52.0022  -55.8112 H         1 UNK         0.0863 
     98 H98        28.2504  -52.3663  -55.7495 H         1 UNK         0.0808 
     99 H99        27.1003  -53.2920  -56.6992 H         1 UNK         0.0808 
    100 H100       27.0937  -53.4324  -54.9482 H         1 UNK         0.0808 
    101 H101       27.2624  -50.7359  -54.0515 H         1 UNK         0.3118 
    102 H102       24.8591  -49.1107  -52.0931 H         1 UNK         0.0546 
    103 H103       26.0509  -51.8186  -51.2870 H         1 UNK         0.0828 
    104 H104       24.3486  -51.3868  -51.2238 H         1 UNK         0.0828 
    105 H105       25.4932  -50.5635  -50.1793 H         1 UNK         0.0828 
    106 H106       27.6141  -49.9476  -51.6640 H         1 UNK         0.3005 
    107 H107       29.0651  -47.1809  -53.2826 H         1 UNK         0.1257 
    108 H108       28.6899  -47.5478  -50.2621 H         1 UNK         0.0775 
    109 H109       28.3031  -46.1066  -51.1565 H         1 UNK         0.0775 
    110 H110       29.5152  -44.4092  -50.0791 H         1 UNK         0.0840 
    111 H111       31.2398  -44.2496  -49.9164 H         1 UNK         0.0840 
    112 H112       30.3740  -48.9958  -51.6760 H         1 UNK         0.2987 
    113 H113       31.5246  -50.6918  -52.3664 H         1 UNK         0.0785 
    114 H114       29.6732  -52.3852  -52.3360 H         1 UNK         0.0798 
    115 H115       31.1611  -53.0517  -52.9869 H         1 UNK         0.0798 
    116 H116       29.8455  -52.6110  -54.0704 H         1 UNK         0.0798 
    117 H117       31.7366  -51.5064  -55.1552 H         1 UNK         0.3079 
    118 H118       33.9216  -50.8039  -56.1190 H         1 UNK         0.0794 
    119 H119       31.7110  -50.1694  -57.1634 H         1 UNK         0.0786 
    120 H120       33.0628  -49.5077  -58.0643 H         1 UNK         0.0786 
    121 H121       32.1275  -48.4669  -56.9989 H         1 UNK         0.0786 
    122 H122       34.2522  -47.8393  -55.9638 H         1 UNK         0.3032 
    123 H123       37.5292  -48.0577  -54.7435 H         1 UNK         0.1094 
    124 H124       38.0106  -48.3249  -57.1776 H         1 UNK         0.0794 
    125 H125       36.7111  -47.2103  -57.5793 H         1 UNK         0.0794 
    126 H126       38.1304  -46.6391  -56.7009 H         1 UNK         0.0794 
    127 H127       35.6194  -46.0253  -55.7030 H         1 UNK         0.3016 
@<TRIPOS>BOND
     1    1    2 1    
     2    1   67 1    
     3    1   68 1    
     4    1   69 1    
     5    2    3 2    
     6    2    4 am   BACKBONE|DICT|INTERRES
     7    4    5 1    
     8    4   70 1    
     9    5    6 1    
    10    5   65 1    
    11    5   71 1    
    12    6    7 1    
    13    6   72 1    
    14    6   73 1    
    15    7    8 1    
    16    8    9 1    
    17    8   74 1    
    18    8   75 1    
    19    9   10 ar   
    20    9   14 ar   
    21   10   11 ar   
    22   10   76 1    
    23   11   12 ar   
    24   11   48 1    
    25   12   13 ar   
    26   12   77 1    
    27   13   14 ar   
    28   13   15 1    
    29   14   78 1    
    30   15   16 1    
    31   15   79 1    
    32   15   80 1    
    33   16   17 1    
    34   17   18 1    
    35   17   81 1    
    36   17   82 1    
    37   18   19 1    
    38   18   22 1    
    39   18   83 1    
    40   19   20 am   BACKBONE|DICT|INTERRES
    41   19   21 2    
    42   20   84 1    
    43   20   85 1    
    44   22   23 am   BACKBONE|DICT|INTERRES
    45   22   86 1    
    46   23   24 2    
    47   23   25 1    
    48   25   26 1    
    49   25   27 1    
    50   25   87 1    
    51   26   88 1    
    52   26   89 1    
    53   26   90 1    
    54   27   28 am   BACKBONE|DICT|INTERRES
    55   27   91 1    
    56   28   29 2    
    57   28   30 1    
    58   30   31 1    
    59   30   32 1    
    60   30   92 1    
    61   31   93 1    
    62   31   94 1    
    63   31   95 1    
    64   32   33 am   BACKBONE|DICT|INTERRES
    65   32   96 1    
    66   33   34 2    
    67   33   35 1    
    68   35   36 1    
    69   35   37 1    
    70   35   97 1    
    71   36   98 1    
    72   36   99 1    
    73   36  100 1    
    74   37   38 am   BACKBONE|DICT|INTERRES
    75   37  101 1    
    76   38   39 2    
    77   38   40 1    
    78   40   41 1    
    79   40   42 1    
    80   40  102 1    
    81   41  103 1    
    82   41  104 1    
    83   41  105 1    
    84   42   43 am   BACKBONE|DICT|INTERRES
    85   42  106 1    
    86   43   44 2    
    87   43   45 1    
    88   45   46 1    
    89   45   49 1    
    90   45  107 1    
    91   46   47 1    
    92   46  108 1    
    93   46  109 1    
    94   47   48 1    
    95   48  110 1    
    96   48  111 1    
    97   49   50 am   BACKBONE|DICT|INTERRES
    98   49  112 1    
    99   50   51 2    
   100   50   52 1    
   101   52   53 1    
   102   52   54 1    
   103   52  113 1    
   104   53  114 1    
   105   53  115 1    
   106   53  116 1    
   107   54   55 am   BACKBONE|DICT|INTERRES
   108   54  117 1    
   109   55   56 2    
   110   55   57 1    
   111   57   58 1    
   112   57   59 1    
   113   57  118 1    
   114   58  119 1    
   115   58  120 1    
   116   58  121 1    
   117   59   60 am   BACKBONE|DICT|INTERRES
   118   59  122 1    
   119   60   61 2    
   120   60   62 1    
   121   62   63 1    
   122   62   64 1    
   123   62  123 1    
   124   63  124 1    
   125   63  125 1    
   126   63  126 1    
   127   64   65 am   BACKBONE|DICT|INTERRES
   128   64  127 1    
   129   65   66 2    
@<TRIPOS>SUBSTRUCTURE
     1 UNK         1 GROUP             0       ****    0 ROOT    
