@<TRIPOS>MOLECULE
3R134
127   129    1
SMALL
USER_CHARGES


@<TRIPOS>ATOM
      1 CA         31.1640  -47.7008  -48.4163 C.3       0 UNK        -0.1968 
      2 C          32.1247  -47.2189  -49.4929 C.2       0 UNK         0.4852 
      3 O          31.9628  -47.5934  -50.6532 O.2       0 UNK        -0.5359 
      4 N          33.1163  -46.4017  -49.1072 N.am      1 UNK        -0.4300 
      5 CA         34.1691  -45.7958  -49.9356 C.3       1 UNK         0.0863 
      6 C6         33.7638  -44.4281  -50.5685 C.3       11 UNK        -0.0953 
      7 S7         32.3940  -44.4441  -51.7812 S.3       11 UNK        -0.2369 
      8 C8         32.7702  -42.9537  -52.7531 C.3       11 UNK         0.0226 
      9 C9         32.1149  -43.0030  -54.1248 C.ar      11 UNK        -0.0699 
     10 C10        32.7579  -43.6647  -55.1738 C.ar      11 UNK        -0.0804 
     11 C11        32.1941  -43.6952  -56.4519 C.ar      11 UNK        -0.0871 
     12 C12        30.9754  -43.0499  -56.6797 C.ar      11 UNK        -0.1008 
     13 C13        30.3269  -42.3713  -55.6413 C.ar      11 UNK        -0.0735 
     14 C14        30.8964  -42.3591  -54.3630 C.ar      11 UNK        -0.0945 
     15 C15        29.0425  -41.6003  -55.9188 C.3       11 UNK         0.0169 
     16 S16        27.5541  -42.4037  -55.2425 S.3       11 UNK        -0.2669 
     17 C17        27.5274  -44.0136  -56.0995 C.3       11 UNK        -0.0850 
     18 CA         26.5939  -44.0652  -57.3426 C.3       10 UNK         0.0855 
     19 C          27.3745  -43.9088  -58.6836 C.2       10 UNK         0.5543 
     20 N          27.3624  -44.8820  -59.5878 N.am      10 UNK        -0.7343 
     21 O          27.9873  -42.8727  -58.9229 O.2       10 UNK        -0.5027 
     22 N          25.7261  -45.2531  -57.2982 N.am      10 UNK        -0.4495 
     23 C          24.5202  -45.3297  -57.8734 C.2       10 UNK         0.4903 
     24 O          23.9725  -44.3748  -58.4278 O.2       10 UNK        -0.4860 
     25 CA         23.7906  -46.6886  -57.8099 C.3       9 UNK         0.0227 
     26 CB         22.7774  -46.8602  -58.9618 C.3       9 UNK        -0.1964 
     27 N          24.6655  -47.8666  -57.7361 N.am      9 UNK        -0.4231 
     28 C          25.6269  -48.2397  -58.5920 C.2       9 UNK         0.5014 
     29 O          26.0108  -47.5447  -59.5353 O.2       9 UNK        -0.5270 
     30 CA         26.2438  -49.6351  -58.3538 C.3       8 UNK         0.0284 
     31 CB         27.3182  -49.9940  -59.3959 C.3       8 UNK        -0.1977 
     32 N          26.7990  -49.8030  -57.0054 N.am      8 UNK        -0.4342 
     33 C          26.0781  -49.9807  -55.8888 C.2       8 UNK         0.5039 
     34 O          24.8458  -50.0009  -55.8731 O.2       8 UNK        -0.5547 
     35 CA         26.8470  -50.1377  -54.5684 C.3       7 UNK         0.0281 
     36 CB         27.3725  -51.5739  -54.4163 C.3       7 UNK        -0.1963 
     37 N          27.9537  -49.1881  -54.4513 N.am      7 UNK        -0.4444 
     38 C          27.8036  -47.8674  -54.2710 C.2       7 UNK         0.5104 
     39 O          26.7153  -47.3123  -54.1168 O.2       7 UNK        -0.5100 
     40 CA         29.0843  -47.0148  -54.3144 C.3       6 UNK         0.0396 
     41 CB         29.8783  -47.1405  -53.0087 C.3       6 UNK        -0.1801 
     42 N          29.9404  -47.3465  -55.4545 N.am      6 UNK        -0.4747 
     43 C          29.5734  -47.2491  -56.7418 C.2       6 UNK         0.5012 
     44 O          28.4779  -46.8308  -57.1122 O.2       6 UNK        -0.5003 
     45 CA         30.5686  -47.7641  -57.7976 C.3       5 UNK         0.0782 
     46 C46        31.4213  -46.6265  -58.4154 C.3       11 UNK        -0.0868 
     47 S47        32.9038  -46.1875  -57.4462 S.3       11 UNK        -0.2515 
     48 C48        32.9420  -44.3745  -57.5893 C.3       11 UNK         0.0199 
     49 N          31.3738  -48.8887  -57.3064 N.am      5 UNK        -0.4607 
     50 C          30.8803  -50.0948  -57.0005 C.2       4 UNK         0.5031 
     51 O          29.6946  -50.4014  -57.1320 O.2       4 UNK        -0.5119 
     52 CA         31.8722  -51.1086  -56.4101 C.3       4 UNK         0.0263 
     53 CB         33.0410  -51.3878  -57.3710 C.3       4 UNK        -0.1967 
     54 N          32.3941  -50.7023  -55.1013 N.am      4 UNK        -0.4237 
     55 C          31.6605  -50.5194  -53.9961 C.2       3 UNK         0.4908 
     56 O          30.4327  -50.5825  -53.9747 O.2       3 UNK        -0.5102 
     57 CA         32.4067  -50.2271  -52.6840 C.3       3 UNK         0.0241 
     58 CB         33.1446  -51.4760  -52.1625 C.3       3 UNK        -0.1971 
     59 N          33.2841  -49.0508  -52.7235 N.am      3 UNK        -0.4139 
     60 C          34.4143  -48.8683  -53.4226 C.2       2 UNK         0.5016 
     61 O          34.8754  -49.7060  -54.2005 O.2       2 UNK        -0.5319 
     62 CA         35.1572  -47.5275  -53.2575 C.3       2 UNK         0.0286 
     63 CB         35.1302  -46.7386  -54.5741 C.3       2 UNK        -0.1963 
     64 N          34.6207  -46.6694  -52.1979 N.am      2 UNK        -0.4790 
     65 C          34.8567  -46.8050  -50.8878 C.2       1 UNK         0.5024 
     66 O          35.5823  -47.6820  -50.4155 O.2       1 UNK        -0.4888 
     67 H67        30.1468  -47.3975  -48.6624 H         1 UNK         0.0892 
     68 H68        31.1894  -48.7883  -48.3527 H         1 UNK         0.0892 
     69 H69        31.4111  -47.2964  -47.4350 H         1 UNK         0.0892 
     70 H70        33.1823  -46.1735  -48.1253 H         1 UNK         0.3107 
     71 H71        34.9531  -45.5516  -49.2166 H         1 UNK         0.0773 
     72 H72        34.6434  -43.9772  -51.0309 H         1 UNK         0.0680 
     73 H73        33.4766  -43.7398  -49.7723 H         1 UNK         0.0680 
     74 H74        33.8491  -42.8517  -52.8788 H         1 UNK         0.0650 
     75 H75        32.4408  -42.0728  -52.2000 H         1 UNK         0.0650 
     76 H76        33.7097  -44.1455  -54.9985 H         1 UNK         0.1397 
     77 H77        30.5419  -43.0533  -57.6710 H         1 UNK         0.1363 
     78 H78        30.3994  -41.8318  -53.5601 H         1 UNK         0.1355 
     79 H79        28.9122  -41.4374  -56.9884 H         1 UNK         0.0707 
     80 H80        29.1259  -40.6058  -55.4783 H         1 UNK         0.0707 
     81 H81        27.1763  -44.7241  -55.3508 H         1 UNK         0.1034 
     82 H82        28.5411  -44.3364  -56.3363 H         1 UNK         0.1034 
     83 H83        25.9346  -43.1965  -57.2940 H         1 UNK         0.0482 
     84 H84        26.8695  -45.7522  -59.4124 H         1 UNK         0.3460 
     85 H85        27.8612  -44.7557  -60.4529 H         1 UNK         0.3460 
     86 H86        26.1459  -46.0934  -56.9233 H         1 UNK         0.2989 
     87 H87        23.2274  -46.6786  -56.8759 H         1 UNK         0.0559 
     88 H88        23.2679  -46.8287  -59.9355 H         1 UNK         0.0848 
     89 H89        22.0263  -46.0694  -58.9495 H         1 UNK         0.0848 
     90 H90        22.2446  -47.8079  -58.8852 H         1 UNK         0.0848 
     91 H91        24.4769  -48.5154  -56.9733 H         1 UNK         0.3144 
     92 H92        25.4322  -50.3561  -58.4729 H         1 UNK         0.0727 
     93 H93        27.7188  -50.9939  -59.2280 H         1 UNK         0.0790 
     94 H94        28.1493  -49.2915  -59.3734 H         1 UNK         0.0790 
     95 H95        26.9049  -49.9755  -60.4051 H         1 UNK         0.0790 
     96 H96        27.8132  -49.8237  -56.9347 H         1 UNK         0.3215 
     97 H97        26.1478  -49.9447  -53.7518 H         1 UNK         0.0863 
     98 H98        27.8468  -51.7202  -53.4457 H         1 UNK         0.0808 
     99 H99        28.1066  -51.8192  -55.1852 H         1 UNK         0.0808 
    100 H100       26.5608  -52.2985  -54.4939 H         1 UNK         0.0808 
    101 H101       28.8922  -49.5757  -54.5183 H         1 UNK         0.3118 
    102 H102       28.7996  -45.9684  -54.4174 H         1 UNK         0.0546 
    103 H103       30.1382  -48.1732  -52.7820 H         1 UNK         0.0828 
    104 H104       29.3012  -46.7627  -52.1641 H         1 UNK         0.0828 
    105 H105       30.8023  -46.5654  -53.0494 H         1 UNK         0.0828 
    106 H106       30.8571  -47.7145  -55.2501 H         1 UNK         0.3005 
    107 H107       29.9497  -48.1544  -58.6068 H         1 UNK         0.1257 
    108 H108       31.7697  -46.9393  -59.4008 H         1 UNK         0.0775 
    109 H109       30.8108  -45.7385  -58.5937 H         1 UNK         0.0775 
    110 H110       33.9833  -44.0495  -57.5691 H         1 UNK         0.0840 
    111 H111       32.5526  -44.0651  -58.5605 H         1 UNK         0.0840 
    112 H112       32.3554  -48.6998  -57.1623 H         1 UNK         0.2987 
    113 H113       31.3267  -52.0439  -56.2675 H         1 UNK         0.0785 
    114 H114       33.6526  -52.2168  -57.0144 H         1 UNK         0.0798 
    115 H115       33.6935  -50.5217  -57.4874 H         1 UNK         0.0798 
    116 H116       32.6764  -51.6602  -58.3625 H         1 UNK         0.0798 
    117 H117       33.3989  -50.5673  -55.0122 H         1 UNK         0.3079 
    118 H118       31.6413  -49.9850  -51.9451 H         1 UNK         0.0794 
    119 H119       32.4559  -52.3144  -52.0502 H         1 UNK         0.0786 
    120 H120       33.5901  -51.2900  -51.1851 H         1 UNK         0.0786 
    121 H121       33.9389  -51.7989  -52.8358 H         1 UNK         0.0786 
    122 H122       32.9819  -48.2983  -52.1068 H         1 UNK         0.3032 
    123 H123       36.1964  -47.7671  -53.0210 H         1 UNK         0.1094 
    124 H124       34.1100  -46.4703  -54.8450 H         1 UNK         0.0794 
    125 H125       35.7149  -45.8214  -54.5031 H         1 UNK         0.0794 
    126 H126       35.5443  -47.3233  -55.3969 H         1 UNK         0.0794 
    127 H127       33.9668  -45.9475  -52.4752 H         1 UNK         0.3016 
@<TRIPOS>BOND
     1    1    2 1    
     2    1   67 1    
     3    1   68 1    
     4    1   69 1    
     5    2    3 2    
     6    2    4 am   BACKBONE|DICT|INTERRES
     7    4    5 1    
     8    4   70 1    
     9    5    6 1    
    10    5   65 1    
    11    5   71 1    
    12    6    7 1    
    13    6   72 1    
    14    6   73 1    
    15    7    8 1    
    16    8    9 1    
    17    8   74 1    
    18    8   75 1    
    19    9   10 ar   
    20    9   14 ar   
    21   10   11 ar   
    22   10   76 1    
    23   11   12 ar   
    24   11   48 1    
    25   12   13 ar   
    26   12   77 1    
    27   13   14 ar   
    28   13   15 1    
    29   14   78 1    
    30   15   16 1    
    31   15   79 1    
    32   15   80 1    
    33   16   17 1    
    34   17   18 1    
    35   17   81 1    
    36   17   82 1    
    37   18   19 1    
    38   18   22 1    
    39   18   83 1    
    40   19   20 am   BACKBONE|DICT|INTERRES
    41   19   21 2    
    42   20   84 1    
    43   20   85 1    
    44   22   23 am   BACKBONE|DICT|INTERRES
    45   22   86 1    
    46   23   24 2    
    47   23   25 1    
    48   25   26 1    
    49   25   27 1    
    50   25   87 1    
    51   26   88 1    
    52   26   89 1    
    53   26   90 1    
    54   27   28 am   BACKBONE|DICT|INTERRES
    55   27   91 1    
    56   28   29 2    
    57   28   30 1    
    58   30   31 1    
    59   30   32 1    
    60   30   92 1    
    61   31   93 1    
    62   31   94 1    
    63   31   95 1    
    64   32   33 am   BACKBONE|DICT|INTERRES
    65   32   96 1    
    66   33   34 2    
    67   33   35 1    
    68   35   36 1    
    69   35   37 1    
    70   35   97 1    
    71   36   98 1    
    72   36   99 1    
    73   36  100 1    
    74   37   38 am   BACKBONE|DICT|INTERRES
    75   37  101 1    
    76   38   39 2    
    77   38   40 1    
    78   40   41 1    
    79   40   42 1    
    80   40  102 1    
    81   41  103 1    
    82   41  104 1    
    83   41  105 1    
    84   42   43 am   BACKBONE|DICT|INTERRES
    85   42  106 1    
    86   43   44 2    
    87   43   45 1    
    88   45   46 1    
    89   45   49 1    
    90   45  107 1    
    91   46   47 1    
    92   46  108 1    
    93   46  109 1    
    94   47   48 1    
    95   48  110 1    
    96   48  111 1    
    97   49   50 am   BACKBONE|DICT|INTERRES
    98   49  112 1    
    99   50   51 2    
   100   50   52 1    
   101   52   53 1    
   102   52   54 1    
   103   52  113 1    
   104   53  114 1    
   105   53  115 1    
   106   53  116 1    
   107   54   55 am   BACKBONE|DICT|INTERRES
   108   54  117 1    
   109   55   56 2    
   110   55   57 1    
   111   57   58 1    
   112   57   59 1    
   113   57  118 1    
   114   58  119 1    
   115   58  120 1    
   116   58  121 1    
   117   59   60 am   BACKBONE|DICT|INTERRES
   118   59  122 1    
   119   60   61 2    
   120   60   62 1    
   121   62   63 1    
   122   62   64 1    
   123   62  123 1    
   124   63  124 1    
   125   63  125 1    
   126   63  126 1    
   127   64   65 am   BACKBONE|DICT|INTERRES
   128   64  127 1    
   129   65   66 2    
@<TRIPOS>SUBSTRUCTURE
     1 UNK         1 GROUP             0       ****    0 ROOT    
