@<TRIPOS>MOLECULE
3R134
127   129    1
SMALL
USER_CHARGES


@<TRIPOS>ATOM
      1 CA         36.9335  -44.2617  -50.9593 C.3       0 UNK        -0.1968 
      2 C          36.4096  -45.3607  -51.8715 C.2       0 UNK         0.4852 
      3 O          37.1504  -46.2887  -52.2027 O.2       0 UNK        -0.5359 
      4 N          35.1346  -45.2748  -52.2730 N.am      1 UNK        -0.4300 
      5 CA         34.4517  -46.2235  -53.1624 C.3       1 UNK         0.0863 
      6 C6         33.2706  -45.5624  -53.9147 C.3       11 UNK        -0.0953 
      7 S7         33.7712  -44.1123  -54.9024 S.3       11 UNK        -0.2369 
      8 C8         32.8679  -42.7640  -54.0726 C.3       11 UNK         0.0226 
      9 C9         31.3650  -42.8834  -54.2824 C.ar      11 UNK        -0.0699 
     10 C10        30.5361  -43.3301  -53.2475 C.ar      11 UNK        -0.0804 
     11 C11        29.1633  -43.4865  -53.4570 C.ar      11 UNK        -0.0871 
     12 C12        28.6212  -43.1755  -54.7081 C.ar      11 UNK        -0.1008 
     13 C13        29.4322  -42.6925  -55.7409 C.ar      11 UNK        -0.0735 
     14 C14        30.8055  -42.5539  -55.5208 C.ar      11 UNK        -0.0945 
     15 C15        28.8380  -42.3567  -57.1044 C.3       11 UNK         0.0169 
     16 S16        27.3607  -41.2959  -56.9792 S.3       11 UNK        -0.2669 
     17 C17        26.7372  -41.3172  -58.6927 C.3       11 UNK        -0.0850 
     18 CA         25.5745  -42.3302  -58.9026 C.3       10 UNK         0.0855 
     19 C          24.6867  -41.9133  -60.1031 C.2       10 UNK         0.5543 
     20 N          23.7215  -41.0322  -59.8818 N.am      10 UNK        -0.7343 
     21 O          24.8827  -42.3547  -61.2350 O.2       10 UNK        -0.5027 
     22 N          26.0703  -43.6946  -59.1193 N.am      10 UNK        -0.4495 
     23 C          26.1830  -44.6603  -58.2033 C.2       10 UNK         0.4903 
     24 O          25.9044  -44.5183  -57.0103 O.2       10 UNK        -0.4860 
     25 CA         26.7335  -45.9999  -58.7294 C.3       9 UNK         0.0227 
     26 CB         28.1877  -45.8492  -59.2112 C.3       9 UNK        -0.1964 
     27 N          26.6867  -47.0495  -57.7119 N.am      9 UNK        -0.4231 
     28 C          25.5874  -47.7249  -57.3564 C.2       9 UNK         0.5014 
     29 O          24.4945  -47.5930  -57.9139 O.2       9 UNK        -0.5270 
     30 CA         25.7444  -48.7103  -56.1801 C.3       8 UNK         0.0284 
     31 CB         24.4525  -49.4969  -55.8719 C.3       8 UNK        -0.1977 
     32 N          26.8780  -49.6296  -56.3357 N.am      8 UNK        -0.4342 
     33 C          27.1091  -50.4896  -57.3392 C.2       8 UNK         0.5039 
     34 O          26.3663  -50.6366  -58.3123 O.2       8 UNK        -0.5547 
     35 CA         28.3967  -51.3306  -57.2167 C.3       7 UNK         0.0281 
     36 CB         28.6219  -52.2811  -58.4122 C.3       7 UNK        -0.1963 
     37 N          29.5824  -50.5007  -56.9788 N.am      7 UNK        -0.4444 
     38 C          30.0698  -49.5239  -57.7581 C.2       7 UNK         0.5104 
     39 O          29.6320  -49.2380  -58.8734 O.2       7 UNK        -0.5100 
     40 CA         31.2325  -48.7134  -57.1484 C.3       6 UNK         0.0396 
     41 CB         31.6865  -47.5339  -58.0332 C.3       6 UNK        -0.1801 
     42 N          30.9254  -48.2500  -55.7890 N.am      6 UNK        -0.4747 
     43 C          29.8818  -47.4942  -55.4077 C.2       6 UNK         0.5012 
     44 O          29.0451  -47.0404  -56.1872 O.2       6 UNK        -0.5003 
     45 CA         29.7396  -47.2531  -53.8891 C.3       5 UNK         0.0782 
     46 C46        28.3973  -46.5761  -53.4863 C.3       11 UNK        -0.0868 
     47 S47        28.5674  -45.7257  -51.8824 S.3       11 UNK        -0.2515 
     48 C48        28.2588  -43.9843  -52.3347 C.3       11 UNK         0.0199 
     49 N          30.0154  -48.4830  -53.1282 N.am      5 UNK        -0.4607 
     50 C          29.3028  -49.6181  -53.2061 C.2       4 UNK         0.5031 
     51 O          28.3151  -49.7526  -53.9307 O.2       4 UNK        -0.5119 
     52 CA         29.8060  -50.8155  -52.3771 C.3       4 UNK         0.0263 
     53 CB         28.9622  -52.0879  -52.6054 C.3       4 UNK        -0.1967 
     54 N          31.2262  -51.1136  -52.5949 N.am      4 UNK        -0.4237 
     55 C          31.8558  -51.3266  -53.7595 C.2       3 UNK         0.4908 
     56 O          31.3006  -51.2596  -54.8570 O.2       3 UNK        -0.5102 
     57 CA         33.3652  -51.6452  -53.6815 C.3       3 UNK         0.0241 
     58 CB         34.0159  -51.7509  -55.0742 C.3       3 UNK        -0.1971 
     59 N          34.1076  -50.6598  -52.8891 N.am      3 UNK        -0.4139 
     60 C          34.0883  -50.5489  -51.5537 C.2       2 UNK         0.5016 
     61 O          33.4718  -51.3209  -50.8177 O.2       2 UNK        -0.5319 
     62 CA         34.8337  -49.3559  -50.9318 C.3       2 UNK         0.0286 
     63 CB         36.2161  -49.7933  -50.4224 C.3       2 UNK        -0.1963 
     64 N          34.9949  -48.1980  -51.8191 N.am      2 UNK        -0.4790 
     65 C          34.0103  -47.4810  -52.3795 C.2       1 UNK         0.5024 
     66 O          32.8143  -47.7683  -52.2793 O.2       1 UNK        -0.4888 
     67 H67        37.2572  -44.6857  -50.0091 H         1 UNK         0.0892 
     68 H68        37.7879  -43.7677  -51.4211 H         1 UNK         0.0892 
     69 H69        36.1757  -43.5060  -50.7536 H         1 UNK         0.0892 
     70 H70        34.5688  -44.5050  -51.9476 H         1 UNK         0.3107 
     71 H71        35.1650  -46.5602  -53.9181 H         1 UNK         0.0773 
     72 H72        32.8148  -46.2759  -54.6030 H         1 UNK         0.0680 
     73 H73        32.4927  -45.2748  -53.2081 H         1 UNK         0.0680 
     74 H74        33.1155  -42.7579  -53.0102 H         1 UNK         0.0650 
     75 H75        33.2138  -41.8099  -54.4729 H         1 UNK         0.0650 
     76 H76        30.9584  -43.5763  -52.2828 H         1 UNK         0.1397 
     77 H77        27.5612  -43.3050  -54.8831 H         1 UNK         0.1363 
     78 H78        31.4476  -42.2054  -56.3183 H         1 UNK         0.1355 
     79 H79        28.5833  -43.2875  -57.6065 H         1 UNK         0.0707 
     80 H80        29.5739  -41.8550  -57.7346 H         1 UNK         0.0707 
     81 H81        27.5535  -41.5058  -59.3924 H         1 UNK         0.1034 
     82 H82        26.4043  -40.2982  -58.9014 H         1 UNK         0.1034 
     83 H83        24.9292  -42.3253  -58.0213 H         1 UNK         0.0482 
     84 H84        23.5581  -40.6577  -58.9598 H         1 UNK         0.3460 
     85 H85        23.1398  -40.7386  -60.6513 H         1 UNK         0.3460 
     86 H86        26.2629  -43.9105  -60.0885 H         1 UNK         0.2989 
     87 H87        26.1196  -46.3095  -59.5777 H         1 UNK         0.0559 
     88 H88        28.5789  -46.7957  -59.5846 H         1 UNK         0.0848 
     89 H89        28.2711  -45.1267  -60.0235 H         1 UNK         0.0848 
     90 H90        28.8434  -45.5142  -58.4075 H         1 UNK         0.0848 
     91 H91        27.5376  -47.1731  -57.1635 H         1 UNK         0.3144 
     92 H92        25.9716  -48.0997  -55.3049 H         1 UNK         0.0727 
     93 H93        24.5802  -50.1425  -55.0030 H         1 UNK         0.0790 
     94 H94        24.1492  -50.1213  -56.7130 H         1 UNK         0.0790 
     95 H95        23.6256  -48.8201  -55.6535 H         1 UNK         0.0790 
     96 H96        27.5412  -49.6209  -55.5598 H         1 UNK         0.3215 
     97 H97        28.2747  -51.9478  -56.3249 H         1 UNK         0.0863 
     98 H98        29.5211  -52.8819  -58.2766 H         1 UNK         0.0808 
     99 H99        28.7198  -51.7366  -59.3518 H         1 UNK         0.0808 
    100 H100       27.7846  -52.9709  -58.5233 H         1 UNK         0.0808 
    101 H101       30.0683  -50.6743  -56.0992 H         1 UNK         0.3118 
    102 H102       32.0737  -49.4024  -57.0588 H         1 UNK         0.0546 
    103 H103       30.8872  -46.8092  -58.1846 H         1 UNK         0.0828 
    104 H104       31.9990  -47.8827  -59.0180 H         1 UNK         0.0828 
    105 H105       32.5330  -47.0092  -57.5906 H         1 UNK         0.0828 
    106 H106       31.5084  -48.6360  -55.0598 H         1 UNK         0.3005 
    107 H107       30.5408  -46.5539  -53.6508 H         1 UNK         0.1257 
    108 H108       28.0678  -45.8517  -54.2309 H         1 UNK         0.0775 
    109 H109       27.5857  -47.3005  -53.4175 H         1 UNK         0.0775 
    110 H110       27.2084  -43.8754  -52.6097 H         1 UNK         0.0840 
    111 H111       28.4062  -43.3597  -51.4525 H         1 UNK         0.0840 
    112 H112       30.8472  -48.4558  -52.5475 H         1 UNK         0.2987 
    113 H113       29.7019  -50.5295  -51.3295 H         1 UNK         0.0785 
    114 H114       29.3008  -52.9073  -51.9715 H         1 UNK         0.0798 
    115 H115       29.0109  -52.4242  -53.6419 H         1 UNK         0.0798 
    116 H116       27.9122  -51.9096  -52.3697 H         1 UNK         0.0798 
    117 H117       31.8011  -51.1771  -51.7580 H         1 UNK         0.3079 
    118 H118       33.4582  -52.6190  -53.1961 H         1 UNK         0.0794 
    119 H119       33.5250  -52.5148  -55.6790 H         1 UNK         0.0786 
    120 H120       35.0678  -52.0276  -55.0013 H         1 UNK         0.0786 
    121 H121       33.9525  -50.8103  -55.6228 H         1 UNK         0.0786 
    122 H122       34.6270  -49.9646  -53.4044 H         1 UNK         0.3032 
    123 H123       34.2411  -49.0270  -50.0752 H         1 UNK         0.1094 
    124 H124       36.1317  -50.6359  -49.7343 H         1 UNK         0.0794 
    125 H125       36.8677  -50.1034  -51.2403 H         1 UNK         0.0794 
    126 H126       36.7142  -48.9868  -49.8837 H         1 UNK         0.0794 
    127 H127       35.9394  -47.8404  -51.9373 H         1 UNK         0.3016 
@<TRIPOS>BOND
     1    1    2 1    
     2    1   67 1    
     3    1   68 1    
     4    1   69 1    
     5    2    3 2    
     6    2    4 am   BACKBONE|DICT|INTERRES
     7    4    5 1    
     8    4   70 1    
     9    5    6 1    
    10    5   65 1    
    11    5   71 1    
    12    6    7 1    
    13    6   72 1    
    14    6   73 1    
    15    7    8 1    
    16    8    9 1    
    17    8   74 1    
    18    8   75 1    
    19    9   10 ar   
    20    9   14 ar   
    21   10   11 ar   
    22   10   76 1    
    23   11   12 ar   
    24   11   48 1    
    25   12   13 ar   
    26   12   77 1    
    27   13   14 ar   
    28   13   15 1    
    29   14   78 1    
    30   15   16 1    
    31   15   79 1    
    32   15   80 1    
    33   16   17 1    
    34   17   18 1    
    35   17   81 1    
    36   17   82 1    
    37   18   19 1    
    38   18   22 1    
    39   18   83 1    
    40   19   20 am   BACKBONE|DICT|INTERRES
    41   19   21 2    
    42   20   84 1    
    43   20   85 1    
    44   22   23 am   BACKBONE|DICT|INTERRES
    45   22   86 1    
    46   23   24 2    
    47   23   25 1    
    48   25   26 1    
    49   25   27 1    
    50   25   87 1    
    51   26   88 1    
    52   26   89 1    
    53   26   90 1    
    54   27   28 am   BACKBONE|DICT|INTERRES
    55   27   91 1    
    56   28   29 2    
    57   28   30 1    
    58   30   31 1    
    59   30   32 1    
    60   30   92 1    
    61   31   93 1    
    62   31   94 1    
    63   31   95 1    
    64   32   33 am   BACKBONE|DICT|INTERRES
    65   32   96 1    
    66   33   34 2    
    67   33   35 1    
    68   35   36 1    
    69   35   37 1    
    70   35   97 1    
    71   36   98 1    
    72   36   99 1    
    73   36  100 1    
    74   37   38 am   BACKBONE|DICT|INTERRES
    75   37  101 1    
    76   38   39 2    
    77   38   40 1    
    78   40   41 1    
    79   40   42 1    
    80   40  102 1    
    81   41  103 1    
    82   41  104 1    
    83   41  105 1    
    84   42   43 am   BACKBONE|DICT|INTERRES
    85   42  106 1    
    86   43   44 2    
    87   43   45 1    
    88   45   46 1    
    89   45   49 1    
    90   45  107 1    
    91   46   47 1    
    92   46  108 1    
    93   46  109 1    
    94   47   48 1    
    95   48  110 1    
    96   48  111 1    
    97   49   50 am   BACKBONE|DICT|INTERRES
    98   49  112 1    
    99   50   51 2    
   100   50   52 1    
   101   52   53 1    
   102   52   54 1    
   103   52  113 1    
   104   53  114 1    
   105   53  115 1    
   106   53  116 1    
   107   54   55 am   BACKBONE|DICT|INTERRES
   108   54  117 1    
   109   55   56 2    
   110   55   57 1    
   111   57   58 1    
   112   57   59 1    
   113   57  118 1    
   114   58  119 1    
   115   58  120 1    
   116   58  121 1    
   117   59   60 am   BACKBONE|DICT|INTERRES
   118   59  122 1    
   119   60   61 2    
   120   60   62 1    
   121   62   63 1    
   122   62   64 1    
   123   62  123 1    
   124   63  124 1    
   125   63  125 1    
   126   63  126 1    
   127   64   65 am   BACKBONE|DICT|INTERRES
   128   64  127 1    
   129   65   66 2    
@<TRIPOS>SUBSTRUCTURE
     1 UNK         1 GROUP             0       ****    0 ROOT    
