@<TRIPOS>MOLECULE
3R134
127   129    1
SMALL
USER_CHARGES


@<TRIPOS>ATOM
      1 CA         33.0367  -46.9129  -51.4841 C.3       0 UNK        -0.1968 
      2 C          34.1747  -47.0315  -52.4863 C.2       0 UNK         0.4852 
      3 O          35.0348  -47.9010  -52.3434 O.2       0 UNK        -0.5359 
      4 N          34.1764  -46.1703  -53.5113 N.am      1 UNK        -0.4300 
      5 CA         35.1783  -46.1151  -54.5860 C.3       1 UNK         0.0863 
      6 C6         35.0424  -44.8281  -55.4410 C.3       11 UNK        -0.0953 
      7 S7         33.3274  -44.4877  -55.9759 S.3       11 UNK        -0.2369 
      8 C8         32.8740  -43.0941  -54.8914 C.3       11 UNK         0.0226 
      9 C9         31.4255  -43.1801  -54.4318 C.ar      11 UNK        -0.0699 
     10 C10        31.1196  -43.3287  -53.0746 C.ar      11 UNK        -0.0804 
     11 C11        29.7885  -43.3713  -52.6482 C.ar      11 UNK        -0.0871 
     12 C12        28.7610  -43.2676  -53.5902 C.ar      11 UNK        -0.1008 
     13 C13        29.0511  -43.1328  -54.9499 C.ar      11 UNK        -0.0735 
     14 C14        30.3869  -43.0853  -55.3625 C.ar      11 UNK        -0.0945 
     15 C15        27.9142  -43.0848  -55.9621 C.3       11 UNK         0.0169 
     16 S16        28.0878  -41.7289  -57.1664 S.3       11 UNK        -0.2669 
     17 C17        26.4555  -41.7661  -57.9894 C.3       11 UNK        -0.0850 
     18 CA         26.3384  -42.7456  -59.1945 C.3       10 UNK         0.0855 
     19 C          27.3043  -42.4180  -60.3645 C.2       10 UNK         0.5543 
     20 N          27.1501  -41.2574  -60.9877 N.am      10 UNK        -0.7343 
     21 O          28.1873  -43.1973  -60.7174 O.2       10 UNK        -0.5027 
     22 N          26.4210  -44.1551  -58.7924 N.am      10 UNK        -0.4495 
     23 C          25.4685  -44.8320  -58.1450 C.2       10 UNK         0.4903 
     24 O          24.3985  -44.3286  -57.8010 O.2       10 UNK        -0.4860 
     25 CA         25.7238  -46.3114  -57.8011 C.3       9 UNK         0.0227 
     26 CB         25.1937  -47.2356  -58.9140 C.3       9 UNK        -0.1964 
     27 N          27.1014  -46.6634  -57.4296 N.am      9 UNK        -0.4231 
     28 C          28.2081  -46.6841  -58.1873 C.2       9 UNK         0.5014 
     29 O          28.2625  -46.2699  -59.3450 O.2       9 UNK        -0.5270 
     30 CA         29.4621  -47.3078  -57.5499 C.3       8 UNK         0.0284 
     31 CB         30.1757  -46.3076  -56.6290 C.3       8 UNK        -0.1977 
     32 N          29.1538  -48.5314  -56.8059 N.am      8 UNK        -0.4342 
     33 C          28.7342  -49.6758  -57.3673 C.2       8 UNK         0.5039 
     34 O          28.6424  -49.8552  -58.5822 O.2       8 UNK        -0.5547 
     35 CA         28.3258  -50.8066  -56.4110 C.3       7 UNK         0.0281 
     36 CB         29.5470  -51.6406  -55.9901 C.3       7 UNK        -0.1963 
     37 N          27.6333  -50.2892  -55.2284 N.am      7 UNK        -0.4444 
     38 C          26.3625  -49.8586  -55.2307 C.2       7 UNK         0.5104 
     39 O          25.6128  -49.9387  -56.2034 O.2       7 UNK        -0.5100 
     40 CA         25.8380  -49.2168  -53.9332 C.3       6 UNK         0.0396 
     41 CB         25.1508  -50.2725  -53.0529 C.3       6 UNK        -0.1801 
     42 N          26.8819  -48.5425  -53.1563 N.am      6 UNK        -0.4747 
     43 C          27.5211  -47.4263  -53.5395 C.2       6 UNK         0.5012 
     44 O          27.2724  -46.8230  -54.5830 O.2       6 UNK        -0.5003 
     45 CA         28.6752  -46.9470  -52.6360 C.3       5 UNK         0.0782 
     46 C46        28.1563  -46.0049  -51.5245 C.3       11 UNK        -0.0868 
     47 S47        29.5333  -45.2383  -50.6029 S.3       11 UNK        -0.2515 
     48 C48        29.4581  -43.5086  -51.1684 C.3       11 UNK         0.0199 
     49 N          29.4273  -48.0777  -52.0777 N.am      5 UNK        -0.4607 
     50 C          30.1552  -48.9359  -52.7979 C.2       4 UNK         0.5031 
     51 O          30.2994  -48.8580  -54.0211 O.2       4 UNK        -0.5119 
     52 CA         30.7811  -50.1012  -52.0297 C.3       4 UNK         0.0263 
     53 CB         29.8301  -51.3110  -51.9953 C.3       4 UNK        -0.1967 
     54 N          32.0312  -50.4564  -52.6861 N.am      4 UNK        -0.4237 
     55 C          33.0723  -51.0727  -52.1157 C.2       3 UNK         0.4908 
     56 O          33.0557  -51.4981  -50.9598 O.2       3 UNK        -0.5102 
     57 CA         34.3719  -51.2039  -52.9339 C.3       3 UNK         0.0241 
     58 CB         34.7061  -52.6767  -53.2494 C.3       3 UNK        -0.1971 
     59 N          34.4196  -50.3482  -54.1298 N.am      3 UNK        -0.4139 
     60 C          33.7815  -50.4959  -55.3015 C.2       2 UNK         0.5016 
     61 O          33.0727  -51.4637  -55.5755 O.2       2 UNK        -0.5319 
     62 CA         33.9025  -49.3341  -56.3072 C.3       2 UNK         0.0286 
     63 CB         32.6749  -49.2473  -57.2299 C.3       2 UNK        -0.1963 
     64 N          34.0559  -48.0517  -55.6132 N.am      2 UNK        -0.4790 
     65 C          35.2086  -47.3848  -55.4654 C.2       1 UNK         0.5024 
     66 O          36.2761  -47.7537  -55.9559 O.2       1 UNK        -0.4888 
     67 H67        32.7464  -47.8980  -51.1217 H         1 UNK         0.0892 
     68 H68        32.1582  -46.4420  -51.9255 H         1 UNK         0.0892 
     69 H69        33.3517  -46.3174  -50.6278 H         1 UNK         0.0892 
     70 H70        33.4326  -45.4921  -53.5939 H         1 UNK         0.3107 
     71 H71        36.1544  -46.0729  -54.0975 H         1 UNK         0.0773 
     72 H72        35.4217  -43.9763  -54.8753 H         1 UNK         0.0680 
     73 H73        35.6773  -44.8785  -56.3280 H         1 UNK         0.0680 
     74 H74        33.5353  -43.0588  -54.0247 H         1 UNK         0.0650 
     75 H75        33.0289  -42.1595  -55.4320 H         1 UNK         0.0650 
     76 H76        31.9142  -43.3994  -52.3443 H         1 UNK         0.1397 
     77 H77        27.7303  -43.2996  -53.2650 H         1 UNK         0.1363 
     78 H78        30.6213  -42.9809  -56.4130 H         1 UNK         0.1355 
     79 H79        26.9535  -42.9883  -55.4540 H         1 UNK         0.0707 
     80 H80        27.8938  -44.0363  -56.4909 H         1 UNK         0.0707 
     81 H81        26.2342  -40.7504  -58.3204 H         1 UNK         0.1034 
     82 H82        25.6862  -41.9876  -57.2487 H         1 UNK         0.1034 
     83 H83        25.3408  -42.6162  -59.6192 H         1 UNK         0.0482 
     84 H84        27.7690  -41.0267  -61.7493 H         1 UNK         0.3460 
     85 H85        26.4277  -40.6086  -60.7172 H         1 UNK         0.3460 
     86 H86        27.2498  -44.6538  -59.1104 H         1 UNK         0.2989 
     87 H87        25.1364  -46.5199  -56.9053 H         1 UNK         0.0559 
     88 H88        25.7277  -47.0906  -59.8536 H         1 UNK         0.0848 
     89 H89        24.1375  -47.0450  -59.1088 H         1 UNK         0.0848 
     90 H90        25.2876  -48.2850  -58.6333 H         1 UNK         0.0848 
     91 H91        27.2110  -46.9261  -56.4519 H         1 UNK         0.3144 
     92 H92        30.1485  -47.5724  -58.3570 H         1 UNK         0.0727 
     93 H93        31.0891  -46.7302  -56.2113 H         1 UNK         0.0790 
     94 H94        29.5449  -45.9938  -55.7979 H         1 UNK         0.0790 
     95 H95        30.4585  -45.4110  -57.1815 H         1 UNK         0.0790 
     96 H96        29.2743  -48.5025  -55.7995 H         1 UNK         0.3215 
     97 H97        27.6417  -51.4652  -56.9511 H         1 UNK         0.0863 
     98 H98        29.2557  -52.4864  -55.3676 H         1 UNK         0.0808 
     99 H99        30.2783  -51.0513  -55.4379 H         1 UNK         0.0808 
    100 H100       30.0596  -52.0456  -56.8637 H         1 UNK         0.0808 
    101 H101       28.1843  -50.1609  -54.3934 H         1 UNK         0.3118 
    102 H102       25.0923  -48.4697  -54.2141 H         1 UNK         0.0546 
    103 H103       24.3500  -50.7733  -53.5991 H         1 UNK         0.0828 
    104 H104       24.7020  -49.8212  -52.1679 H         1 UNK         0.0828 
    105 H105       25.8491  -51.0422  -52.7219 H         1 UNK         0.0828 
    106 H106       27.1468  -48.9696  -52.2805 H         1 UNK         0.3005 
    107 H107       29.3548  -46.3777  -53.2755 H         1 UNK         0.1257 
    108 H108       27.5346  -46.5538  -50.8148 H         1 UNK         0.0775 
    109 H109       27.5145  -45.2253  -51.9365 H         1 UNK         0.0775 
    110 H110       28.4700  -43.0985  -50.9534 H         1 UNK         0.0840 
    111 H111       30.1623  -42.9169  -50.5816 H         1 UNK         0.0840 
    112 H112       29.3700  -48.1949  -51.0761 H         1 UNK         0.2987 
    113 H113       30.9937  -49.7750  -51.0092 H         1 UNK         0.0785 
    114 H114       29.6193  -51.6886  -52.9957 H         1 UNK         0.0798 
    115 H115       28.8771  -51.0522  -51.5324 H         1 UNK         0.0798 
    116 H116       30.2553  -52.1309  -51.4161 H         1 UNK         0.0798 
    117 H117       32.1045  -50.1436  -53.6456 H         1 UNK         0.3079 
    118 H118       35.1649  -50.8258  -52.2867 H         1 UNK         0.0794 
    119 H119       33.9133  -53.1651  -53.8162 H         1 UNK         0.0786 
    120 H120       34.8383  -53.2479  -52.3297 H         1 UNK         0.0786 
    121 H121       35.6312  -52.7619  -53.8194 H         1 UNK         0.0786 
    122 H122       34.9270  -49.4822  -53.9910 H         1 UNK         0.3032 
    123 H123       34.7776  -49.5400  -56.9278 H         1 UNK         0.1094 
    124 H124       32.7405  -48.3950  -57.9063 H         1 UNK         0.0794 
    125 H125       32.5773  -50.1430  -57.8447 H         1 UNK         0.0794 
    126 H126       31.7586  -49.1495  -56.6503 H         1 UNK         0.0794 
    127 H127       33.2299  -47.6754  -55.1698 H         1 UNK         0.3016 
@<TRIPOS>BOND
     1    1    2 1    
     2    1   67 1    
     3    1   68 1    
     4    1   69 1    
     5    2    3 2    
     6    2    4 am   BACKBONE|DICT|INTERRES
     7    4    5 1    
     8    4   70 1    
     9    5    6 1    
    10    5   65 1    
    11    5   71 1    
    12    6    7 1    
    13    6   72 1    
    14    6   73 1    
    15    7    8 1    
    16    8    9 1    
    17    8   74 1    
    18    8   75 1    
    19    9   10 ar   
    20    9   14 ar   
    21   10   11 ar   
    22   10   76 1    
    23   11   12 ar   
    24   11   48 1    
    25   12   13 ar   
    26   12   77 1    
    27   13   14 ar   
    28   13   15 1    
    29   14   78 1    
    30   15   16 1    
    31   15   79 1    
    32   15   80 1    
    33   16   17 1    
    34   17   18 1    
    35   17   81 1    
    36   17   82 1    
    37   18   19 1    
    38   18   22 1    
    39   18   83 1    
    40   19   20 am   BACKBONE|DICT|INTERRES
    41   19   21 2    
    42   20   84 1    
    43   20   85 1    
    44   22   23 am   BACKBONE|DICT|INTERRES
    45   22   86 1    
    46   23   24 2    
    47   23   25 1    
    48   25   26 1    
    49   25   27 1    
    50   25   87 1    
    51   26   88 1    
    52   26   89 1    
    53   26   90 1    
    54   27   28 am   BACKBONE|DICT|INTERRES
    55   27   91 1    
    56   28   29 2    
    57   28   30 1    
    58   30   31 1    
    59   30   32 1    
    60   30   92 1    
    61   31   93 1    
    62   31   94 1    
    63   31   95 1    
    64   32   33 am   BACKBONE|DICT|INTERRES
    65   32   96 1    
    66   33   34 2    
    67   33   35 1    
    68   35   36 1    
    69   35   37 1    
    70   35   97 1    
    71   36   98 1    
    72   36   99 1    
    73   36  100 1    
    74   37   38 am   BACKBONE|DICT|INTERRES
    75   37  101 1    
    76   38   39 2    
    77   38   40 1    
    78   40   41 1    
    79   40   42 1    
    80   40  102 1    
    81   41  103 1    
    82   41  104 1    
    83   41  105 1    
    84   42   43 am   BACKBONE|DICT|INTERRES
    85   42  106 1    
    86   43   44 2    
    87   43   45 1    
    88   45   46 1    
    89   45   49 1    
    90   45  107 1    
    91   46   47 1    
    92   46  108 1    
    93   46  109 1    
    94   47   48 1    
    95   48  110 1    
    96   48  111 1    
    97   49   50 am   BACKBONE|DICT|INTERRES
    98   49  112 1    
    99   50   51 2    
   100   50   52 1    
   101   52   53 1    
   102   52   54 1    
   103   52  113 1    
   104   53  114 1    
   105   53  115 1    
   106   53  116 1    
   107   54   55 am   BACKBONE|DICT|INTERRES
   108   54  117 1    
   109   55   56 2    
   110   55   57 1    
   111   57   58 1    
   112   57   59 1    
   113   57  118 1    
   114   58  119 1    
   115   58  120 1    
   116   58  121 1    
   117   59   60 am   BACKBONE|DICT|INTERRES
   118   59  122 1    
   119   60   61 2    
   120   60   62 1    
   121   62   63 1    
   122   62   64 1    
   123   62  123 1    
   124   63  124 1    
   125   63  125 1    
   126   63  126 1    
   127   64   65 am   BACKBONE|DICT|INTERRES
   128   64  127 1    
   129   65   66 2    
@<TRIPOS>SUBSTRUCTURE
     1 UNK         1 GROUP             0       ****    0 ROOT    
