@<TRIPOS>MOLECULE
3R134
127   129    1
SMALL
USER_CHARGES


@<TRIPOS>ATOM
      1 CA         28.9836  -44.7167  -53.2260 C.3       0 UNK        -0.1968 
      2 C          29.9519  -45.2297  -52.1742 C.2       0 UNK         0.4852 
      3 O          29.5256  -45.8527  -51.2006 O.2       0 UNK        -0.5359 
      4 N          31.2505  -44.9633  -52.3611 N.am      1 UNK        -0.4300 
      5 CA         32.3289  -45.4422  -51.4896 C.3       1 UNK         0.0863 
      6 C6         33.6236  -44.6092  -51.6462 C.3       11 UNK        -0.0953 
      7 S7         33.3336  -42.8307  -51.3509 S.3       11 UNK        -0.2369 
      8 C8         34.0577  -42.0651  -52.8352 C.3       11 UNK         0.0226 
      9 C9         33.3021  -42.4082  -54.1128 C.ar      11 UNK        -0.0699 
     10 C10        33.8165  -43.3613  -54.9967 C.ar      11 UNK        -0.0804 
     11 C11        33.1661  -43.6437  -56.2006 C.ar      11 UNK        -0.0871 
     12 C12        32.0070  -42.9336  -56.5322 C.ar      11 UNK        -0.1008 
     13 C13        31.4585  -42.0060  -55.6423 C.ar      11 UNK        -0.0735 
     14 C14        32.1122  -41.7465  -54.4327 C.ar      11 UNK        -0.0945 
     15 C15        30.1702  -41.2746  -55.9953 C.3       11 UNK         0.0169 
     16 S16        28.7013  -42.3286  -55.7569 S.3       11 UNK        -0.2669 
     17 C17        28.6617  -43.2922  -57.3078 C.3       11 UNK        -0.0850 
     18 CA         27.2144  -43.7038  -57.6945 C.3       10 UNK         0.0855 
     19 C          27.0646  -43.9810  -59.2229 C.2       10 UNK         0.5543 
     20 N          26.3733  -45.0261  -59.6601 N.am      10 UNK        -0.7343 
     21 O          27.5732  -43.2176  -60.0400 O.2       10 UNK        -0.5027 
     22 N          26.7201  -44.7952  -56.8352 N.am      10 UNK        -0.4495 
     23 C          25.4405  -44.9822  -56.4912 C.2       10 UNK         0.4903 
     24 O          24.5337  -44.1903  -56.7543 O.2       10 UNK        -0.4860 
     25 CA         25.1307  -46.3120  -55.7748 C.3       9 UNK         0.0227 
     26 CB         23.6303  -46.5028  -55.4701 C.3       9 UNK        -0.1964 
     27 N          25.6619  -47.4696  -56.5077 N.am      9 UNK        -0.4231 
     28 C          25.4003  -47.8283  -57.7748 C.2       9 UNK         0.5014 
     29 O          24.6150  -47.2276  -58.5085 O.2       9 UNK        -0.5270 
     30 CA         26.1757  -49.0262  -58.3547 C.3       8 UNK         0.0284 
     31 CB         27.2749  -48.5318  -59.3097 C.3       8 UNK        -0.1977 
     32 N          26.7848  -49.8850  -57.3377 N.am      8 UNK        -0.4342 
     33 C          26.1139  -50.7367  -56.5509 C.2       8 UNK         0.5039 
     34 O          24.9004  -50.9323  -56.6253 O.2       8 UNK        -0.5547 
     35 CA         26.9368  -51.4688  -55.4785 C.3       7 UNK         0.0281 
     36 CB         27.6623  -52.6866  -56.0742 C.3       7 UNK        -0.1963 
     37 N          27.9062  -50.5808  -54.8317 N.am      7 UNK        -0.4444 
     38 C          27.5790  -49.5845  -53.9965 C.2       7 UNK         0.5104 
     39 O          26.4276  -49.3326  -53.6429 O.2       7 UNK        -0.5100 
     40 CA         28.7298  -48.7004  -53.4967 C.3       6 UNK         0.0396 
     41 CB         29.4130  -49.3463  -52.2812 C.3       6 UNK        -0.1801 
     42 N          29.7118  -48.4258  -54.5497 N.am      6 UNK        -0.4747 
     43 C          29.4878  -47.6024  -55.5864 C.2       6 UNK         0.5012 
     44 O          28.4544  -46.9474  -55.7256 O.2       6 UNK        -0.5003 
     45 CA         30.5741  -47.4931  -56.6748 C.3       5 UNK         0.0782 
     46 C46        31.5219  -46.3137  -56.3668 C.3       11 UNK        -0.0868 
     47 S47        32.4735  -45.8254  -57.8426 S.3       11 UNK        -0.2515 
     48 C48        33.7350  -44.7133  -57.1303 C.3       11 UNK         0.0199 
     49 N          31.3176  -48.7368  -56.8859 N.am      5 UNK        -0.4607 
     50 C          30.7940  -49.9185  -57.2381 C.2       4 UNK         0.5031 
     51 O          29.6034  -50.0851  -57.4980 O.2       4 UNK        -0.5119 
     52 CA         31.7474  -51.1311  -57.2385 C.3       4 UNK         0.0263 
     53 CB         32.2583  -51.4073  -58.6607 C.3       4 UNK        -0.1967 
     54 N          32.8909  -50.9833  -56.3249 N.am      4 UNK        -0.4237 
     55 C          32.7818  -50.7787  -55.0039 C.2       3 UNK         0.4908 
     56 O          31.6968  -50.7866  -54.4104 O.2       3 UNK        -0.5102 
     57 CA         34.0694  -50.4353  -54.2330 C.3       3 UNK         0.0241 
     58 CB         34.8343  -49.2815  -54.9271 C.3       3 UNK        -0.1971 
     59 N          33.6307  -50.0459  -52.8964 N.am      3 UNK        -0.4139 
     60 C          34.3231  -49.5395  -51.8734 C.2       2 UNK         0.5016 
     61 O          35.5497  -49.4199  -51.8421 O.2       2 UNK        -0.5319 
     62 CA         33.4687  -49.0542  -50.6855 C.3       2 UNK         0.0286 
     63 CB         34.1393  -49.3804  -49.3389 C.3       2 UNK        -0.1963 
     64 N          33.1680  -47.6164  -50.7306 N.am      2 UNK        -0.4790 
     65 C          32.6032  -46.9383  -51.7433 C.2       1 UNK         0.5024 
     66 O          32.3027  -47.4346  -52.8315 O.2       1 UNK        -0.4888 
     67 H67        28.6378  -43.7170  -52.9653 H         1 UNK         0.0892 
     68 H68        28.1143  -45.3683  -53.3052 H         1 UNK         0.0892 
     69 H69        29.4578  -44.6762  -54.2054 H         1 UNK         0.0892 
     70 H70        31.5479  -44.4430  -53.1739 H         1 UNK         0.3107 
     71 H71        31.9895  -45.3400  -50.4563 H         1 UNK         0.0773 
     72 H72        34.0619  -44.7628  -52.6320 H         1 UNK         0.0680 
     73 H73        34.3780  -44.9401  -50.9301 H         1 UNK         0.0680 
     74 H74        34.0610  -40.9825  -52.7008 H         1 UNK         0.0650 
     75 H75        35.1049  -42.3615  -52.9146 H         1 UNK         0.0650 
     76 H76        34.7330  -43.8795  -54.7495 H         1 UNK         0.1397 
     77 H77        31.5147  -43.1261  -57.4746 H         1 UNK         0.1363 
     78 H78        31.7059  -41.0171  -53.7450 H         1 UNK         0.1355 
     79 H79        30.2138  -40.9085  -57.0220 H         1 UNK         0.0707 
     80 H80        30.0608  -40.3890  -55.3674 H         1 UNK         0.0707 
     81 H81        29.2983  -44.1719  -57.2104 H         1 UNK         0.1034 
     82 H82        29.1139  -42.6777  -58.0879 H         1 UNK         0.1034 
     83 H83        26.5806  -42.8312  -57.5252 H         1 UNK         0.0482 
     84 H84        25.8720  -45.6321  -59.0238 H         1 UNK         0.3460 
     85 H85        26.2877  -45.1679  -60.6537 H         1 UNK         0.3460 
     86 H86        27.3944  -45.5051  -56.5654 H         1 UNK         0.2989 
     87 H87        25.6618  -46.2821  -54.8220 H         1 UNK         0.0559 
     88 H88        23.4520  -47.4343  -54.9327 H         1 UNK         0.0848 
     89 H89        23.0300  -46.5208  -56.3803 H         1 UNK         0.0848 
     90 H90        23.2524  -45.6914  -54.8471 H         1 UNK         0.0848 
     91 H91        26.3774  -47.9915  -56.0192 H         1 UNK         0.3144 
     92 H92        25.4682  -49.6276  -58.9294 H         1 UNK         0.0727 
     93 H93        27.8234  -49.3645  -59.7508 H         1 UNK         0.0790 
     94 H94        27.9934  -47.8906  -58.7986 H         1 UNK         0.0790 
     95 H95        26.8491  -47.9546  -60.1314 H         1 UNK         0.0790 
     96 H96        27.8015  -49.8582  -57.2661 H         1 UNK         0.3215 
     97 H97        26.2432  -51.8274  -54.7145 H         1 UNK         0.0863 
     98 H98        28.2036  -53.2403  -55.3069 H         1 UNK         0.0808 
     99 H99        28.3758  -52.4003  -56.8474 H         1 UNK         0.0808 
    100 H100       26.9508  -53.3769  -56.5294 H         1 UNK         0.0808 
    101 H101       28.8782  -50.6949  -55.0837 H         1 UNK         0.3118 
    102 H102       28.3001  -47.7518  -53.1709 H         1 UNK         0.0546 
    103 H103       28.6876  -49.5509  -51.4927 H         1 UNK         0.0828 
    104 H104       30.1659  -48.6864  -51.8541 H         1 UNK         0.0828 
    105 H105       29.8923  -50.2919  -52.5342 H         1 UNK         0.0828 
    106 H106       30.5859  -48.9371  -54.5034 H         1 UNK         0.3005 
    107 H107       30.0452  -47.2762  -57.6053 H         1 UNK         0.1257 
    108 H108       32.2054  -46.5626  -55.5522 H         1 UNK         0.0775 
    109 H109       30.9577  -45.4417  -56.0337 H         1 UNK         0.0775 
    110 H110       34.4659  -45.3279  -56.6023 H         1 UNK         0.0840 
    111 H111       34.2733  -44.2242  -57.9431 H         1 UNK         0.0840 
    112 H112       32.3098  -48.6895  -56.7129 H         1 UNK         0.2987 
    113 H113       31.1688  -51.9958  -56.9065 H         1 UNK         0.0785 
    114 H114       32.8653  -50.5841  -59.0399 H         1 UNK         0.0798 
    115 H115       31.4265  -51.5445  -59.3535 H         1 UNK         0.0798 
    116 H116       32.8603  -52.3154  -58.6977 H         1 UNK         0.0798 
    117 H117       33.8091  -50.9763  -56.7457 H         1 UNK         0.3079 
    118 H118       34.6949  -51.3266  -54.1634 H         1 UNK         0.0794 
    119 H119       34.2261  -48.3776  -54.9885 H         1 UNK         0.0786 
    120 H120       35.1383  -49.5456  -55.9401 H         1 UNK         0.0786 
    121 H121       35.7498  -49.0254  -54.3951 H         1 UNK         0.0786 
    122 H122       32.6195  -50.0867  -52.8236 H         1 UNK         0.3032 
    123 H123       32.5154  -49.5868  -50.7137 H         1 UNK         0.1094 
    124 H124       35.0686  -48.8253  -49.2042 H         1 UNK         0.0794 
    125 H125       33.4834  -49.1464  -48.5000 H         1 UNK         0.0794 
    126 H126       34.3820  -50.4418  -49.2712 H         1 UNK         0.0794 
    127 H127       33.3976  -47.1015  -49.8927 H         1 UNK         0.3016 
@<TRIPOS>BOND
     1    1    2 1    
     2    1   67 1    
     3    1   68 1    
     4    1   69 1    
     5    2    3 2    
     6    2    4 am   BACKBONE|DICT|INTERRES
     7    4    5 1    
     8    4   70 1    
     9    5    6 1    
    10    5   65 1    
    11    5   71 1    
    12    6    7 1    
    13    6   72 1    
    14    6   73 1    
    15    7    8 1    
    16    8    9 1    
    17    8   74 1    
    18    8   75 1    
    19    9   10 ar   
    20    9   14 ar   
    21   10   11 ar   
    22   10   76 1    
    23   11   12 ar   
    24   11   48 1    
    25   12   13 ar   
    26   12   77 1    
    27   13   14 ar   
    28   13   15 1    
    29   14   78 1    
    30   15   16 1    
    31   15   79 1    
    32   15   80 1    
    33   16   17 1    
    34   17   18 1    
    35   17   81 1    
    36   17   82 1    
    37   18   19 1    
    38   18   22 1    
    39   18   83 1    
    40   19   20 am   BACKBONE|DICT|INTERRES
    41   19   21 2    
    42   20   84 1    
    43   20   85 1    
    44   22   23 am   BACKBONE|DICT|INTERRES
    45   22   86 1    
    46   23   24 2    
    47   23   25 1    
    48   25   26 1    
    49   25   27 1    
    50   25   87 1    
    51   26   88 1    
    52   26   89 1    
    53   26   90 1    
    54   27   28 am   BACKBONE|DICT|INTERRES
    55   27   91 1    
    56   28   29 2    
    57   28   30 1    
    58   30   31 1    
    59   30   32 1    
    60   30   92 1    
    61   31   93 1    
    62   31   94 1    
    63   31   95 1    
    64   32   33 am   BACKBONE|DICT|INTERRES
    65   32   96 1    
    66   33   34 2    
    67   33   35 1    
    68   35   36 1    
    69   35   37 1    
    70   35   97 1    
    71   36   98 1    
    72   36   99 1    
    73   36  100 1    
    74   37   38 am   BACKBONE|DICT|INTERRES
    75   37  101 1    
    76   38   39 2    
    77   38   40 1    
    78   40   41 1    
    79   40   42 1    
    80   40  102 1    
    81   41  103 1    
    82   41  104 1    
    83   41  105 1    
    84   42   43 am   BACKBONE|DICT|INTERRES
    85   42  106 1    
    86   43   44 2    
    87   43   45 1    
    88   45   46 1    
    89   45   49 1    
    90   45  107 1    
    91   46   47 1    
    92   46  108 1    
    93   46  109 1    
    94   47   48 1    
    95   48  110 1    
    96   48  111 1    
    97   49   50 am   BACKBONE|DICT|INTERRES
    98   49  112 1    
    99   50   51 2    
   100   50   52 1    
   101   52   53 1    
   102   52   54 1    
   103   52  113 1    
   104   53  114 1    
   105   53  115 1    
   106   53  116 1    
   107   54   55 am   BACKBONE|DICT|INTERRES
   108   54  117 1    
   109   55   56 2    
   110   55   57 1    
   111   57   58 1    
   112   57   59 1    
   113   57  118 1    
   114   58  119 1    
   115   58  120 1    
   116   58  121 1    
   117   59   60 am   BACKBONE|DICT|INTERRES
   118   59  122 1    
   119   60   61 2    
   120   60   62 1    
   121   62   63 1    
   122   62   64 1    
   123   62  123 1    
   124   63  124 1    
   125   63  125 1    
   126   63  126 1    
   127   64   65 am   BACKBONE|DICT|INTERRES
   128   64  127 1    
   129   65   66 2    
@<TRIPOS>SUBSTRUCTURE
     1 UNK         1 GROUP             0       ****    0 ROOT    
