@<TRIPOS>MOLECULE
3R134
127   129    1
SMALL
USER_CHARGES


@<TRIPOS>ATOM
      1 CA         32.8647  -46.9725  -50.4796 C.3       0 UNK        -0.1968 
      2 C          33.9461  -46.5748  -51.4737 C.2       0 UNK         0.4852 
      3 O          35.1134  -46.9166  -51.2812 O.2       0 UNK        -0.5359 
      4 N          33.5624  -45.8592  -52.5382 N.am      1 UNK        -0.4300 
      5 CA         34.4570  -45.2893  -53.5528 C.3       1 UNK         0.0863 
      6 C6         33.6964  -44.3102  -54.4797 C.3       11 UNK        -0.0953 
      7 S7         33.4466  -42.6625  -53.7317 S.3       11 UNK        -0.2369 
      8 C8         32.0892  -42.9014  -52.5280 C.3       11 UNK         0.0226 
      9 C9         30.7715  -43.4408  -53.0870 C.ar      11 UNK        -0.0699 
     10 C10        29.8786  -44.0676  -52.2107 C.ar      11 UNK        -0.0804 
     11 C11        28.6448  -44.5448  -52.6637 C.ar      11 UNK        -0.0871 
     12 C12        28.3098  -44.4092  -54.0137 C.ar      11 UNK        -0.1008 
     13 C13        29.1894  -43.7859  -54.9017 C.ar      11 UNK        -0.0735 
     14 C14        30.4080  -43.2903  -54.4313 C.ar      11 UNK        -0.0945 
     15 C15        28.8275  -43.6456  -56.3704 C.3       11 UNK         0.0169 
     16 S16        27.6921  -42.2491  -56.6394 S.3       11 UNK        -0.2669 
     17 C17        27.9890  -41.8598  -58.4001 C.3       11 UNK        -0.0850 
     18 CA         26.9132  -42.4490  -59.3597 C.3       10 UNK         0.0855 
     19 C          27.0366  -41.8912  -60.8117 C.2       10 UNK         0.5543 
     20 N          26.7151  -42.6608  -61.8446 N.am      10 UNK        -0.7343 
     21 O          27.3973  -40.7331  -61.0087 O.2       10 UNK        -0.5027 
     22 N          26.8008  -43.9169  -59.2768 N.am      10 UNK        -0.4495 
     23 C          27.7540  -44.8140  -59.5562 C.2       10 UNK         0.4903 
     24 O          28.8900  -44.5090  -59.9226 O.2       10 UNK        -0.4860 
     25 CA         27.3736  -46.3014  -59.3847 C.3       9 UNK         0.0227 
     26 CB         28.5661  -47.2387  -59.6480 C.3       9 UNK        -0.1964 
     27 N          26.8076  -46.6112  -58.0649 N.am      9 UNK        -0.4231 
     28 C          25.5780  -46.2837  -57.6433 C.2       9 UNK         0.5014 
     29 O          24.7663  -45.6547  -58.3270 O.2       9 UNK        -0.5270 
     30 CA         25.2112  -46.7322  -56.2182 C.3       8 UNK         0.0284 
     31 CB         23.8359  -46.2140  -55.7468 C.3       8 UNK        -0.1977 
     32 N          25.3147  -48.1867  -56.0611 N.am      8 UNK        -0.4342 
     33 C          24.6214  -49.1421  -56.7000 C.2       8 UNK         0.5039 
     34 O          23.7146  -48.9234  -57.5051 O.2       8 UNK        -0.5547 
     35 CA         25.0169  -50.5951  -56.3593 C.3       7 UNK         0.0281 
     36 CB         24.4747  -51.6261  -57.3737 C.3       7 UNK        -0.1963 
     37 N          26.4649  -50.7563  -56.1562 N.am      7 UNK        -0.4444 
     38 C          27.4358  -50.5585  -57.0623 C.2       7 UNK         0.5104 
     39 O          27.2326  -50.2839  -58.2448 O.2       7 UNK        -0.5100 
     40 CA         28.8777  -50.6535  -56.5231 C.3       6 UNK         0.0396 
     41 CB         29.9435  -50.2225  -57.5518 C.3       6 UNK        -0.1801 
     42 N          29.0628  -49.9241  -55.2605 N.am      6 UNK        -0.4747 
     43 C          28.8409  -48.6182  -55.0270 C.2       6 UNK         0.5012 
     44 O          28.3978  -47.8372  -55.8718 O.2       6 UNK        -0.5003 
     45 CA         29.1164  -48.0998  -53.5979 C.3       5 UNK         0.0782 
     46 C46        27.7903  -47.7272  -52.8923 C.3       11 UNK        -0.0868 
     47 S47        28.0886  -46.8999  -51.2944 S.3       11 UNK        -0.2515 
     48 C48        27.6619  -45.1744  -51.6861 C.3       11 UNK         0.0199 
     49 N          29.8957  -49.0548  -52.7968 N.am      5 UNK        -0.4607 
     50 C          31.2203  -49.2019  -52.8806 C.2       4 UNK         0.5031 
     51 O          31.9422  -48.5103  -53.6089 O.2       4 UNK        -0.5119 
     52 CA         31.8402  -50.3113  -52.0163 C.3       4 UNK         0.0263 
     53 CB         31.4331  -51.7057  -52.5336 C.3       4 UNK        -0.1967 
     54 N          33.2787  -50.1318  -52.1114 N.am      4 UNK        -0.4237 
     55 C          34.2781  -50.7478  -51.4738 C.2       3 UNK         0.4908 
     56 O          34.1165  -51.6087  -50.6081 O.2       3 UNK        -0.5102 
     57 CA         35.7042  -50.2933  -51.8614 C.3       3 UNK         0.0241 
     58 CB         36.6973  -51.4705  -51.9614 C.3       3 UNK        -0.1971 
     59 N          35.7249  -49.4451  -53.0680 N.am      3 UNK        -0.4139 
     60 C          35.4266  -49.8044  -54.3298 C.2       2 UNK         0.5016 
     61 O          35.2945  -50.9725  -54.6963 O.2       2 UNK        -0.5319 
     62 CA         35.1352  -48.6620  -55.3230 C.3       2 UNK         0.0286 
     63 CB         34.1632  -49.0984  -56.4366 C.3       2 UNK        -0.1963 
     64 N          34.5528  -47.5057  -54.6316 N.am      2 UNK        -0.4790 
     65 C          35.2019  -46.3620  -54.3754 C.2       1 UNK         0.5024 
     66 O          36.3585  -46.1428  -54.7369 O.2       1 UNK        -0.4888 
     67 H67        32.9802  -48.0153  -50.1876 H         1 UNK         0.0892 
     68 H68        32.9435  -46.3609  -49.5813 H         1 UNK         0.0892 
     69 H69        31.8640  -46.8435  -50.8925 H         1 UNK         0.0892 
     70 H70        32.5827  -45.6495  -52.6631 H         1 UNK         0.3107 
     71 H71        35.2304  -44.7296  -53.0217 H         1 UNK         0.0773 
     72 H72        32.7449  -44.7343  -54.8031 H         1 UNK         0.0680 
     73 H73        34.2610  -44.1298  -55.3971 H         1 UNK         0.0680 
     74 H74        32.4473  -43.5418  -51.7218 H         1 UNK         0.0650 
     75 H75        31.8831  -41.9344  -52.0678 H         1 UNK         0.0650 
     76 H76        30.1348  -44.1707  -51.1647 H         1 UNK         0.1397 
     77 H77        27.3576  -44.7707  -54.3745 H         1 UNK         0.1363 
     78 H78        31.0706  -42.7875  -55.1214 H         1 UNK         0.1355 
     79 H79        28.3602  -44.5668  -56.7181 H         1 UNK         0.0707 
     80 H80        29.7324  -43.5159  -56.9659 H         1 UNK         0.0707 
     81 H81        27.9975  -40.7709  -58.4736 H         1 UNK         0.1034 
     82 H82        28.9901  -42.1746  -58.6969 H         1 UNK         0.1034 
     83 H83        25.9477  -42.0772  -59.0153 H         1 UNK         0.0482 
     84 H84        26.7862  -42.2907  -62.7794 H         1 UNK         0.3460 
     85 H85        26.4030  -43.6070  -61.6964 H         1 UNK         0.3460 
     86 H86        25.8973  -44.2802  -58.9839 H         1 UNK         0.2989 
     87 H87        26.6135  -46.5205  -60.1373 H         1 UNK         0.0559 
     88 H88        28.2663  -48.2849  -59.6037 H         1 UNK         0.0848 
     89 H89        29.3652  -47.0829  -58.9224 H         1 UNK         0.0848 
     90 H90        28.9876  -47.0716  -60.6401 H         1 UNK         0.0848 
     91 H91        27.4153  -47.1065  -57.4168 H         1 UNK         0.3144 
     92 H92        25.9632  -46.2966  -55.5601 H         1 UNK         0.0727 
     93 H93        23.6292  -46.5151  -54.7199 H         1 UNK         0.0790 
     94 H94        23.0238  -46.5821  -56.3745 H         1 UNK         0.0790 
     95 H95        23.8004  -45.1243  -55.7788 H         1 UNK         0.0790 
     96 H96        26.0746  -48.4979  -55.4746 H         1 UNK         0.3215 
     97 H97        24.5485  -50.8119  -55.3978 H         1 UNK         0.0863 
     98 H98        24.7657  -52.6410  -57.1034 H         1 UNK         0.0808 
     99 H99        24.8343  -51.4308  -58.3844 H         1 UNK         0.0808 
    100 H100       23.3848  -51.6015  -57.4093 H         1 UNK         0.0808 
    101 H101       26.7513  -50.9944  -55.2164 H         1 UNK         0.3118 
    102 H102       29.0472  -51.7082  -56.3010 H         1 UNK         0.0546 
    103 H103       29.8516  -49.1688  -57.8113 H         1 UNK         0.0828 
    104 H104       29.8553  -50.7959  -58.4754 H         1 UNK         0.0828 
    105 H105       30.9505  -50.3827  -57.1672 H         1 UNK         0.0828 
    106 H106       29.4091  -50.4748  -54.4882 H         1 UNK         0.3005 
    107 H107       29.7032  -47.1853  -53.7189 H         1 UNK         0.1257 
    108 H108       27.1777  -47.0775  -53.5187 H         1 UNK         0.0775 
    109 H109       27.1879  -48.6185  -52.7074 H         1 UNK         0.0775 
    110 H110       26.6437  -45.1296  -52.0762 H         1 UNK         0.0840 
    111 H111       27.6532  -44.5973  -50.7603 H         1 UNK         0.0840 
    112 H112       29.3731  -49.6235  -52.1458 H         1 UNK         0.2987 
    113 H113       31.5291  -50.1797  -50.9784 H         1 UNK         0.0785 
    114 H114       31.8905  -52.5001  -51.9439 H         1 UNK         0.0798 
    115 H115       31.7315  -51.8513  -53.5729 H         1 UNK         0.0798 
    116 H116       30.3542  -51.8527  -52.4760 H         1 UNK         0.0798 
    117 H117       33.5189  -49.4272  -52.7974 H         1 UNK         0.3079 
    118 H118       36.0410  -49.6513  -51.0460 H         1 UNK         0.0794 
    119 H119       36.8022  -51.9722  -50.9987 H         1 UNK         0.0786 
    120 H120       37.6892  -51.1298  -52.2580 H         1 UNK         0.0786 
    121 H121       36.3699  -52.2224  -52.6796 H         1 UNK         0.0786 
    122 H122       35.8056  -48.4530  -52.8764 H         1 UNK         0.3032 
    123 H123       36.0871  -48.3987  -55.7895 H         1 UNK         0.1094 
    124 H124       33.2098  -49.4370  -56.0283 H         1 UNK         0.0794 
    125 H125       33.9589  -48.2798  -57.1269 H         1 UNK         0.0794 
    126 H126       34.5781  -49.9181  -57.0245 H         1 UNK         0.0794 
    127 H127       33.5991  -47.6167  -54.2970 H         1 UNK         0.3016 
@<TRIPOS>BOND
     1    1    2 1    
     2    1   67 1    
     3    1   68 1    
     4    1   69 1    
     5    2    3 2    
     6    2    4 am   BACKBONE|DICT|INTERRES
     7    4    5 1    
     8    4   70 1    
     9    5    6 1    
    10    5   65 1    
    11    5   71 1    
    12    6    7 1    
    13    6   72 1    
    14    6   73 1    
    15    7    8 1    
    16    8    9 1    
    17    8   74 1    
    18    8   75 1    
    19    9   10 ar   
    20    9   14 ar   
    21   10   11 ar   
    22   10   76 1    
    23   11   12 ar   
    24   11   48 1    
    25   12   13 ar   
    26   12   77 1    
    27   13   14 ar   
    28   13   15 1    
    29   14   78 1    
    30   15   16 1    
    31   15   79 1    
    32   15   80 1    
    33   16   17 1    
    34   17   18 1    
    35   17   81 1    
    36   17   82 1    
    37   18   19 1    
    38   18   22 1    
    39   18   83 1    
    40   19   20 am   BACKBONE|DICT|INTERRES
    41   19   21 2    
    42   20   84 1    
    43   20   85 1    
    44   22   23 am   BACKBONE|DICT|INTERRES
    45   22   86 1    
    46   23   24 2    
    47   23   25 1    
    48   25   26 1    
    49   25   27 1    
    50   25   87 1    
    51   26   88 1    
    52   26   89 1    
    53   26   90 1    
    54   27   28 am   BACKBONE|DICT|INTERRES
    55   27   91 1    
    56   28   29 2    
    57   28   30 1    
    58   30   31 1    
    59   30   32 1    
    60   30   92 1    
    61   31   93 1    
    62   31   94 1    
    63   31   95 1    
    64   32   33 am   BACKBONE|DICT|INTERRES
    65   32   96 1    
    66   33   34 2    
    67   33   35 1    
    68   35   36 1    
    69   35   37 1    
    70   35   97 1    
    71   36   98 1    
    72   36   99 1    
    73   36  100 1    
    74   37   38 am   BACKBONE|DICT|INTERRES
    75   37  101 1    
    76   38   39 2    
    77   38   40 1    
    78   40   41 1    
    79   40   42 1    
    80   40  102 1    
    81   41  103 1    
    82   41  104 1    
    83   41  105 1    
    84   42   43 am   BACKBONE|DICT|INTERRES
    85   42  106 1    
    86   43   44 2    
    87   43   45 1    
    88   45   46 1    
    89   45   49 1    
    90   45  107 1    
    91   46   47 1    
    92   46  108 1    
    93   46  109 1    
    94   47   48 1    
    95   48  110 1    
    96   48  111 1    
    97   49   50 am   BACKBONE|DICT|INTERRES
    98   49  112 1    
    99   50   51 2    
   100   50   52 1    
   101   52   53 1    
   102   52   54 1    
   103   52  113 1    
   104   53  114 1    
   105   53  115 1    
   106   53  116 1    
   107   54   55 am   BACKBONE|DICT|INTERRES
   108   54  117 1    
   109   55   56 2    
   110   55   57 1    
   111   57   58 1    
   112   57   59 1    
   113   57  118 1    
   114   58  119 1    
   115   58  120 1    
   116   58  121 1    
   117   59   60 am   BACKBONE|DICT|INTERRES
   118   59  122 1    
   119   60   61 2    
   120   60   62 1    
   121   62   63 1    
   122   62   64 1    
   123   62  123 1    
   124   63  124 1    
   125   63  125 1    
   126   63  126 1    
   127   64   65 am   BACKBONE|DICT|INTERRES
   128   64  127 1    
   129   65   66 2    
@<TRIPOS>SUBSTRUCTURE
     1 UNK         1 GROUP             0       ****    0 ROOT    
