@<TRIPOS>MOLECULE
3R134
127   129    1
SMALL
USER_CHARGES


@<TRIPOS>ATOM
      1 CA         30.2047  -45.7199  -52.5962 C.3       0 UNK        -0.1968 
      2 C          31.5699  -45.8731  -51.9400 C.2       0 UNK         0.4852 
      3 O          31.7697  -46.8016  -51.1559 O.2       0 UNK        -0.5359 
      4 N          32.5063  -44.9675  -52.2555 N.am      1 UNK        -0.4300 
      5 CA         33.7962  -44.7961  -51.5714 C.3       1 UNK         0.0863 
      6 C6         34.5775  -43.5634  -52.0884 C.3       11 UNK        -0.0953 
      7 S7         33.6116  -42.0181  -51.9853 S.3       11 UNK        -0.2369 
      8 C8         33.5597  -41.4859  -53.7257 C.3       11 UNK         0.0226 
      9 C9         32.6039  -42.3274  -54.5596 C.ar      11 UNK        -0.0699 
     10 C10        33.0887  -43.3668  -55.3610 C.ar      11 UNK        -0.0804 
     11 C11        32.2151  -44.1187  -56.1518 C.ar      11 UNK        -0.0871 
     12 C12        30.8508  -43.8150  -56.1468 C.ar      11 UNK        -0.1008 
     13 C13        30.3530  -42.7842  -55.3467 C.ar      11 UNK        -0.0735 
     14 C14        31.2339  -42.0434  -54.5531 C.ar      11 UNK        -0.0945 
     15 C15        28.8638  -42.4779  -55.3535 C.3       11 UNK         0.0169 
     16 S16        28.3921  -41.6161  -56.8831 S.3       11 UNK        -0.2669 
     17 C17        26.5733  -41.5459  -56.7185 C.3       11 UNK        -0.0850 
     18 CA         25.8065  -42.6190  -57.5448 C.3       10 UNK         0.0855 
     19 C          26.0413  -42.5257  -59.0767 C.2       10 UNK         0.5543 
     20 N          25.6380  -41.4273  -59.7007 N.am      10 UNK        -0.7343 
     21 O          26.5822  -43.4350  -59.7050 O.2       10 UNK        -0.5027 
     22 N          26.0391  -43.9825  -57.0571 N.am      10 UNK        -0.4495 
     23 C          25.4375  -44.5399  -56.0017 C.2       10 UNK         0.4903 
     24 O          24.6740  -43.9234  -55.2565 O.2       10 UNK        -0.4860 
     25 CA         25.7430  -46.0265  -55.7167 C.3       9 UNK         0.0227 
     26 CB         24.5839  -46.7319  -54.9811 C.3       9 UNK        -0.1964 
     27 N          26.1569  -46.8033  -56.8941 N.am      9 UNK        -0.4231 
     28 C          25.4612  -47.0296  -58.0213 C.2       9 UNK         0.5014 
     29 O          24.3352  -46.5840  -58.2435 O.2       9 UNK        -0.5270 
     30 CA         26.1405  -47.9139  -59.0781 C.3       8 UNK         0.0284 
     31 CB         27.2817  -47.1526  -59.7749 C.3       8 UNK        -0.1977 
     32 N          26.6687  -49.1326  -58.4637 N.am      8 UNK        -0.4342 
     33 C          26.0933  -50.3420  -58.5264 C.2       8 UNK         0.5039 
     34 O          25.0967  -50.5948  -59.2048 O.2       8 UNK        -0.5547 
     35 CA         26.7263  -51.4663  -57.6800 C.3       7 UNK         0.0281 
     36 CB         27.7422  -52.2620  -58.5149 C.3       7 UNK        -0.1963 
     37 N          27.3828  -50.9709  -56.4672 N.am      7 UNK        -0.4444 
     38 C          26.7454  -50.3728  -55.4491 C.2       7 UNK         0.5104 
     39 O          25.5196  -50.3328  -55.3463 O.2       7 UNK        -0.5100 
     40 CA         27.6060  -49.6613  -54.3855 C.3       6 UNK         0.0396 
     41 CB         27.5749  -50.4403  -53.0621 C.3       6 UNK        -0.1801 
     42 N          29.0009  -49.4233  -54.7809 N.am      6 UNK        -0.4747 
     43 C          29.3964  -48.6708  -55.8224 C.2       6 UNK         0.5012 
     44 O          28.6085  -48.0855  -56.5663 O.2       6 UNK        -0.5003 
     45 CA         30.9084  -48.5495  -56.1097 C.3       5 UNK         0.0782 
     46 C46        31.4196  -47.2296  -55.4963 C.3       11 UNK        -0.0868 
     47 S47        33.0845  -46.7551  -56.0566 S.3       11 UNK        -0.2515 
     48 C48        32.7444  -45.2496  -57.0239 C.3       11 UNK         0.0199 
     49 N          31.6959  -49.6816  -55.6183 N.am      5 UNK        -0.4607 
     50 C          31.5048  -50.9823  -55.8740 C.2       4 UNK         0.5031 
     51 O          30.6757  -51.4120  -56.6767 O.2       4 UNK        -0.5119 
     52 CA         32.3382  -51.9639  -55.0271 C.3       4 UNK         0.0263 
     53 CB         33.5788  -52.4253  -55.8069 C.3       4 UNK        -0.1967 
     54 N          32.7605  -51.4024  -53.7347 N.am      4 UNK        -0.4237 
     55 C          31.9444  -50.9678  -52.7633 C.2       3 UNK         0.4908 
     56 O          30.7186  -51.0523  -52.8229 O.2       3 UNK        -0.5102 
     57 CA         32.5854  -50.2524  -51.5610 C.3       3 UNK         0.0241 
     58 CB         33.1993  -51.2573  -50.5665 C.3       3 UNK        -0.1971 
     59 N          33.5331  -49.1887  -51.9331 N.am      3 UNK        -0.4139 
     60 C          34.7322  -49.3054  -52.5276 C.2       2 UNK         0.5016 
     61 O          35.2237  -50.3883  -52.8507 O.2       2 UNK        -0.5319 
     62 CA         35.5028  -48.0151  -52.8650 C.3       2 UNK         0.0286 
     63 CB         36.0548  -48.0592  -54.3014 C.3       2 UNK        -0.1963 
     64 N          34.6938  -46.8016  -52.6946 N.am      2 UNK        -0.4790 
     65 C          34.7054  -46.0425  -51.5894 C.2       1 UNK         0.5024 
     66 O          35.3938  -46.2944  -50.5995 O.2       1 UNK        -0.4888 
     67 H67        29.5179  -45.2251  -51.9103 H         1 UNK         0.0892 
     68 H68        29.7852  -46.6944  -52.8450 H         1 UNK         0.0892 
     69 H69        30.2591  -45.1271  -53.5084 H         1 UNK         0.0892 
     70 H70        32.2831  -44.2398  -52.9214 H         1 UNK         0.3107 
     71 H71        33.5559  -44.6125  -50.5219 H         1 UNK         0.0773 
     72 H72        34.9145  -43.7239  -53.1132 H         1 UNK         0.0680 
     73 H73        35.4833  -43.4158  -51.4970 H         1 UNK         0.0680 
     74 H74        33.2448  -40.4419  -53.7600 H         1 UNK         0.0650 
     75 H75        34.5662  -41.5098  -54.1466 H         1 UNK         0.0650 
     76 H76        34.1468  -43.5898  -55.3772 H         1 UNK         0.1397 
     77 H77        30.1688  -44.3784  -56.7695 H         1 UNK         0.1363 
     78 H78        30.8569  -41.2375  -53.9380 H         1 UNK         0.1355 
     79 H79        28.5898  -41.8665  -54.4923 H         1 UNK         0.0707 
     80 H80        28.3019  -43.4089  -55.2677 H         1 UNK         0.0707 
     81 H81        26.2519  -40.5480  -57.0202 H         1 UNK         0.1034 
     82 H82        26.2998  -41.6227  -55.6651 H         1 UNK         0.1034 
     83 H83        24.7394  -42.4244  -57.4188 H         1 UNK         0.0482 
     84 H84        25.1884  -40.6756  -59.2020 H         1 UNK         0.3460 
     85 H85        25.7846  -41.3499  -60.6950 H         1 UNK         0.3460 
     86 H86        26.6210  -44.5483  -57.6597 H         1 UNK         0.2989 
     87 H87        26.6036  -46.0281  -55.0463 H         1 UNK         0.0559 
     88 H88        23.6656  -46.7174  -55.5689 H         1 UNK         0.0848 
     89 H89        24.3677  -46.2469  -54.0285 H         1 UNK         0.0848 
     90 H90        24.8234  -47.7717  -54.7628 H         1 UNK         0.0848 
     91 H91        27.0877  -47.2128  -56.8246 H         1 UNK         0.3144 
     92 H92        25.3943  -48.1649  -59.8351 H         1 UNK         0.0727 
     93 H93        26.9137  -46.2332  -60.2327 H         1 UNK         0.0790 
     94 H94        27.7272  -47.7525  -60.5685 H         1 UNK         0.0790 
     95 H95        28.0766  -46.8761  -59.0811 H         1 UNK         0.0790 
     96 H96        27.4672  -49.0121  -57.8493 H         1 UNK         0.3215 
     97 H97        25.9239  -52.1423  -57.3766 H         1 UNK         0.0863 
     98 H98        28.1444  -53.1051  -57.9528 H         1 UNK         0.0808 
     99 H99        28.5813  -51.6402  -58.8302 H         1 UNK         0.0808 
    100 H100       27.2771  -52.6653  -59.4155 H         1 UNK         0.0808 
    101 H101       28.3954  -50.9948  -56.4529 H         1 UNK         0.3118 
    102 H102       27.1510  -48.6844  -54.2111 H         1 UNK         0.0546 
    103 H103       26.5512  -50.5762  -52.7108 H         1 UNK         0.0828 
    104 H104       28.1181  -49.9137  -52.2772 H         1 UNK         0.0828 
    105 H105       28.0170  -51.4315  -53.1690 H         1 UNK         0.0828 
    106 H106       29.7046  -49.8957  -54.2217 H         1 UNK         0.3005 
    107 H107       31.0221  -48.5102  -57.1952 H         1 UNK         0.1257 
    108 H108       31.4631  -47.3266  -54.4132 H         1 UNK         0.0775 
    109 H109       30.7245  -46.4171  -55.7008 H         1 UNK         0.0775 
    110 H110       33.6650  -44.9299  -57.5144 H         1 UNK         0.0840 
    111 H111       32.0409  -45.4853  -57.8241 H         1 UNK         0.0840 
    112 H112       32.4264  -49.4456  -54.9646 H         1 UNK         0.2987 
    113 H113       31.7105  -52.8337  -54.8231 H         1 UNK         0.0785 
    114 H114       33.2974  -52.8645  -56.7652 H         1 UNK         0.0798 
    115 H115       34.1346  -53.1836  -55.2550 H         1 UNK         0.0798 
    116 H116       34.2571  -51.5961  -56.0132 H         1 UNK         0.0798 
    117 H117       33.7589  -51.2635  -53.5880 H         1 UNK         0.3079 
    118 H118       31.7744  -49.7405  -51.0397 H         1 UNK         0.0794 
    119 H119       34.0085  -51.8374  -51.0106 H         1 UNK         0.0786 
    120 H120       32.4470  -51.9673  -50.2204 H         1 UNK         0.0786 
    121 H121       33.5947  -50.7502  -49.6864 H         1 UNK         0.0786 
    122 H122       33.2056  -48.2507  -51.7234 H         1 UNK         0.3032 
    123 H123       36.3608  -47.9825  -52.1896 H         1 UNK         0.1094 
    124 H124       36.8138  -48.8363  -54.4009 H         1 UNK         0.0794 
    125 H125       35.2766  -48.2810  -55.0304 H         1 UNK         0.0794 
    126 H126       36.5234  -47.1156  -54.5813 H         1 UNK         0.0794 
    127 H127       34.0967  -46.5342  -53.4657 H         1 UNK         0.3016 
@<TRIPOS>BOND
     1    1    2 1    
     2    1   67 1    
     3    1   68 1    
     4    1   69 1    
     5    2    3 2    
     6    2    4 am   BACKBONE|DICT|INTERRES
     7    4    5 1    
     8    4   70 1    
     9    5    6 1    
    10    5   65 1    
    11    5   71 1    
    12    6    7 1    
    13    6   72 1    
    14    6   73 1    
    15    7    8 1    
    16    8    9 1    
    17    8   74 1    
    18    8   75 1    
    19    9   10 ar   
    20    9   14 ar   
    21   10   11 ar   
    22   10   76 1    
    23   11   12 ar   
    24   11   48 1    
    25   12   13 ar   
    26   12   77 1    
    27   13   14 ar   
    28   13   15 1    
    29   14   78 1    
    30   15   16 1    
    31   15   79 1    
    32   15   80 1    
    33   16   17 1    
    34   17   18 1    
    35   17   81 1    
    36   17   82 1    
    37   18   19 1    
    38   18   22 1    
    39   18   83 1    
    40   19   20 am   BACKBONE|DICT|INTERRES
    41   19   21 2    
    42   20   84 1    
    43   20   85 1    
    44   22   23 am   BACKBONE|DICT|INTERRES
    45   22   86 1    
    46   23   24 2    
    47   23   25 1    
    48   25   26 1    
    49   25   27 1    
    50   25   87 1    
    51   26   88 1    
    52   26   89 1    
    53   26   90 1    
    54   27   28 am   BACKBONE|DICT|INTERRES
    55   27   91 1    
    56   28   29 2    
    57   28   30 1    
    58   30   31 1    
    59   30   32 1    
    60   30   92 1    
    61   31   93 1    
    62   31   94 1    
    63   31   95 1    
    64   32   33 am   BACKBONE|DICT|INTERRES
    65   32   96 1    
    66   33   34 2    
    67   33   35 1    
    68   35   36 1    
    69   35   37 1    
    70   35   97 1    
    71   36   98 1    
    72   36   99 1    
    73   36  100 1    
    74   37   38 am   BACKBONE|DICT|INTERRES
    75   37  101 1    
    76   38   39 2    
    77   38   40 1    
    78   40   41 1    
    79   40   42 1    
    80   40  102 1    
    81   41  103 1    
    82   41  104 1    
    83   41  105 1    
    84   42   43 am   BACKBONE|DICT|INTERRES
    85   42  106 1    
    86   43   44 2    
    87   43   45 1    
    88   45   46 1    
    89   45   49 1    
    90   45  107 1    
    91   46   47 1    
    92   46  108 1    
    93   46  109 1    
    94   47   48 1    
    95   48  110 1    
    96   48  111 1    
    97   49   50 am   BACKBONE|DICT|INTERRES
    98   49  112 1    
    99   50   51 2    
   100   50   52 1    
   101   52   53 1    
   102   52   54 1    
   103   52  113 1    
   104   53  114 1    
   105   53  115 1    
   106   53  116 1    
   107   54   55 am   BACKBONE|DICT|INTERRES
   108   54  117 1    
   109   55   56 2    
   110   55   57 1    
   111   57   58 1    
   112   57   59 1    
   113   57  118 1    
   114   58  119 1    
   115   58  120 1    
   116   58  121 1    
   117   59   60 am   BACKBONE|DICT|INTERRES
   118   59  122 1    
   119   60   61 2    
   120   60   62 1    
   121   62   63 1    
   122   62   64 1    
   123   62  123 1    
   124   63  124 1    
   125   63  125 1    
   126   63  126 1    
   127   64   65 am   BACKBONE|DICT|INTERRES
   128   64  127 1    
   129   65   66 2    
@<TRIPOS>SUBSTRUCTURE
     1 UNK         1 GROUP             0       ****    0 ROOT    
