@<TRIPOS>MOLECULE
3R134
127   129    1
SMALL
USER_CHARGES


@<TRIPOS>ATOM
      1 CA         38.9752  -45.1000  -52.6225 C.3       0 UNK        -0.1968 
      2 C          37.7473  -45.7488  -53.2437 C.2       0 UNK         0.4852 
      3 O          37.8739  -46.7562  -53.9424 O.2       0 UNK        -0.5359 
      4 N          36.5575  -45.1898  -52.9875 N.am      1 UNK        -0.4300 
      5 CA         35.2607  -45.6487  -53.5030 C.3       1 UNK         0.0863 
      6 C6         34.2201  -44.5011  -53.5265 C.3       11 UNK        -0.0953 
      7 S7         34.6995  -43.1200  -54.6165 S.3       11 UNK        -0.2369 
      8 C8         33.6094  -41.7941  -54.0038 C.3       11 UNK         0.0226 
      9 C9         32.1401  -42.1777  -54.1091 C.ar      11 UNK        -0.0699 
     10 C10        31.4602  -42.6655  -52.9895 C.ar      11 UNK        -0.0804 
     11 C11        30.1281  -43.0767  -53.0883 C.ar      11 UNK        -0.0871 
     12 C12        29.4645  -42.9702  -54.3141 C.ar      11 UNK        -0.1008 
     13 C13        30.1298  -42.4650  -55.4361 C.ar      11 UNK        -0.0735 
     14 C14        31.4671  -42.0711  -55.3291 C.ar      11 UNK        -0.0945 
     15 C15        29.4091  -42.3623  -56.7688 C.3       11 UNK         0.0169 
     16 S16        29.5395  -43.9245  -57.6843 S.3       11 UNK        -0.2669 
     17 C17        28.5299  -43.5420  -59.1577 C.3       11 UNK        -0.0850 
     18 CA         26.9967  -43.6611  -58.9298 C.3       10 UNK         0.0855 
     19 C          26.2409  -43.5008  -60.2820 C.2       10 UNK         0.5543 
     20 N          25.6428  -44.5488  -60.8383 N.am      10 UNK        -0.7343 
     21 O          26.2033  -42.4045  -60.8347 O.2       10 UNK        -0.5027 
     22 N          26.6567  -44.8732  -58.1748 N.am      10 UNK        -0.4495 
     23 C          25.4635  -45.1819  -57.6532 C.2       10 UNK         0.4903 
     24 O          24.4921  -44.4247  -57.6635 O.2       10 UNK        -0.4860 
     25 CA         25.3486  -46.5800  -57.0119 C.3       9 UNK         0.0227 
     26 CB         23.9242  -47.1652  -57.1005 C.3       9 UNK        -0.1964 
     27 N          26.3408  -47.5359  -57.5246 N.am      9 UNK        -0.4231 
     28 C          26.4909  -47.9539  -58.7930 C.2       9 UNK         0.5014 
     29 O          25.7711  -47.5981  -59.7275 O.2       9 UNK        -0.5270 
     30 CA         27.6716  -48.8922  -59.0748 C.3       8 UNK         0.0284 
     31 CB         28.9380  -48.0769  -59.3920 C.3       8 UNK        -0.1977 
     32 N          27.9281  -49.7745  -57.9341 N.am      8 UNK        -0.4342 
     33 C          27.5649  -51.0618  -57.8790 C.2       8 UNK         0.5039 
     34 O          27.0324  -51.6690  -58.8093 O.2       8 UNK        -0.5547 
     35 CA         27.8415  -51.8062  -56.5638 C.3       7 UNK         0.0281 
     36 CB         29.3017  -52.2851  -56.5084 C.3       7 UNK        -0.1963 
     37 N          27.5348  -51.0188  -55.3666 N.am      7 UNK        -0.4444 
     38 C          26.2968  -50.6871  -54.9696 C.2       7 UNK         0.5104 
     39 O          25.2797  -50.9443  -55.6136 O.2       7 UNK        -0.5100 
     40 CA         26.1602  -49.9674  -53.6190 C.3       6 UNK         0.0396 
     41 CB         26.2153  -50.9828  -52.4661 C.3       6 UNK        -0.1801 
     42 N          27.2154  -48.9720  -53.4328 N.am      6 UNK        -0.4747 
     43 C          27.0254  -47.6451  -53.3943 C.2       6 UNK         0.5012 
     44 O          25.9177  -47.1093  -53.4334 O.2       6 UNK        -0.5003 
     45 CA         28.2834  -46.7529  -53.2936 C.3       5 UNK         0.0782 
     46 C46        28.4983  -46.3355  -51.8164 C.3       11 UNK        -0.0868 
     47 S47        30.0011  -45.3426  -51.5303 S.3       11 UNK        -0.2515 
     48 C48        29.4244  -43.6483  -51.8677 C.3       11 UNK         0.0199 
     49 N          29.4843  -47.3604  -53.8806 N.am      5 UNK        -0.4607 
     50 C          29.6115  -47.7915  -55.1423 C.2       4 UNK         0.5031 
     51 O          28.7108  -47.7507  -55.9812 O.2       4 UNK        -0.5119 
     52 CA         30.9456  -48.4536  -55.5174 C.3       4 UNK         0.0263 
     53 CB         31.9580  -47.3813  -55.9495 C.3       4 UNK        -0.1967 
     54 N          31.5464  -49.2938  -54.4727 N.am      4 UNK        -0.4237 
     55 C          30.9519  -50.2296  -53.7181 C.2       3 UNK         0.4908 
     56 O          29.7426  -50.4637  -53.7490 O.2       3 UNK        -0.5102 
     57 CA         31.8317  -51.0513  -52.7538 C.3       3 UNK         0.0241 
     58 CB         32.1952  -52.4093  -53.3851 C.3       3 UNK        -0.1971 
     59 N          33.0290  -50.3709  -52.2275 N.am      3 UNK        -0.4139 
     60 C          34.1061  -49.9306  -52.8933 C.2       2 UNK         0.5016 
     61 O          34.2497  -50.0234  -54.1146 O.2       2 UNK        -0.5319 
     62 CA         35.1960  -49.2322  -52.0646 C.3       2 UNK         0.0286 
     63 CB         36.4536  -50.1101  -51.9648 C.3       2 UNK        -0.1963 
     64 N          35.5513  -47.9455  -52.6650 N.am      2 UNK        -0.4790 
     65 C          34.7409  -46.8811  -52.7255 C.2       1 UNK         0.5024 
     66 O          33.6325  -46.8547  -52.1869 O.2       1 UNK        -0.4888 
     67 H67        39.6723  -44.7946  -53.4024 H         1 UNK         0.0892 
     68 H68        38.7180  -44.2194  -52.0342 H         1 UNK         0.0892 
     69 H69        39.4835  -45.8084  -51.9689 H         1 UNK         0.0892 
     70 H70        36.5169  -44.3741  -52.3934 H         1 UNK         0.3107 
     71 H71        35.4009  -45.9795  -54.5346 H         1 UNK         0.0773 
     72 H72        33.2536  -44.8669  -53.8788 H         1 UNK         0.0680 
     73 H73        34.0565  -44.1188  -52.5173 H         1 UNK         0.0680 
     74 H74        33.8730  -41.5595  -52.9713 H         1 UNK         0.0650 
     75 H75        33.7953  -40.8872  -54.5809 H         1 UNK         0.0650 
     76 H76        31.9771  -42.7578  -52.0441 H         1 UNK         0.1397 
     77 H77        28.4350  -43.2894  -54.4015 H         1 UNK         0.1363 
     78 H78        31.9911  -41.7006  -56.1996 H         1 UNK         0.1355 
     79 H79        28.3581  -42.1197  -56.6046 H         1 UNK         0.0707 
     80 H80        29.8274  -41.5511  -57.3668 H         1 UNK         0.0707 
     81 H81        28.7856  -42.5428  -59.5160 H         1 UNK         0.1034 
     82 H82        28.8462  -44.2290  -59.9455 H         1 UNK         0.1034 
     83 H83        26.6884  -42.8181  -58.3092 H         1 UNK         0.0482 
     84 H84        25.6698  -45.4566  -60.3918 H         1 UNK         0.3460 
     85 H85        25.1562  -44.4330  -61.7130 H         1 UNK         0.3460 
     86 H86        27.4023  -45.5464  -58.0823 H         1 UNK         0.2989 
     87 H87        25.5830  -46.4403  -55.9575 H         1 UNK         0.0559 
     88 H88        23.2043  -46.5228  -56.5920 H         1 UNK         0.0848 
     89 H89        23.8707  -48.1463  -56.6280 H         1 UNK         0.0848 
     90 H90        23.5926  -47.2706  -58.1338 H         1 UNK         0.0848 
     91 H91        27.0649  -47.7970  -56.8597 H         1 UNK         0.3144 
     92 H92        27.4220  -49.4788  -59.9615 H         1 UNK         0.0727 
     93 H93        29.2364  -47.4357  -58.5621 H         1 UNK         0.0790 
     94 H94        28.7779  -47.4322  -60.2574 H         1 UNK         0.0790 
     95 H95        29.7785  -48.7299  -59.6272 H         1 UNK         0.0790 
     96 H96        28.3300  -49.3413  -57.1099 H         1 UNK         0.3215 
     97 H97        27.1999  -52.6901  -56.5489 H         1 UNK         0.0863 
     98 H98        29.4895  -52.8811  -55.6152 H         1 UNK         0.0808 
     99 H99        30.0040  -51.4515  -56.5077 H         1 UNK         0.0808 
    100 H100       29.5397  -52.9102  -57.3701 H         1 UNK         0.0808 
    101 H101       28.3212  -50.7985  -54.7576 H         1 UNK         0.3118 
    102 H102       25.1771  -49.4921  -53.6006 H         1 UNK         0.0546 
    103 H103       27.1781  -51.4937  -52.4209 H         1 UNK         0.0828 
    104 H104       25.4444  -51.7461  -52.5801 H         1 UNK         0.0828 
    105 H105       26.0498  -50.4968  -51.5046 H         1 UNK         0.0828 
    106 H106       28.1685  -49.3224  -53.4105 H         1 UNK         0.3005 
    107 H107       28.0747  -45.8535  -53.8766 H         1 UNK         0.1257 
    108 H108       27.6327  -45.7875  -51.4388 H         1 UNK         0.0775 
    109 H109       28.5832  -47.2231  -51.1859 H         1 UNK         0.0775 
    110 H110       28.3420  -43.6240  -52.0000 H         1 UNK         0.0840 
    111 H111       29.6369  -43.0231  -50.9992 H         1 UNK         0.0840 
    112 H112       30.2826  -47.4337  -53.2664 H         1 UNK         0.2987 
    113 H113       30.7543  -49.1020  -56.3739 H         1 UNK         0.0785 
    114 H114       31.5483  -46.7498  -56.7399 H         1 UNK         0.0798 
    115 H115       32.8733  -47.8303  -56.3357 H         1 UNK         0.0798 
    116 H116       32.2292  -46.7282  -55.1192 H         1 UNK         0.0798 
    117 H117       32.5603  -49.2608  -54.4036 H         1 UNK         0.3079 
    118 H118       31.2077  -51.2554  -51.8821 H         1 UNK         0.0794 
    119 H119       32.7462  -53.0375  -52.6852 H         1 UNK         0.0786 
    120 H120       32.8038  -52.2929  -54.2826 H         1 UNK         0.0786 
    121 H121       31.2971  -52.9575  -53.6732 H         1 UNK         0.0786 
    122 H122       33.0032  -50.2002  -51.2312 H         1 UNK         0.3032 
    123 H123       34.8208  -49.0461  -51.0555 H         1 UNK         0.1094 
    124 H124       36.8827  -50.3132  -52.9471 H         1 UNK         0.0794 
    125 H125       37.2224  -49.6348  -51.3551 H         1 UNK         0.0794 
    126 H126       36.2230  -51.0718  -51.5043 H         1 UNK         0.0794 
    127 H127       36.4429  -47.8825  -53.1479 H         1 UNK         0.3016 
@<TRIPOS>BOND
     1    1    2 1    
     2    1   67 1    
     3    1   68 1    
     4    1   69 1    
     5    2    3 2    
     6    2    4 am   BACKBONE|DICT|INTERRES
     7    4    5 1    
     8    4   70 1    
     9    5    6 1    
    10    5   65 1    
    11    5   71 1    
    12    6    7 1    
    13    6   72 1    
    14    6   73 1    
    15    7    8 1    
    16    8    9 1    
    17    8   74 1    
    18    8   75 1    
    19    9   10 ar   
    20    9   14 ar   
    21   10   11 ar   
    22   10   76 1    
    23   11   12 ar   
    24   11   48 1    
    25   12   13 ar   
    26   12   77 1    
    27   13   14 ar   
    28   13   15 1    
    29   14   78 1    
    30   15   16 1    
    31   15   79 1    
    32   15   80 1    
    33   16   17 1    
    34   17   18 1    
    35   17   81 1    
    36   17   82 1    
    37   18   19 1    
    38   18   22 1    
    39   18   83 1    
    40   19   20 am   BACKBONE|DICT|INTERRES
    41   19   21 2    
    42   20   84 1    
    43   20   85 1    
    44   22   23 am   BACKBONE|DICT|INTERRES
    45   22   86 1    
    46   23   24 2    
    47   23   25 1    
    48   25   26 1    
    49   25   27 1    
    50   25   87 1    
    51   26   88 1    
    52   26   89 1    
    53   26   90 1    
    54   27   28 am   BACKBONE|DICT|INTERRES
    55   27   91 1    
    56   28   29 2    
    57   28   30 1    
    58   30   31 1    
    59   30   32 1    
    60   30   92 1    
    61   31   93 1    
    62   31   94 1    
    63   31   95 1    
    64   32   33 am   BACKBONE|DICT|INTERRES
    65   32   96 1    
    66   33   34 2    
    67   33   35 1    
    68   35   36 1    
    69   35   37 1    
    70   35   97 1    
    71   36   98 1    
    72   36   99 1    
    73   36  100 1    
    74   37   38 am   BACKBONE|DICT|INTERRES
    75   37  101 1    
    76   38   39 2    
    77   38   40 1    
    78   40   41 1    
    79   40   42 1    
    80   40  102 1    
    81   41  103 1    
    82   41  104 1    
    83   41  105 1    
    84   42   43 am   BACKBONE|DICT|INTERRES
    85   42  106 1    
    86   43   44 2    
    87   43   45 1    
    88   45   46 1    
    89   45   49 1    
    90   45  107 1    
    91   46   47 1    
    92   46  108 1    
    93   46  109 1    
    94   47   48 1    
    95   48  110 1    
    96   48  111 1    
    97   49   50 am   BACKBONE|DICT|INTERRES
    98   49  112 1    
    99   50   51 2    
   100   50   52 1    
   101   52   53 1    
   102   52   54 1    
   103   52  113 1    
   104   53  114 1    
   105   53  115 1    
   106   53  116 1    
   107   54   55 am   BACKBONE|DICT|INTERRES
   108   54  117 1    
   109   55   56 2    
   110   55   57 1    
   111   57   58 1    
   112   57   59 1    
   113   57  118 1    
   114   58  119 1    
   115   58  120 1    
   116   58  121 1    
   117   59   60 am   BACKBONE|DICT|INTERRES
   118   59  122 1    
   119   60   61 2    
   120   60   62 1    
   121   62   63 1    
   122   62   64 1    
   123   62  123 1    
   124   63  124 1    
   125   63  125 1    
   126   63  126 1    
   127   64   65 am   BACKBONE|DICT|INTERRES
   128   64  127 1    
   129   65   66 2    
@<TRIPOS>SUBSTRUCTURE
     1 UNK         1 GROUP             0       ****    0 ROOT    
