@<TRIPOS>MOLECULE
3R134
127   129    1
SMALL
USER_CHARGES


@<TRIPOS>ATOM
      1 CA         38.6225  -47.4192  -52.3434 C.3       0 UNK        -0.1968 
      2 C          37.2473  -47.2538  -52.9718 C.2       0 UNK         0.4852 
      3 O          36.6467  -48.2419  -53.3990 O.2       0 UNK        -0.5359 
      4 N          36.7288  -46.0160  -53.0129 N.am      1 UNK        -0.4300 
      5 CA         35.4387  -45.6607  -53.6244 C.3       1 UNK         0.0863 
      6 C6         35.2606  -44.1271  -53.7727 C.3       11 UNK        -0.0953 
      7 S7         34.3789  -43.6856  -55.3106 S.3       11 UNK        -0.2369 
      8 C8         33.4458  -42.2073  -54.8085 C.3       11 UNK         0.0226 
      9 C9         31.9925  -42.5197  -54.4769 C.ar      11 UNK        -0.0699 
     10 C10        31.6301  -42.9327  -53.1908 C.ar      11 UNK        -0.0804 
     11 C11        30.2854  -43.1399  -52.8645 C.ar      11 UNK        -0.0871 
     12 C12        29.3030  -42.9247  -53.8349 C.ar      11 UNK        -0.1008 
     13 C13        29.6520  -42.5440  -55.1331 C.ar      11 UNK        -0.0735 
     14 C14        31.0000  -42.3440  -55.4479 C.ar      11 UNK        -0.0945 
     15 C15        28.5695  -42.3132  -56.1816 C.3       11 UNK         0.0169 
     16 S16        27.4704  -43.7533  -56.3896 S.3       11 UNK        -0.2669 
     17 C17        28.5924  -44.9547  -57.1788 C.3       11 UNK        -0.0850 
     18 CA         28.2863  -45.1411  -58.6859 C.3       10 UNK         0.0855 
     19 C          29.4285  -45.9256  -59.3944 C.2       10 UNK         0.5543 
     20 N          29.1961  -47.1281  -59.9069 N.am      10 UNK        -0.7343 
     21 O          30.5426  -45.4199  -59.4975 O.2       10 UNK        -0.5027 
     22 N          26.9426  -45.7076  -58.8915 N.am      10 UNK        -0.4495 
     23 C          26.2321  -45.5837  -60.0242 C.2       10 UNK         0.4903 
     24 O          26.6188  -44.9285  -60.9928 O.2       10 UNK        -0.4860 
     25 CA         24.8719  -46.3023  -60.1195 C.3       9 UNK         0.0227 
     26 CB         24.8075  -47.2245  -61.3527 C.3       9 UNK        -0.1964 
     27 N          24.5738  -47.0699  -58.9132 N.am      9 UNK        -0.4231 
     28 C          23.3751  -47.4101  -58.4380 C.2       9 UNK         0.5014 
     29 O          22.3140  -47.1294  -58.9991 O.2       9 UNK        -0.5270 
     30 CA         23.3715  -48.1994  -57.1065 C.3       8 UNK         0.0284 
     31 CB         22.0101  -48.8607  -56.8190 C.3       8 UNK        -0.1977 
     32 N          24.4263  -49.2214  -57.0027 N.am      8 UNK        -0.4342 
     33 C          25.7389  -48.9951  -56.8567 C.2       8 UNK         0.5039 
     34 O          26.2385  -47.8661  -56.8630 O.2       8 UNK        -0.5547 
     35 CA         26.6502  -50.2237  -56.7627 C.3       7 UNK         0.0281 
     36 CB         27.5715  -50.3099  -57.9912 C.3       7 UNK        -0.1963 
     37 N          27.4607  -50.1255  -55.5514 N.am      7 UNK        -0.4444 
     38 C          27.1119  -50.6553  -54.3701 C.2       7 UNK         0.5104 
     39 O          26.1017  -51.3417  -54.2080 O.2       7 UNK        -0.5100 
     40 CA         28.0277  -50.3983  -53.1557 C.3       6 UNK         0.0396 
     41 CB         28.9295  -51.6158  -52.8987 C.3       6 UNK        -0.1801 
     42 N          28.8687  -49.2075  -53.2720 N.am      6 UNK        -0.4747 
     43 C          28.4263  -47.9432  -53.3364 C.2       6 UNK         0.5012 
     44 O          27.2387  -47.6305  -53.2463 O.2       6 UNK        -0.5003 
     45 CA         29.4969  -46.8505  -53.5549 C.3       5 UNK         0.0782 
     46 C46        29.9973  -46.3014  -52.1923 C.3       11 UNK        -0.0868 
     47 S47        28.8674  -45.0826  -51.4442 S.3       11 UNK        -0.2515 
     48 C48        29.8896  -43.5711  -51.4575 C.3       11 UNK         0.0199 
     49 N          30.6316  -47.2941  -54.3796 N.am      5 UNK        -0.4607 
     50 C          30.5879  -47.8860  -55.5830 C.2       4 UNK         0.5031 
     51 O          29.5507  -48.1539  -56.1831 O.2       4 UNK        -0.5119 
     52 CA         31.9324  -48.3058  -56.1932 C.3       4 UNK         0.0263 
     53 CB         32.6382  -47.1094  -56.8513 C.3       4 UNK        -0.1967 
     54 N          32.8031  -48.9088  -55.1829 N.am      4 UNK        -0.4237 
     55 C          32.6765  -50.1643  -54.7281 C.2       3 UNK         0.4908 
     56 O          31.8720  -50.9783  -55.1809 O.2       3 UNK        -0.5102 
     57 CA         33.5870  -50.5830  -53.5598 C.3       3 UNK         0.0241 
     58 CB         34.9052  -51.1717  -54.0865 C.3       3 UNK        -0.1971 
     59 N          33.8754  -49.4796  -52.6400 N.am      3 UNK        -0.4139 
     60 C          32.9686  -48.9326  -51.8140 C.2       2 UNK         0.5016 
     61 O          31.8156  -49.3477  -51.6953 O.2       2 UNK        -0.5319 
     62 CA         33.4019  -47.6824  -51.0207 C.3       2 UNK         0.0286 
     63 CB         33.9639  -48.0866  -49.6490 C.3       2 UNK        -0.1963 
     64 N          34.3866  -46.8499  -51.7212 N.am      2 UNK        -0.4790 
     65 C          34.2185  -46.3160  -52.9411 C.2       1 UNK         0.5024 
     66 O          33.1587  -46.3886  -53.5576 O.2       1 UNK        -0.4888 
     67 H67        39.3163  -47.8423  -53.0693 H         1 UNK         0.0892 
     68 H68        39.0307  -46.4699  -51.9972 H         1 UNK         0.0892 
     69 H69        38.5663  -48.0961  -51.4914 H         1 UNK         0.0892 
     70 H70        37.2609  -45.2464  -52.6312 H         1 UNK         0.3107 
     71 H71        35.4768  -46.0926  -54.6273 H         1 UNK         0.0773 
     72 H72        34.7606  -43.6966  -52.9031 H         1 UNK         0.0680 
     73 H73        36.2321  -43.6335  -53.8286 H         1 UNK         0.0680 
     74 H74        33.4886  -41.4850  -55.6250 H         1 UNK         0.0650 
     75 H75        33.9316  -41.7219  -53.9608 H         1 UNK         0.0650 
     76 H76        32.3957  -43.0761  -52.4411 H         1 UNK         0.1397 
     77 H77        28.2611  -43.0695  -53.5829 H         1 UNK         0.1363 
     78 H78        31.2778  -42.0282  -56.4443 H         1 UNK         0.1355 
     79 H79        27.9681  -41.4552  -55.8787 H         1 UNK         0.0707 
     80 H80        29.0062  -42.0578  -57.1484 H         1 UNK         0.0707 
     81 H81        29.6269  -44.6439  -57.0197 H         1 UNK         0.1034 
     82 H82        28.4798  -45.9041  -56.6561 H         1 UNK         0.1034 
     83 H83        28.2965  -44.1475  -59.1387 H         1 UNK         0.0482 
     84 H84        29.9423  -47.6198  -60.3716 H         1 UNK         0.3460 
     85 H85        28.2845  -47.5459  -59.8276 H         1 UNK         0.3460 
     86 H86        26.5890  -46.2464  -58.1107 H         1 UNK         0.2989 
     87 H87        24.1166  -45.5213  -60.2268 H         1 UNK         0.0559 
     88 H88        25.5402  -48.0298  -61.2897 H         1 UNK         0.0848 
     89 H89        25.0076  -46.6708  -62.2709 H         1 UNK         0.0848 
     90 H90        23.8216  -47.6766  -61.4611 H         1 UNK         0.0848 
     91 H91        25.3628  -47.3512  -58.3351 H         1 UNK         0.3144 
     92 H92        23.5502  -47.4645  -56.3187 H         1 UNK         0.0727 
     93 H93        22.0070  -49.3608  -55.8502 H         1 UNK         0.0790 
     94 H94        21.7522  -49.5979  -57.5803 H         1 UNK         0.0790 
     95 H95        21.2093  -48.1201  -56.7970 H         1 UNK         0.0790 
     96 H96        24.1104  -50.1806  -57.0342 H         1 UNK         0.3215 
     97 H97        26.0421  -51.1306  -56.7346 H         1 UNK         0.0863 
     98 H98        28.1964  -49.4220  -58.0942 H         1 UNK         0.0808 
     99 H99        26.9903  -50.4073  -58.9090 H         1 UNK         0.0808 
    100 H100       28.2316  -51.1752  -57.9306 H         1 UNK         0.0808 
    101 H101       28.2536  -49.4899  -55.6010 H         1 UNK         0.3118 
    102 H102       27.3832  -50.2615  -52.2851 H         1 UNK         0.0546 
    103 H103       29.5367  -51.4797  -52.0033 H         1 UNK         0.0828 
    104 H104       29.6040  -51.8003  -53.7359 H         1 UNK         0.0828 
    105 H105       28.3354  -52.5191  -52.7532 H         1 UNK         0.0828 
    106 H106       29.8677  -49.3601  -53.3209 H         1 UNK         0.3005 
    107 H107       29.0208  -46.0393  -54.1103 H         1 UNK         0.1257 
    108 H108       30.9658  -45.8181  -52.3165 H         1 UNK         0.0775 
    109 H109       30.1662  -47.1080  -51.4765 H         1 UNK         0.0775 
    110 H110       29.3292  -42.7628  -50.9860 H         1 UNK         0.0840 
    111 H111       30.7714  -43.7366  -50.8363 H         1 UNK         0.0840 
    112 H112       31.5516  -47.0670  -54.0081 H         1 UNK         0.2987 
    113 H113       31.7327  -49.0471  -56.9704 H         1 UNK         0.0785 
    114 H114       33.5951  -47.4003  -57.2846 H         1 UNK         0.0798 
    115 H115       32.0297  -46.7010  -57.6579 H         1 UNK         0.0798 
    116 H116       32.8213  -46.2983  -56.1466 H         1 UNK         0.0798 
    117 H117       33.4518  -48.2885  -54.7188 H         1 UNK         0.3079 
    118 H118       33.0662  -51.3628  -52.9995 H         1 UNK         0.0794 
    119 H119       35.5357  -51.5259  -53.2707 H         1 UNK         0.0786 
    120 H120       35.4767  -50.4379  -54.6564 H         1 UNK         0.0786 
    121 H121       34.7177  -52.0218  -54.7440 H         1 UNK         0.0786 
    122 H122       34.8011  -49.0671  -52.6972 H         1 UNK         0.3032 
    123 H123       32.5121  -47.0730  -50.8570 H         1 UNK         0.1094 
    124 H124       34.8771  -48.6757  -49.7435 H         1 UNK         0.0794 
    125 H125       34.1884  -47.2122  -49.0379 H         1 UNK         0.0794 
    126 H126       33.2428  -48.6896  -49.0950 H         1 UNK         0.0794 
    127 H127       35.2915  -46.7512  -51.2842 H         1 UNK         0.3016 
@<TRIPOS>BOND
     1    1    2 1    
     2    1   67 1    
     3    1   68 1    
     4    1   69 1    
     5    2    3 2    
     6    2    4 am   BACKBONE|DICT|INTERRES
     7    4    5 1    
     8    4   70 1    
     9    5    6 1    
    10    5   65 1    
    11    5   71 1    
    12    6    7 1    
    13    6   72 1    
    14    6   73 1    
    15    7    8 1    
    16    8    9 1    
    17    8   74 1    
    18    8   75 1    
    19    9   10 ar   
    20    9   14 ar   
    21   10   11 ar   
    22   10   76 1    
    23   11   12 ar   
    24   11   48 1    
    25   12   13 ar   
    26   12   77 1    
    27   13   14 ar   
    28   13   15 1    
    29   14   78 1    
    30   15   16 1    
    31   15   79 1    
    32   15   80 1    
    33   16   17 1    
    34   17   18 1    
    35   17   81 1    
    36   17   82 1    
    37   18   19 1    
    38   18   22 1    
    39   18   83 1    
    40   19   20 am   BACKBONE|DICT|INTERRES
    41   19   21 2    
    42   20   84 1    
    43   20   85 1    
    44   22   23 am   BACKBONE|DICT|INTERRES
    45   22   86 1    
    46   23   24 2    
    47   23   25 1    
    48   25   26 1    
    49   25   27 1    
    50   25   87 1    
    51   26   88 1    
    52   26   89 1    
    53   26   90 1    
    54   27   28 am   BACKBONE|DICT|INTERRES
    55   27   91 1    
    56   28   29 2    
    57   28   30 1    
    58   30   31 1    
    59   30   32 1    
    60   30   92 1    
    61   31   93 1    
    62   31   94 1    
    63   31   95 1    
    64   32   33 am   BACKBONE|DICT|INTERRES
    65   32   96 1    
    66   33   34 2    
    67   33   35 1    
    68   35   36 1    
    69   35   37 1    
    70   35   97 1    
    71   36   98 1    
    72   36   99 1    
    73   36  100 1    
    74   37   38 am   BACKBONE|DICT|INTERRES
    75   37  101 1    
    76   38   39 2    
    77   38   40 1    
    78   40   41 1    
    79   40   42 1    
    80   40  102 1    
    81   41  103 1    
    82   41  104 1    
    83   41  105 1    
    84   42   43 am   BACKBONE|DICT|INTERRES
    85   42  106 1    
    86   43   44 2    
    87   43   45 1    
    88   45   46 1    
    89   45   49 1    
    90   45  107 1    
    91   46   47 1    
    92   46  108 1    
    93   46  109 1    
    94   47   48 1    
    95   48  110 1    
    96   48  111 1    
    97   49   50 am   BACKBONE|DICT|INTERRES
    98   49  112 1    
    99   50   51 2    
   100   50   52 1    
   101   52   53 1    
   102   52   54 1    
   103   52  113 1    
   104   53  114 1    
   105   53  115 1    
   106   53  116 1    
   107   54   55 am   BACKBONE|DICT|INTERRES
   108   54  117 1    
   109   55   56 2    
   110   55   57 1    
   111   57   58 1    
   112   57   59 1    
   113   57  118 1    
   114   58  119 1    
   115   58  120 1    
   116   58  121 1    
   117   59   60 am   BACKBONE|DICT|INTERRES
   118   59  122 1    
   119   60   61 2    
   120   60   62 1    
   121   62   63 1    
   122   62   64 1    
   123   62  123 1    
   124   63  124 1    
   125   63  125 1    
   126   63  126 1    
   127   64   65 am   BACKBONE|DICT|INTERRES
   128   64  127 1    
   129   65   66 2    
@<TRIPOS>SUBSTRUCTURE
     1 UNK         1 GROUP             0       ****    0 ROOT    
