@<TRIPOS>MOLECULE
3R134
127   129    1
SMALL
USER_CHARGES


@<TRIPOS>ATOM
      1 CA         38.0734  -44.9403  -54.4947 C.3       0 UNK        -0.1968 
      2 C          37.1436  -46.1281  -54.6929 C.2       0 UNK         0.4852 
      3 O          37.6051  -47.2164  -55.0430 O.2       0 UNK        -0.5359 
      4 N          35.8375  -45.9331  -54.4684 N.am      1 UNK        -0.4300 
      5 CA         34.7954  -46.9568  -54.5977 C.3       1 UNK         0.0863 
      6 C6         33.4027  -46.3389  -54.8893 C.3       11 UNK        -0.0953 
      7 S7         33.3716  -45.5390  -56.5283 S.3       11 UNK        -0.2369 
      8 C8         33.1950  -43.7781  -56.1024 C.3       11 UNK         0.0226 
      9 C9         31.7479  -43.4134  -55.8069 C.ar      11 UNK        -0.0699 
     10 C10        31.3375  -43.1114  -54.5062 C.ar      11 UNK        -0.0804 
     11 C11        30.0053  -42.7761  -54.2478 C.ar      11 UNK        -0.0871 
     12 C12        29.0864  -42.7306  -55.3008 C.ar      11 UNK        -0.1008 
     13 C13        29.4748  -43.0602  -56.6034 C.ar      11 UNK        -0.0735 
     14 C14        30.8137  -43.3830  -56.8459 C.ar      11 UNK        -0.0945 
     15 C15        28.4773  -43.1570  -57.7576 C.3       11 UNK         0.0169 
     16 S16        27.1220  -41.9297  -57.7545 S.3       11 UNK        -0.2669 
     17 C17        25.7279  -42.5744  -56.7433 C.3       11 UNK        -0.0850 
     18 CA         25.7845  -44.0249  -56.1668 C.3       10 UNK         0.0855 
     19 C          24.6887  -44.2895  -55.0898 C.2       10 UNK         0.5543 
     20 N          24.6182  -43.4609  -54.0561 N.am      10 UNK        -0.7343 
     21 O          23.9217  -45.2487  -55.1501 O.2       10 UNK        -0.5027 
     22 N          25.8497  -45.0915  -57.1757 N.am      10 UNK        -0.4495 
     23 C          24.9845  -45.3569  -58.1618 C.2       10 UNK         0.4903 
     24 O          24.0259  -44.6388  -58.4500 O.2       10 UNK        -0.4860 
     25 CA         25.2013  -46.6769  -58.9333 C.3       9 UNK         0.0227 
     26 CB         24.7520  -46.5895  -60.4079 C.3       9 UNK        -0.1964 
     27 N          26.5589  -47.2302  -58.8105 N.am      9 UNK        -0.4231 
     28 C          27.7011  -46.7287  -59.3117 C.2       9 UNK         0.5014 
     29 O          27.7499  -45.7242  -60.0221 O.2       9 UNK        -0.5270 
     30 CA         29.0174  -47.4500  -58.9540 C.3       8 UNK         0.0284 
     31 CB         30.1004  -46.4587  -58.4940 C.3       8 UNK        -0.1977 
     32 N          28.8315  -48.4421  -57.8956 N.am      8 UNK        -0.4342 
     33 C          28.7207  -49.7641  -58.0773 C.2       8 UNK         0.5039 
     34 O          28.8257  -50.3179  -59.1720 O.2       8 UNK        -0.5547 
     35 CA         28.4104  -50.6145  -56.8315 C.3       7 UNK         0.0281 
     36 CB         29.6925  -51.2643  -56.2901 C.3       7 UNK        -0.1963 
     37 N          27.7546  -49.8553  -55.7604 N.am      7 UNK        -0.4444 
     38 C          26.5074  -49.3666  -55.8402 C.2       7 UNK         0.5104 
     39 O          25.7809  -49.5183  -56.8224 O.2       7 UNK        -0.5100 
     40 CA         25.9973  -48.5181  -54.6618 C.3       6 UNK         0.0396 
     41 CB         25.2429  -49.3998  -53.6552 C.3       6 UNK        -0.1801 
     42 N          27.0412  -47.7655  -53.9600 N.am      6 UNK        -0.4747 
     43 C          27.8457  -46.8485  -54.5178 C.2       6 UNK         0.5012 
     44 O          27.8358  -46.5705  -55.7178 O.2       6 UNK        -0.5003 
     45 CA         28.8623  -46.1667  -53.5817 C.3       5 UNK         0.0782 
     46 C46        28.1944  -44.9970  -52.8141 C.3       11 UNK        -0.0868 
     47 S47        29.4047  -44.0282  -51.8474 S.3       11 UNK        -0.2515 
     48 C48        29.5479  -42.4954  -52.8244 C.3       11 UNK         0.0199 
     49 N          29.5051  -47.1081  -52.6558 N.am      5 UNK        -0.4607 
     50 C          30.1647  -48.2248  -52.9870 C.2       4 UNK         0.5031 
     51 O          30.2665  -48.6469  -54.1402 O.2       4 UNK        -0.5119 
     52 CA         30.8088  -48.9745  -51.8119 C.3       4 UNK         0.0263 
     53 CB         29.7550  -49.6275  -50.8917 C.3       4 UNK        -0.1967 
     54 N          31.8393  -49.9172  -52.2595 N.am      4 UNK        -0.4237 
     55 C          31.7096  -51.1519  -52.7718 C.2       3 UNK         0.4908 
     56 O          30.6409  -51.7584  -52.8539 O.2       3 UNK        -0.5102 
     57 CA         32.9906  -51.8453  -53.2904 C.3       3 UNK         0.0241 
     58 CB         32.8224  -52.2953  -54.7526 C.3       3 UNK        -0.1971 
     59 N          34.1932  -51.0116  -53.1979 N.am      3 UNK        -0.4139 
     60 C          34.9021  -50.7798  -52.0846 C.2       2 UNK         0.5016 
     61 O          34.6848  -51.3329  -51.0066 O.2       2 UNK        -0.5319 
     62 CA         36.0131  -49.7158  -52.1799 C.3       2 UNK         0.0286 
     63 CB         37.3858  -50.3848  -52.3541 C.3       2 UNK        -0.1963 
     64 N          35.8165  -48.7355  -53.2577 N.am      2 UNK        -0.4790 
     65 C          34.7943  -47.8731  -53.3574 C.2       1 UNK         0.5024 
     66 O          33.8909  -47.7954  -52.5238 O.2       1 UNK        -0.4888 
     67 H67        37.5318  -44.0428  -54.1964 H         1 UNK         0.0892 
     68 H68        38.8093  -45.1651  -53.7232 H         1 UNK         0.0892 
     69 H69        38.6054  -44.7227  -55.4205 H         1 UNK         0.0892 
     70 H70        35.5203  -45.0273  -54.1557 H         1 UNK         0.3107 
     71 H71        35.0434  -47.5947  -55.4495 H         1 UNK         0.0773 
     72 H72        32.6328  -47.1132  -54.8965 H         1 UNK         0.0680 
     73 H73        33.1127  -45.6296  -54.1123 H         1 UNK         0.0680 
     74 H74        33.8458  -43.5318  -55.2623 H         1 UNK         0.0650 
     75 H75        33.5454  -43.1799  -56.9446 H         1 UNK         0.0650 
     76 H76        32.0480  -43.1495  -53.6917 H         1 UNK         0.1397 
     77 H77        28.0622  -42.4625  -55.0932 H         1 UNK         0.1363 
     78 H78        31.1318  -43.6419  -57.8466 H         1 UNK         0.1355 
     79 H79        29.0126  -43.0146  -58.6976 H         1 UNK         0.0707 
     80 H80        28.0937  -44.1702  -57.8051 H         1 UNK         0.0707 
     81 H81        24.8168  -42.4480  -57.3291 H         1 UNK         0.1034 
     82 H82        25.6257  -41.8573  -55.9282 H         1 UNK         0.1034 
     83 H83        26.7191  -44.1304  -55.6246 H         1 UNK         0.0482 
     84 H84        25.2361  -42.6714  -53.9617 H         1 UNK         0.3460 
     85 H85        23.9187  -43.6301  -53.3502 H         1 UNK         0.3460 
     86 H86        26.5747  -45.7760  -56.9884 H         1 UNK         0.2989 
     87 H87        24.5522  -47.4051  -58.4448 H         1 UNK         0.0559 
     88 H88        25.2873  -45.8100  -60.9506 H         1 UNK         0.0848 
     89 H89        23.6888  -46.3576  -60.4790 H         1 UNK         0.0848 
     90 H90        24.9110  -47.5333  -60.9293 H         1 UNK         0.0848 
     91 H91        26.6223  -48.0686  -58.2446 H         1 UNK         0.3144 
     92 H92        29.3700  -47.9336  -59.8671 H         1 UNK         0.0727 
     93 H93        31.0509  -46.9644  -58.3234 H         1 UNK         0.0790 
     94 H94        29.8196  -45.9639  -57.5643 H         1 UNK         0.0790 
     95 H95        30.2784  -45.6845  -59.2413 H         1 UNK         0.0790 
     96 H96        28.7049  -48.0682  -56.9610 H         1 UNK         0.3215 
     97 H97        27.7306  -51.4113  -57.1417 H         1 UNK         0.0863 
     98 H98        30.4255  -50.5165  -55.9870 H         1 UNK         0.0808 
     99 H99        30.1632  -51.8911  -57.0486 H         1 UNK         0.0808 
    100 H100       29.4850  -51.8990  -55.4285 H         1 UNK         0.0808 
    101 H101       28.3173  -49.6361  -54.9471 H         1 UNK         0.3118 
    102 H102       25.2934  -47.7897  -55.0699 H         1 UNK         0.0546 
    103 H103       24.7810  -48.8010  -52.8701 H         1 UNK         0.0828 
    104 H104       25.9024  -50.1279  -53.1810 H         1 UNK         0.0828 
    105 H105       24.4432  -49.9561  -54.1465 H         1 UNK         0.0828 
    106 H106       27.1436  -47.9472  -52.9719 H         1 UNK         0.3005 
    107 H107       29.6475  -45.7585  -54.2231 H         1 UNK         0.1257 
    108 H108       27.4387  -45.3756  -52.1232 H         1 UNK         0.0775 
    109 H109       27.6619  -44.3301  -53.4912 H         1 UNK         0.0775 
    110 H110       28.5898  -41.9732  -52.8182 H         1 UNK         0.0840 
    111 H111       30.2608  -41.8285  -52.3372 H         1 UNK         0.0840 
    112 H112       29.4911  -46.8286  -51.6856 H         1 UNK         0.2987 
    113 H113       31.3478  -48.2313  -51.2219 H         1 UNK         0.0785 
    114 H114       30.2248  -50.2250  -50.1105 H         1 UNK         0.0798 
    115 H115       29.1459  -48.8715  -50.3953 H         1 UNK         0.0798 
    116 H116       29.0722  -50.2731  -51.4448 H         1 UNK         0.0798 
    117 H117       32.7634  -49.5026  -52.2939 H         1 UNK         0.3079 
    118 H118       33.1387  -52.7361  -52.6764 H         1 UNK         0.0794 
    119 H119       31.9613  -52.9552  -54.8661 H         1 UNK         0.0786 
    120 H120       33.6957  -52.8473  -55.1006 H         1 UNK         0.0786 
    121 H121       32.6736  -51.4461  -55.4204 H         1 UNK         0.0786 
    122 H122       34.4624  -50.5149  -54.0347 H         1 UNK         0.3032 
    123 H123       36.0137  -49.1700  -51.2336 H         1 UNK         0.1094 
    124 H124       37.4535  -50.9281  -53.2975 H         1 UNK         0.0794 
    125 H125       38.1912  -49.6502  -52.3310 H         1 UNK         0.0794 
    126 H126       37.5778  -51.0987  -51.5516 H         1 UNK         0.0794 
    127 H127       36.5512  -48.6636  -53.9551 H         1 UNK         0.3016 
@<TRIPOS>BOND
     1    1    2 1    
     2    1   67 1    
     3    1   68 1    
     4    1   69 1    
     5    2    3 2    
     6    2    4 am   BACKBONE|DICT|INTERRES
     7    4    5 1    
     8    4   70 1    
     9    5    6 1    
    10    5   65 1    
    11    5   71 1    
    12    6    7 1    
    13    6   72 1    
    14    6   73 1    
    15    7    8 1    
    16    8    9 1    
    17    8   74 1    
    18    8   75 1    
    19    9   10 ar   
    20    9   14 ar   
    21   10   11 ar   
    22   10   76 1    
    23   11   12 ar   
    24   11   48 1    
    25   12   13 ar   
    26   12   77 1    
    27   13   14 ar   
    28   13   15 1    
    29   14   78 1    
    30   15   16 1    
    31   15   79 1    
    32   15   80 1    
    33   16   17 1    
    34   17   18 1    
    35   17   81 1    
    36   17   82 1    
    37   18   19 1    
    38   18   22 1    
    39   18   83 1    
    40   19   20 am   BACKBONE|DICT|INTERRES
    41   19   21 2    
    42   20   84 1    
    43   20   85 1    
    44   22   23 am   BACKBONE|DICT|INTERRES
    45   22   86 1    
    46   23   24 2    
    47   23   25 1    
    48   25   26 1    
    49   25   27 1    
    50   25   87 1    
    51   26   88 1    
    52   26   89 1    
    53   26   90 1    
    54   27   28 am   BACKBONE|DICT|INTERRES
    55   27   91 1    
    56   28   29 2    
    57   28   30 1    
    58   30   31 1    
    59   30   32 1    
    60   30   92 1    
    61   31   93 1    
    62   31   94 1    
    63   31   95 1    
    64   32   33 am   BACKBONE|DICT|INTERRES
    65   32   96 1    
    66   33   34 2    
    67   33   35 1    
    68   35   36 1    
    69   35   37 1    
    70   35   97 1    
    71   36   98 1    
    72   36   99 1    
    73   36  100 1    
    74   37   38 am   BACKBONE|DICT|INTERRES
    75   37  101 1    
    76   38   39 2    
    77   38   40 1    
    78   40   41 1    
    79   40   42 1    
    80   40  102 1    
    81   41  103 1    
    82   41  104 1    
    83   41  105 1    
    84   42   43 am   BACKBONE|DICT|INTERRES
    85   42  106 1    
    86   43   44 2    
    87   43   45 1    
    88   45   46 1    
    89   45   49 1    
    90   45  107 1    
    91   46   47 1    
    92   46  108 1    
    93   46  109 1    
    94   47   48 1    
    95   48  110 1    
    96   48  111 1    
    97   49   50 am   BACKBONE|DICT|INTERRES
    98   49  112 1    
    99   50   51 2    
   100   50   52 1    
   101   52   53 1    
   102   52   54 1    
   103   52  113 1    
   104   53  114 1    
   105   53  115 1    
   106   53  116 1    
   107   54   55 am   BACKBONE|DICT|INTERRES
   108   54  117 1    
   109   55   56 2    
   110   55   57 1    
   111   57   58 1    
   112   57   59 1    
   113   57  118 1    
   114   58  119 1    
   115   58  120 1    
   116   58  121 1    
   117   59   60 am   BACKBONE|DICT|INTERRES
   118   59  122 1    
   119   60   61 2    
   120   60   62 1    
   121   62   63 1    
   122   62   64 1    
   123   62  123 1    
   124   63  124 1    
   125   63  125 1    
   126   63  126 1    
   127   64   65 am   BACKBONE|DICT|INTERRES
   128   64  127 1    
   129   65   66 2    
@<TRIPOS>SUBSTRUCTURE
     1 UNK         1 GROUP             0       ****    0 ROOT    
