@<TRIPOS>MOLECULE
3R134
127   129    1
SMALL
USER_CHARGES


@<TRIPOS>ATOM
      1 CA         32.7363  -48.8750  -58.3107 C.3       0 UNK        -0.1968 
      2 C          32.9878  -48.5471  -56.8475 C.2       0 UNK         0.4852 
      3 O          32.7060  -49.3764  -55.9848 O.2       0 UNK        -0.5359 
      4 N          33.5295  -47.3514  -56.5650 N.am      1 UNK        -0.4300 
      5 CA         33.7992  -46.8039  -55.2234 C.3       1 UNK         0.0863 
      6 C6         34.3716  -45.3667  -55.3293 C.3       11 UNK        -0.0953 
      7 S7         34.2972  -44.4227  -53.7676 S.3       11 UNK        -0.2369 
      8 C8         33.5507  -42.8444  -54.2872 C.3       11 UNK         0.0226 
      9 C9         32.0299  -42.9023  -54.2992 C.ar      11 UNK        -0.0699 
     10 C10        31.3247  -42.8731  -53.0927 C.ar      11 UNK        -0.0804 
     11 C11        29.9273  -42.8993  -53.0825 C.ar      11 UNK        -0.0871 
     12 C12        29.2323  -42.9574  -54.2941 C.ar      11 UNK        -0.1008 
     13 C13        29.9258  -42.9709  -55.5090 C.ar      11 UNK        -0.0735 
     14 C14        31.3249  -42.9473  -55.5057 C.ar      11 UNK        -0.0945 
     15 C15        29.1625  -43.0481  -56.8229 C.3       11 UNK         0.0169 
     16 S16        28.2223  -41.5342  -57.1677 S.3       11 UNK        -0.2669 
     17 C17        27.5358  -41.9245  -58.8139 C.3       11 UNK        -0.0850 
     18 CA         26.1585  -42.6348  -58.7364 C.3       10 UNK         0.0855 
     19 C          25.4004  -42.5221  -60.0870 C.2       10 UNK         0.5543 
     20 N          24.6034  -41.4775  -60.2633 N.am      10 UNK        -0.7343 
     21 O          25.5595  -43.3445  -60.9873 O.2       10 UNK        -0.5027 
     22 N          26.2971  -44.0379  -58.3192 N.am      10 UNK        -0.4495 
     23 C          25.3113  -44.7840  -57.8126 C.2       10 UNK         0.4903 
     24 O          24.2026  -44.3330  -57.5221 O.2       10 UNK        -0.4860 
     25 CA         25.5774  -46.2848  -57.5819 C.3       9 UNK         0.0227 
     26 CB         25.0712  -47.1160  -58.7765 C.3       9 UNK        -0.1964 
     27 N          26.9529  -46.6651  -57.2247 N.am      9 UNK        -0.4231 
     28 C          28.0743  -46.6104  -57.9587 C.2       9 UNK         0.5014 
     29 O          28.1484  -46.0701  -59.0626 O.2       9 UNK        -0.5270 
     30 CA         29.3343  -47.2637  -57.3590 C.3       8 UNK         0.0284 
     31 CB         30.0983  -46.2729  -56.4748 C.3       8 UNK        -0.1977 
     32 N          29.0565  -48.4688  -56.5762 N.am      8 UNK        -0.4342 
     33 C          28.5819  -49.6178  -57.0772 C.2       8 UNK         0.5039 
     34 O          28.3277  -49.7995  -58.2683 O.2       8 UNK        -0.5547 
     35 CA         28.3541  -50.7581  -56.0759 C.3       7 UNK         0.0281 
     36 CB         29.6652  -51.5124  -55.8216 C.3       7 UNK        -0.1963 
     37 N          27.8253  -50.2536  -54.8081 N.am      7 UNK        -0.4444 
     38 C          26.5267  -50.0072  -54.5873 C.2       7 UNK         0.5104 
     39 O          25.6328  -50.2598  -55.3955 O.2       7 UNK        -0.5100 
     40 CA         26.1563  -49.3549  -53.2432 C.3       6 UNK         0.0396 
     41 CB         25.9014  -50.4311  -52.1761 C.3       6 UNK        -0.1801 
     42 N          27.1639  -48.4125  -52.7506 N.am      6 UNK        -0.4747 
     43 C          27.5126  -47.2694  -53.3603 C.2       6 UNK         0.5012 
     44 O          27.0115  -46.8743  -54.4119 O.2       6 UNK        -0.5003 
     45 CA         28.6322  -46.4423  -52.6988 C.3       5 UNK         0.0782 
     46 C46        28.0129  -45.4131  -51.7215 C.3       11 UNK        -0.0868 
     47 S47        29.2570  -44.4027  -50.8489 S.3       11 UNK        -0.2515 
     48 C48        29.1788  -42.8291  -51.7597 C.3       11 UNK         0.0199 
     49 N          29.6652  -47.2663  -52.0583 N.am      5 UNK        -0.4607 
     50 C          30.4002  -48.2206  -52.6446 C.2       4 UNK         0.5031 
     51 O          30.2315  -48.5926  -53.8089 O.2       4 UNK        -0.5119 
     52 CA         31.5035  -48.8244  -51.7572 C.3       4 UNK         0.0263 
     53 CB         30.9359  -49.4375  -50.4570 C.3       4 UNK        -0.1967 
     54 N          32.3831  -49.7674  -52.4571 N.am      4 UNK        -0.4237 
     55 C          32.1226  -51.0214  -52.8621 C.2       3 UNK         0.4908 
     56 O          31.0449  -51.5919  -52.6857 O.2       3 UNK        -0.5102 
     57 CA         33.2787  -51.7862  -53.5425 C.3       3 UNK         0.0241 
     58 CB         32.7965  -52.7384  -54.6523 C.3       3 UNK        -0.1971 
     59 N          34.2672  -50.8678  -54.1091 N.am      3 UNK        -0.4139 
     60 C          35.5199  -50.6914  -53.6658 C.2       2 UNK         0.5016 
     61 O          36.0248  -51.3551  -52.7597 O.2       2 UNK        -0.5319 
     62 CA         36.3549  -49.5701  -54.3212 C.3       2 UNK         0.0286 
     63 CB         37.3301  -50.1617  -55.3518 C.3       2 UNK        -0.1963 
     64 N          35.5571  -48.5208  -54.9673 N.am      2 UNK        -0.4790 
     65 C          34.6805  -47.7207  -54.3406 C.2       1 UNK         0.5024 
     66 O          34.5043  -47.7450  -53.1217 O.2       1 UNK        -0.4888 
     67 H67        33.4621  -49.6088  -58.6597 H         1 UNK         0.0892 
     68 H68        32.8070  -47.9914  -58.9445 H         1 UNK         0.0892 
     69 H69        31.7400  -49.2998  -58.4321 H         1 UNK         0.0892 
     70 H70        33.7575  -46.7347  -57.3318 H         1 UNK         0.3107 
     71 H71        32.8329  -46.7421  -54.7193 H         1 UNK         0.0773 
     72 H72        35.4060  -45.3849  -55.6775 H         1 UNK         0.0680 
     73 H73        33.8135  -44.8102  -56.0836 H         1 UNK         0.0680 
     74 H74        33.8683  -42.0677  -53.5900 H         1 UNK         0.0650 
     75 H75        33.9426  -42.5501  -55.2620 H         1 UNK         0.0650 
     76 H76        31.8664  -42.8277  -52.1575 H         1 UNK         0.1397 
     77 H77        28.1508  -42.9777  -54.2973 H         1 UNK         0.1363 
     78 H78        31.8658  -42.9626  -56.4419 H         1 UNK         0.1355 
     79 H79        28.4689  -43.8851  -56.7720 H         1 UNK         0.0707 
     80 H80        29.8403  -43.2476  -57.6543 H         1 UNK         0.0707 
     81 H81        28.2488  -42.5126  -59.3949 H         1 UNK         0.1034 
     82 H82        27.4441  -40.9717  -59.3396 H         1 UNK         0.1034 
     83 H83        25.5582  -42.1208  -57.9823 H         1 UNK         0.0482 
     84 H84        24.1136  -41.3764  -61.1388 H         1 UNK         0.3460 
     85 H85        24.4732  -40.7919  -59.5353 H         1 UNK         0.3460 
     86 H86        27.1309  -44.5285  -58.6282 H         1 UNK         0.2989 
     87 H87        24.9780  -46.5674  -56.7149 H         1 UNK         0.0559 
     88 H88        25.6164  -46.8845  -59.6922 H         1 UNK         0.0848 
     89 H89        24.0160  -46.9188  -58.9699 H         1 UNK         0.0848 
     90 H90        25.1724  -48.1848  -58.5864 H         1 UNK         0.0848 
     91 H91        27.0466  -47.0078  -56.2703 H         1 UNK         0.3144 
     92 H92        29.9830  -47.5555  -58.1868 H         1 UNK         0.0727 
     93 H93        30.8773  -46.7664  -55.8997 H         1 UNK         0.0790 
     94 H94        29.4381  -45.7827  -55.7617 H         1 UNK         0.0790 
     95 H95        30.5786  -45.5045  -57.0796 H         1 UNK         0.0790 
     96 H96        29.3118  -48.4472  -55.5929 H         1 UNK         0.3215 
     97 H97        27.6392  -51.4583  -56.5140 H         1 UNK         0.0863 
     98 H98        29.5226  -52.3397  -55.1262 H         1 UNK         0.0808 
     99 H99        30.4272  -50.8528  -55.4051 H         1 UNK         0.0808 
    100 H100       30.0645  -51.9273  -56.7479 H         1 UNK         0.0808 
    101 H101       28.5044  -49.9795  -54.1082 H         1 UNK         0.3118 
    102 H102       25.2288  -48.7981  -53.3931 H         1 UNK         0.0546 
    103 H103       25.1367  -51.1350  -52.5077 H         1 UNK         0.0828 
    104 H104       25.5499  -49.9909  -51.2429 H         1 UNK         0.0828 
    105 H105       26.8018  -51.0074  -51.9591 H         1 UNK         0.0828 
    106 H106       27.6407  -48.6586  -51.8950 H         1 UNK         0.3005 
    107 H107       29.1313  -45.8868  -53.4939 H         1 UNK         0.1257 
    108 H108       27.4189  -45.9222  -50.9596 H         1 UNK         0.0775 
    109 H109       27.3201  -44.7547  -52.2494 H         1 UNK         0.0775 
    110 H110       28.1389  -42.5346  -51.9097 H         1 UNK         0.0840 
    111 H111       29.6237  -42.0478  -51.1416 H         1 UNK         0.0840 
    112 H112       29.8832  -47.0066  -51.1071 H         1 UNK         0.2987 
    113 H113       32.1521  -47.9936  -51.4743 H         1 UNK         0.0785 
    114 H114       30.1690  -50.1858  -50.6595 H         1 UNK         0.0798 
    115 H115       30.4825  -48.6767  -49.8212 H         1 UNK         0.0798 
    116 H116       31.7202  -49.9143  -49.8690 H         1 UNK         0.0798 
    117 H117       33.2886  -49.3809  -52.6982 H         1 UNK         0.3079 
    118 H118       33.7332  -52.3957  -52.7591 H         1 UNK         0.0794 
    119 H119       32.3990  -52.1898  -55.5056 H         1 UNK         0.0786 
    120 H120       32.0159  -53.4112  -54.2952 H         1 UNK         0.0786 
    121 H121       33.6150  -53.3603  -55.0146 H         1 UNK         0.0786 
    122 H122       33.9087  -50.2592  -54.8440 H         1 UNK         0.3032 
    123 H123       36.9371  -49.1000  -53.5254 H         1 UNK         0.1094 
    124 H124       37.9929  -49.3969  -55.7573 H         1 UNK         0.0794 
    125 H125       37.9621  -50.9263  -54.8974 H         1 UNK         0.0794 
    126 H126       36.8028  -50.6282  -56.1849 H         1 UNK         0.0794 
    127 H127       35.6272  -48.4510  -55.9723 H         1 UNK         0.3016 
@<TRIPOS>BOND
     1    1    2 1    
     2    1   67 1    
     3    1   68 1    
     4    1   69 1    
     5    2    3 2    
     6    2    4 am   BACKBONE|DICT|INTERRES
     7    4    5 1    
     8    4   70 1    
     9    5    6 1    
    10    5   65 1    
    11    5   71 1    
    12    6    7 1    
    13    6   72 1    
    14    6   73 1    
    15    7    8 1    
    16    8    9 1    
    17    8   74 1    
    18    8   75 1    
    19    9   10 ar   
    20    9   14 ar   
    21   10   11 ar   
    22   10   76 1    
    23   11   12 ar   
    24   11   48 1    
    25   12   13 ar   
    26   12   77 1    
    27   13   14 ar   
    28   13   15 1    
    29   14   78 1    
    30   15   16 1    
    31   15   79 1    
    32   15   80 1    
    33   16   17 1    
    34   17   18 1    
    35   17   81 1    
    36   17   82 1    
    37   18   19 1    
    38   18   22 1    
    39   18   83 1    
    40   19   20 am   BACKBONE|DICT|INTERRES
    41   19   21 2    
    42   20   84 1    
    43   20   85 1    
    44   22   23 am   BACKBONE|DICT|INTERRES
    45   22   86 1    
    46   23   24 2    
    47   23   25 1    
    48   25   26 1    
    49   25   27 1    
    50   25   87 1    
    51   26   88 1    
    52   26   89 1    
    53   26   90 1    
    54   27   28 am   BACKBONE|DICT|INTERRES
    55   27   91 1    
    56   28   29 2    
    57   28   30 1    
    58   30   31 1    
    59   30   32 1    
    60   30   92 1    
    61   31   93 1    
    62   31   94 1    
    63   31   95 1    
    64   32   33 am   BACKBONE|DICT|INTERRES
    65   32   96 1    
    66   33   34 2    
    67   33   35 1    
    68   35   36 1    
    69   35   37 1    
    70   35   97 1    
    71   36   98 1    
    72   36   99 1    
    73   36  100 1    
    74   37   38 am   BACKBONE|DICT|INTERRES
    75   37  101 1    
    76   38   39 2    
    77   38   40 1    
    78   40   41 1    
    79   40   42 1    
    80   40  102 1    
    81   41  103 1    
    82   41  104 1    
    83   41  105 1    
    84   42   43 am   BACKBONE|DICT|INTERRES
    85   42  106 1    
    86   43   44 2    
    87   43   45 1    
    88   45   46 1    
    89   45   49 1    
    90   45  107 1    
    91   46   47 1    
    92   46  108 1    
    93   46  109 1    
    94   47   48 1    
    95   48  110 1    
    96   48  111 1    
    97   49   50 am   BACKBONE|DICT|INTERRES
    98   49  112 1    
    99   50   51 2    
   100   50   52 1    
   101   52   53 1    
   102   52   54 1    
   103   52  113 1    
   104   53  114 1    
   105   53  115 1    
   106   53  116 1    
   107   54   55 am   BACKBONE|DICT|INTERRES
   108   54  117 1    
   109   55   56 2    
   110   55   57 1    
   111   57   58 1    
   112   57   59 1    
   113   57  118 1    
   114   58  119 1    
   115   58  120 1    
   116   58  121 1    
   117   59   60 am   BACKBONE|DICT|INTERRES
   118   59  122 1    
   119   60   61 2    
   120   60   62 1    
   121   62   63 1    
   122   62   64 1    
   123   62  123 1    
   124   63  124 1    
   125   63  125 1    
   126   63  126 1    
   127   64   65 am   BACKBONE|DICT|INTERRES
   128   64  127 1    
   129   65   66 2    
@<TRIPOS>SUBSTRUCTURE
     1 UNK         1 GROUP             0       ****    0 ROOT    
