@<TRIPOS>MOLECULE
3R134
127   129    1
SMALL
USER_CHARGES


@<TRIPOS>ATOM
      1 CA         36.1663  -45.4451  -53.7953 C.3       0 UNK        -0.1968 
      2 C          36.2032  -45.4973  -52.2718 C.2       0 UNK         0.4852 
      3 O          37.2364  -45.8547  -51.7078 O.2       0 UNK        -0.5359 
      4 N          35.1204  -45.1604  -51.5599 N.am      1 UNK        -0.4300 
      5 CA         33.7997  -44.7567  -52.0573 C.3       1 UNK         0.0863 
      6 C6         33.4568  -43.2951  -51.6645 C.3       11 UNK        -0.0953 
      7 S7         34.5888  -42.0995  -52.4536 S.3       11 UNK        -0.2369 
      8 C8         33.4456  -41.0254  -53.3887 C.3       11 UNK         0.0226 
      9 C9         32.5815  -41.7516  -54.4185 C.ar      11 UNK        -0.0699 
     10 C10        33.0895  -42.8012  -55.1949 C.ar      11 UNK        -0.0804 
     11 C11        32.2751  -43.4607  -56.1199 C.ar      11 UNK        -0.0871 
     12 C12        30.9612  -43.0290  -56.3078 C.ar      11 UNK        -0.1008 
     13 C13        30.4444  -41.9742  -55.5536 C.ar      11 UNK        -0.0735 
     14 C14        31.2557  -41.3441  -54.6060 C.ar      11 UNK        -0.0945 
     15 C15        29.0155  -41.5142  -55.7887 C.3       11 UNK         0.0169 
     16 S16        27.8127  -42.7590  -55.2205 S.3       11 UNK        -0.2669 
     17 C17        26.4664  -42.5132  -56.4338 C.3       11 UNK        -0.0850 
     18 CA         26.3887  -43.6110  -57.5333 C.3       10 UNK         0.0855 
     19 C          27.6332  -43.6720  -58.4585 C.2       10 UNK         0.5543 
     20 N          27.8777  -42.6258  -59.2357 N.am      10 UNK        -0.7343 
     21 O          28.3797  -44.6493  -58.4801 O.2       10 UNK        -0.5027 
     22 N          26.0741  -44.9322  -56.9839 N.am      10 UNK        -0.4495 
     23 C          24.8478  -45.3731  -56.6891 C.2       10 UNK         0.4903 
     24 O          23.8334  -44.6764  -56.7603 O.2       10 UNK        -0.4860 
     25 CA         24.7457  -46.8475  -56.2582 C.3       9 UNK         0.0227 
     26 CB         23.2974  -47.3795  -56.2353 C.3       9 UNK        -0.1964 
     27 N          25.6137  -47.7219  -57.0536 N.am      9 UNK        -0.4231 
     28 C          25.5740  -47.9528  -58.3751 C.2       9 UNK         0.5014 
     29 O          24.7459  -47.4605  -59.1426 O.2       9 UNK        -0.5270 
     30 CA         26.6519  -48.8959  -58.9428 C.3       8 UNK         0.0284 
     31 CB         27.8445  -48.0820  -59.4704 C.3       8 UNK        -0.1977 
     32 N          27.1297  -49.8790  -57.9650 N.am      8 UNK        -0.4342 
     33 C          26.3936  -50.8930  -57.4857 C.2       8 UNK         0.5039 
     34 O          25.2703  -51.1813  -57.9004 O.2       8 UNK        -0.5547 
     35 CA         26.9944  -51.6967  -56.3198 C.3       7 UNK         0.0281 
     36 CB         27.9944  -52.7445  -56.8336 C.3       7 UNK        -0.1963 
     37 N          27.6411  -50.8388  -55.3230 N.am      7 UNK        -0.4444 
     38 C          27.0057  -49.9406  -54.5558 C.2       7 UNK         0.5104 
     39 O          25.7858  -49.7829  -54.5491 O.2       7 UNK        -0.5100 
     40 CA         27.8804  -49.0318  -53.6778 C.3       6 UNK         0.0396 
     41 CB         28.2152  -49.7109  -52.3402 C.3       6 UNK        -0.1801 
     42 N          29.1141  -48.6351  -54.3580 N.am      6 UNK        -0.4747 
     43 C          29.1820  -47.7366  -55.3528 C.2       6 UNK         0.5012 
     44 O          28.2088  -47.1177  -55.7834 O.2       6 UNK        -0.5003 
     45 CA         30.5696  -47.5203  -55.9894 C.3       5 UNK         0.0782 
     46 C46        31.3449  -46.4342  -55.2079 C.3       11 UNK        -0.0868 
     47 S47        33.0244  -46.1250  -55.8585 S.3       11 UNK        -0.2515 
     48 C48        32.7999  -44.6517  -56.9077 C.3       11 UNK         0.0199 
     49 N          31.3159  -48.7797  -56.0894 N.am      5 UNK        -0.4607 
     50 C          30.9760  -49.7949  -56.8958 C.2       4 UNK         0.5031 
     51 O          30.0011  -49.7716  -57.6461 O.2       4 UNK        -0.5119 
     52 CA         31.8304  -51.0723  -56.8140 C.3       4 UNK         0.0263 
     53 CB         33.0434  -50.9669  -57.7510 C.3       4 UNK        -0.1967 
     54 N          32.2854  -51.3792  -55.4551 N.am      4 UNK        -0.4237 
     55 C          31.4793  -51.5878  -54.4050 C.2       3 UNK         0.4908 
     56 O          30.2509  -51.5905  -54.4790 O.2       3 UNK        -0.5102 
     57 CA         32.1367  -51.7643  -53.0259 C.3       3 UNK         0.0241 
     58 CB         33.6115  -52.2248  -53.0870 C.3       3 UNK        -0.1971 
     59 N          32.0017  -50.5491  -52.2109 N.am      3 UNK        -0.4139 
     60 C          32.4529  -49.3227  -52.5155 C.2       2 UNK         0.5016 
     61 O          33.0350  -49.0469  -53.5695 O.2       2 UNK        -0.5319 
     62 CA         32.2123  -48.2143  -51.4777 C.3       2 UNK         0.0286 
     63 CB         32.5965  -48.6469  -50.0470 C.3       2 UNK        -0.1963 
     64 N          33.0005  -47.0502  -51.8715 N.am      2 UNK        -0.4790 
     65 C          32.7808  -45.7789  -51.5206 C.2       1 UNK         0.5024 
     66 O          31.8599  -45.4248  -50.7830 O.2       1 UNK        -0.4888 
     67 H67        37.1558  -45.6376  -54.2093 H         1 UNK         0.0892 
     68 H68        35.4891  -46.2021  -54.1884 H         1 UNK         0.0892 
     69 H69        35.8492  -44.4642  -54.1457 H         1 UNK         0.0892 
     70 H70        35.1785  -45.2307  -50.5536 H         1 UNK         0.3107 
     71 H71        33.7421  -44.8307  -53.1431 H         1 UNK         0.0773 
     72 H72        33.5157  -43.1604  -50.5830 H         1 UNK         0.0680 
     73 H73        32.4297  -43.0547  -51.9451 H         1 UNK         0.0680 
     74 H74        34.0308  -40.2634  -53.9047 H         1 UNK         0.0650 
     75 H75        32.8168  -40.4975  -52.6700 H         1 UNK         0.0650 
     76 H76        34.1127  -43.1230  -55.0670 H         1 UNK         0.1397 
     77 H77        30.3281  -43.5274  -57.0291 H         1 UNK         0.1363 
     78 H78        30.8564  -40.5273  -54.0201 H         1 UNK         0.1355 
     79 H79        28.8170  -40.5688  -55.2816 H         1 UNK         0.0707 
     80 H80        28.8912  -41.3228  -56.8550 H         1 UNK         0.0707 
     81 H81        26.5486  -41.5245  -56.8876 H         1 UNK         0.1034 
     82 H82        25.5253  -42.4886  -55.8825 H         1 UNK         0.1034 
     83 H83        25.5648  -43.3457  -58.1992 H         1 UNK         0.0482 
     84 H84        27.2673  -41.8240  -59.2463 H         1 UNK         0.3460 
     85 H85        28.6801  -42.6502  -59.8448 H         1 UNK         0.3460 
     86 H86        26.8656  -45.5620  -56.9085 H         1 UNK         0.2989 
     87 H87        25.1290  -46.8928  -55.2378 H         1 UNK         0.0559 
     88 H88        22.6805  -46.8040  -55.5442 H         1 UNK         0.0848 
     89 H89        23.2652  -48.4192  -55.9089 H         1 UNK         0.0848 
     90 H90        22.8272  -47.3205  -57.2173 H         1 UNK         0.0848 
     91 H91        26.3861  -48.1278  -56.5408 H         1 UNK         0.3144 
     92 H92        26.2092  -49.4385  -59.7807 H         1 UNK         0.0727 
     93 H93        27.5227  -47.3521  -60.2145 H         1 UNK         0.0790 
     94 H94        28.5860  -48.7251  -59.9447 H         1 UNK         0.0790 
     95 H95        28.3418  -47.5315  -58.6707 H         1 UNK         0.0790 
     96 H96        28.0886  -49.7719  -57.6408 H         1 UNK         0.3215 
     97 H97        26.1765  -52.2222  -55.8220 H         1 UNK         0.0863 
     98 H98        28.4027  -53.3390  -56.0160 H         1 UNK         0.0808 
     99 H99        28.8287  -52.2827  -57.3611 H         1 UNK         0.0808 
    100 H100       27.5122  -53.4337  -57.5280 H         1 UNK         0.0808 
    101 H101       28.6423  -50.9632  -55.1891 H         1 UNK         0.3118 
    102 H102       27.3064  -48.1283  -53.4597 H         1 UNK         0.0546 
    103 H103       28.7949  -50.6237  -52.4774 H         1 UNK         0.0828 
    104 H104       27.3036  -49.9847  -51.8073 H         1 UNK         0.0828 
    105 H105       28.7809  -49.0461  -51.6880 H         1 UNK         0.0828 
    106 H106       29.9485  -49.1549  -54.1277 H         1 UNK         0.3005 
    107 H107       30.4013  -47.1515  -57.0042 H         1 UNK         0.1257 
    108 H108       30.7751  -45.5053  -55.1854 H         1 UNK         0.0775 
    109 H109       31.4542  -46.7311  -54.1650 H         1 UNK         0.0775 
    110 H110       33.7569  -44.3910  -57.3618 H         1 UNK         0.0840 
    111 H111       32.1287  -44.9013  -57.7312 H         1 UNK         0.0840 
    112 H112       32.1184  -48.8764  -55.4757 H         1 UNK         0.2987 
    113 H113       31.2111  -51.9062  -57.1493 H         1 UNK         0.0785 
    114 H114       33.6122  -51.8967  -57.7710 H         1 UNK         0.0798 
    115 H115       33.7187  -50.1648  -57.4496 H         1 UNK         0.0798 
    116 H116       32.7278  -50.7600  -58.7747 H         1 UNK         0.0798 
    117 H117       33.2805  -51.3442  -55.2876 H         1 UNK         0.3079 
    118 H118       31.5698  -52.5468  -52.5189 H         1 UNK         0.0794 
    119 H119       33.7161  -53.1326  -53.6830 H         1 UNK         0.0786 
    120 H120       33.9863  -52.4550  -52.0896 H         1 UNK         0.0786 
    121 H121       34.2711  -51.4688  -53.5143 H         1 UNK         0.0786 
    122 H122       31.5159  -50.6728  -51.3338 H         1 UNK         0.3032 
    123 H123       31.1522  -47.9531  -51.5103 H         1 UNK         0.1094 
    124 H124       33.6328  -48.9838  -49.9946 H         1 UNK         0.0794 
    125 H125       32.4793  -47.8270  -49.3381 H         1 UNK         0.0794 
    126 H126       31.9660  -49.4610  -49.6887 H         1 UNK         0.0794 
    127 H127       33.7318  -47.2669  -52.5384 H         1 UNK         0.3016 
@<TRIPOS>BOND
     1    1    2 1    
     2    1   67 1    
     3    1   68 1    
     4    1   69 1    
     5    2    3 2    
     6    2    4 am   BACKBONE|DICT|INTERRES
     7    4    5 1    
     8    4   70 1    
     9    5    6 1    
    10    5   65 1    
    11    5   71 1    
    12    6    7 1    
    13    6   72 1    
    14    6   73 1    
    15    7    8 1    
    16    8    9 1    
    17    8   74 1    
    18    8   75 1    
    19    9   10 ar   
    20    9   14 ar   
    21   10   11 ar   
    22   10   76 1    
    23   11   12 ar   
    24   11   48 1    
    25   12   13 ar   
    26   12   77 1    
    27   13   14 ar   
    28   13   15 1    
    29   14   78 1    
    30   15   16 1    
    31   15   79 1    
    32   15   80 1    
    33   16   17 1    
    34   17   18 1    
    35   17   81 1    
    36   17   82 1    
    37   18   19 1    
    38   18   22 1    
    39   18   83 1    
    40   19   20 am   BACKBONE|DICT|INTERRES
    41   19   21 2    
    42   20   84 1    
    43   20   85 1    
    44   22   23 am   BACKBONE|DICT|INTERRES
    45   22   86 1    
    46   23   24 2    
    47   23   25 1    
    48   25   26 1    
    49   25   27 1    
    50   25   87 1    
    51   26   88 1    
    52   26   89 1    
    53   26   90 1    
    54   27   28 am   BACKBONE|DICT|INTERRES
    55   27   91 1    
    56   28   29 2    
    57   28   30 1    
    58   30   31 1    
    59   30   32 1    
    60   30   92 1    
    61   31   93 1    
    62   31   94 1    
    63   31   95 1    
    64   32   33 am   BACKBONE|DICT|INTERRES
    65   32   96 1    
    66   33   34 2    
    67   33   35 1    
    68   35   36 1    
    69   35   37 1    
    70   35   97 1    
    71   36   98 1    
    72   36   99 1    
    73   36  100 1    
    74   37   38 am   BACKBONE|DICT|INTERRES
    75   37  101 1    
    76   38   39 2    
    77   38   40 1    
    78   40   41 1    
    79   40   42 1    
    80   40  102 1    
    81   41  103 1    
    82   41  104 1    
    83   41  105 1    
    84   42   43 am   BACKBONE|DICT|INTERRES
    85   42  106 1    
    86   43   44 2    
    87   43   45 1    
    88   45   46 1    
    89   45   49 1    
    90   45  107 1    
    91   46   47 1    
    92   46  108 1    
    93   46  109 1    
    94   47   48 1    
    95   48  110 1    
    96   48  111 1    
    97   49   50 am   BACKBONE|DICT|INTERRES
    98   49  112 1    
    99   50   51 2    
   100   50   52 1    
   101   52   53 1    
   102   52   54 1    
   103   52  113 1    
   104   53  114 1    
   105   53  115 1    
   106   53  116 1    
   107   54   55 am   BACKBONE|DICT|INTERRES
   108   54  117 1    
   109   55   56 2    
   110   55   57 1    
   111   57   58 1    
   112   57   59 1    
   113   57  118 1    
   114   58  119 1    
   115   58  120 1    
   116   58  121 1    
   117   59   60 am   BACKBONE|DICT|INTERRES
   118   59  122 1    
   119   60   61 2    
   120   60   62 1    
   121   62   63 1    
   122   62   64 1    
   123   62  123 1    
   124   63  124 1    
   125   63  125 1    
   126   63  126 1    
   127   64   65 am   BACKBONE|DICT|INTERRES
   128   64  127 1    
   129   65   66 2    
@<TRIPOS>SUBSTRUCTURE
     1 UNK         1 GROUP             0       ****    0 ROOT    
