@<TRIPOS>MOLECULE
3R134
127   129    1
SMALL
USER_CHARGES


@<TRIPOS>ATOM
      1 CA         30.3814  -44.9172  -51.7383 C.3       0 UNK        -0.1968 
      2 C          31.7432  -44.9875  -51.0674 C.2       0 UNK         0.4852 
      3 O          31.8572  -45.5266  -49.9657 O.2       0 UNK        -0.5359 
      4 N          32.7774  -44.4424  -51.7235 N.am      1 UNK        -0.4300 
      5 CA         34.1573  -44.4009  -51.2164 C.3       1 UNK         0.0863 
      6 C6         35.0502  -43.3586  -51.9446 C.3       11 UNK        -0.0953 
      7 S7         34.2826  -41.7085  -52.1260 S.3       11 UNK        -0.2369 
      8 C8         34.0650  -41.5769  -53.9337 C.3       11 UNK         0.0226 
      9 C9         33.0444  -42.5809  -54.4472 C.ar      11 UNK        -0.0699 
     10 C10        33.4658  -43.8271  -54.9217 C.ar      11 UNK        -0.0804 
     11 C11        32.5330  -44.7982  -55.2880 C.ar      11 UNK        -0.0871 
     12 C12        31.1724  -44.4926  -55.2333 C.ar      11 UNK        -0.1008 
     13 C13        30.7368  -43.2363  -54.8076 C.ar      11 UNK        -0.0735 
     14 C14        31.6779  -42.2827  -54.4080 C.ar      11 UNK        -0.0945 
     15 C15        29.2452  -42.9496  -54.7274 C.3       11 UNK         0.0169 
     16 S16        28.4655  -42.9771  -56.3711 S.3       11 UNK        -0.2669 
     17 C17        26.7117  -43.1445  -55.8966 C.3       11 UNK        -0.0850 
     18 CA         26.2310  -44.6258  -55.8954 C.3       10 UNK         0.0855 
     19 C          24.8070  -44.7968  -55.2978 C.2       10 UNK         0.5543 
     20 N          24.4788  -45.9815  -54.8011 N.am      10 UNK        -0.7343 
     21 O          24.0023  -43.8681  -55.2705 O.2       10 UNK        -0.5027 
     22 N          26.3581  -45.2872  -57.2042 N.am      10 UNK        -0.4495 
     23 C          25.6965  -44.9697  -58.3256 C.2       10 UNK         0.4903 
     24 O          24.9106  -44.0275  -58.4291 O.2       10 UNK        -0.4860 
     25 CA         25.9369  -45.8739  -59.5434 C.3       9 UNK         0.0227 
     26 CB         27.3815  -45.7796  -60.0634 C.3       9 UNK        -0.1964 
     27 N          25.5848  -47.2660  -59.2582 N.am      9 UNK        -0.4231 
     28 C          24.3320  -47.7347  -59.1969 C.2       9 UNK         0.5014 
     29 O          23.3323  -47.0391  -59.3821 O.2       9 UNK        -0.5270 
     30 CA         24.1436  -49.2356  -58.9066 C.3       8 UNK         0.0284 
     31 CB         24.5259  -50.0924  -60.1307 C.3       8 UNK        -0.1977 
     32 N          24.7957  -49.7228  -57.6827 N.am      8 UNK        -0.4342 
     33 C          26.1029  -49.7890  -57.4018 C.2       8 UNK         0.5039 
     34 O          26.9959  -49.4058  -58.1626 O.2       8 UNK        -0.5547 
     35 CA         26.4720  -50.4279  -56.0551 C.3       7 UNK         0.0281 
     36 CB         26.8762  -51.8979  -56.2506 C.3       7 UNK        -0.1963 
     37 N          27.5840  -49.7026  -55.4498 N.am      7 UNK        -0.4444 
     38 C          27.4471  -48.5814  -54.7283 C.2       7 UNK         0.5104 
     39 O          26.3604  -48.1021  -54.4036 O.2       7 UNK        -0.5100 
     40 CA         28.7415  -47.8459  -54.3314 C.3       6 UNK         0.0396 
     41 CB         29.2625  -48.3704  -52.9844 C.3       6 UNK        -0.1801 
     42 N          29.7946  -47.9713  -55.3408 N.am      6 UNK        -0.4747 
     43 C          29.6864  -47.5531  -56.6122 C.2       6 UNK         0.5012 
     44 O          28.7340  -46.8869  -57.0150 O.2       6 UNK        -0.5003 
     45 CA         30.8067  -47.9329  -57.6066 C.3       5 UNK         0.0782 
     46 C46        31.5775  -46.6730  -58.1165 C.3       11 UNK        -0.0868 
     47 S47        33.2640  -46.3986  -57.4524 S.3       11 UNK        -0.2515 
     48 C48        32.9988  -46.1943  -55.6655 C.3       11 UNK         0.0199 
     49 N          31.7036  -49.0043  -57.1461 N.am      5 UNK        -0.4607 
     50 C          31.3583  -50.2493  -56.7929 C.2       4 UNK         0.5031 
     51 O          30.2033  -50.6735  -56.8078 O.2       4 UNK        -0.5119 
     52 CA         32.4783  -51.1378  -56.2446 C.3       4 UNK         0.0263 
     53 CB         33.8497  -50.8866  -56.9041 C.3       4 UNK        -0.1967 
     54 N          32.5679  -50.8796  -54.8115 N.am      4 UNK        -0.4237 
     55 C          32.5876  -51.7973  -53.8421 C.2       3 UNK         0.4908 
     56 O          32.6113  -53.0119  -54.0500 O.2       3 UNK        -0.5102 
     57 CA         32.5813  -51.2553  -52.3957 C.3       3 UNK         0.0241 
     58 CB         32.7080  -52.3735  -51.3434 C.3       3 UNK        -0.1971 
     59 N          33.6241  -50.2518  -52.1477 N.am      3 UNK        -0.4139 
     60 C          33.5970  -48.9770  -52.5564 C.2       2 UNK         0.5016 
     61 O          32.7001  -48.5009  -53.2602 O.2       2 UNK        -0.5319 
     62 CA         34.7883  -48.1020  -52.1549 C.3       2 UNK         0.0286 
     63 CB         35.9218  -48.2092  -53.1902 C.3       2 UNK        -0.1963 
     64 N          34.3349  -46.7181  -52.0554 N.am      2 UNK        -0.4790 
     65 C          34.8388  -45.7888  -51.2316 C.2       1 UNK         0.5024 
     66 O          35.8084  -45.9889  -50.4983 O.2       1 UNK        -0.4888 
     67 H67        30.4033  -45.4215  -52.7028 H         1 UNK         0.0892 
     68 H68        29.6209  -45.3992  -51.1241 H         1 UNK         0.0892 
     69 H69        30.0862  -43.8794  -51.8901 H         1 UNK         0.0892 
     70 H70        32.6269  -43.9902  -52.6166 H         1 UNK         0.3107 
     71 H71        34.1002  -44.0963  -50.1689 H         1 UNK         0.0773 
     72 H72        35.3672  -43.7245  -52.9203 H         1 UNK         0.0680 
     73 H73        35.9750  -43.2191  -51.3817 H         1 UNK         0.0680 
     74 H74        33.7403  -40.5643  -54.1774 H         1 UNK         0.0650 
     75 H75        35.0273  -41.7164  -54.4290 H         1 UNK         0.0650 
     76 H76        34.5205  -44.0606  -54.9674 H         1 UNK         0.1397 
     77 H77        30.4366  -45.2307  -55.5063 H         1 UNK         0.1363 
     78 H78        31.3494  -41.3188  -54.0435 H         1 UNK         0.1355 
     79 H79        28.7781  -43.7049  -54.0938 H         1 UNK         0.0707 
     80 H80        29.0554  -41.9840  -54.2560 H         1 UNK         0.0707 
     81 H81        26.1109  -42.5455  -56.5824 H         1 UNK         0.1034 
     82 H82        26.5658  -42.6949  -54.9126 H         1 UNK         0.1034 
     83 H83        26.9012  -45.1712  -55.2296 H         1 UNK         0.0482 
     84 H84        23.5605  -46.1103  -54.4078 H         1 UNK         0.3460 
     85 H85        25.1519  -46.7436  -54.7656 H         1 UNK         0.3460 
     86 H86        27.0369  -46.0435  -57.2347 H         1 UNK         0.2989 
     87 H87        25.2867  -45.5180  -60.3457 H         1 UNK         0.0559 
     88 H88        28.1005  -46.2118  -59.3701 H         1 UNK         0.0848 
     89 H89        27.6705  -44.7403  -60.2258 H         1 UNK         0.0848 
     90 H90        27.4901  -46.2979  -61.0160 H         1 UNK         0.0848 
     91 H91        26.3345  -47.9150  -59.0199 H         1 UNK         0.3144 
     92 H92        23.0752  -49.3826  -58.7386 H         1 UNK         0.0727 
     93 H93        25.5869  -50.0170  -60.3707 H         1 UNK         0.0790 
     94 H94        23.9718  -49.7752  -61.0152 H         1 UNK         0.0790 
     95 H95        24.2952  -51.1446  -59.9647 H         1 UNK         0.0790 
     96 H96        24.1539  -50.0437  -56.9701 H         1 UNK         0.3215 
     97 H97        25.6108  -50.3915  -55.3840 H         1 UNK         0.0863 
     98 H98        27.7288  -51.9949  -56.9245 H         1 UNK         0.0808 
     99 H99        26.0556  -52.4756  -56.6782 H         1 UNK         0.0808 
    100 H100       27.1439  -52.3656  -55.3030 H         1 UNK         0.0808 
    101 H101       28.5109  -49.9677  -55.7667 H         1 UNK         0.3118 
    102 H102       28.5076  -46.7852  -54.2223 H         1 UNK         0.0546 
    103 H103       30.1536  -47.8333  -52.6615 H         1 UNK         0.0828 
    104 H104       29.5133  -49.4306  -53.0335 H         1 UNK         0.0828 
    105 H105       28.5116  -48.2486  -52.2026 H         1 UNK         0.0828 
    106 H106       30.6153  -48.4943  -55.0752 H         1 UNK         0.3005 
    107 H107       30.2646  -48.3477  -58.4603 H         1 UNK         0.1257 
    108 H108       31.0024  -45.7530  -57.9890 H         1 UNK         0.0775 
    109 H109       31.6992  -46.7665  -59.1966 H         1 UNK         0.0775 
    110 H110       32.2944  -46.9357  -55.2975 H         1 UNK         0.0840 
    111 H111       33.9386  -46.4122  -55.1570 H         1 UNK         0.0840 
    112 H112       32.6789  -48.7444  -57.1028 H         1 UNK         0.2987 
    113 H113       32.1865  -52.1735  -56.4325 H         1 UNK         0.0785 
    114 H114       33.7838  -50.9624  -57.9905 H         1 UNK         0.0798 
    115 H115       34.2566  -49.9042  -56.6614 H         1 UNK         0.0798 
    116 H116       34.5771  -51.6288  -56.5747 H         1 UNK         0.0798 
    117 H117       32.5527  -49.9069  -54.5142 H         1 UNK         0.3079 
    118 H118       31.6104  -50.7775  -52.2476 H         1 UNK         0.0794 
    119 H119       32.6380  -51.9759  -50.3307 H         1 UNK         0.0786 
    120 H120       33.6563  -52.9053  -51.4314 H         1 UNK         0.0786 
    121 H121       31.9096  -53.1088  -51.4537 H         1 UNK         0.0786 
    122 H122       34.4249  -50.5711  -51.6213 H         1 UNK         0.3032 
    123 H123       35.1494  -48.4357  -51.1791 H         1 UNK         0.1094 
    124 H124       35.5939  -47.9017  -54.1835 H         1 UNK         0.0794 
    125 H125       36.7730  -47.5875  -52.9121 H         1 UNK         0.0794 
    126 H126       36.2842  -49.2348  -53.2702 H         1 UNK         0.0794 
    127 H127       33.4945  -46.5135  -52.5809 H         1 UNK         0.3016 
@<TRIPOS>BOND
     1    1    2 1    
     2    1   67 1    
     3    1   68 1    
     4    1   69 1    
     5    2    3 2    
     6    2    4 am   BACKBONE|DICT|INTERRES
     7    4    5 1    
     8    4   70 1    
     9    5    6 1    
    10    5   65 1    
    11    5   71 1    
    12    6    7 1    
    13    6   72 1    
    14    6   73 1    
    15    7    8 1    
    16    8    9 1    
    17    8   74 1    
    18    8   75 1    
    19    9   10 ar   
    20    9   14 ar   
    21   10   11 ar   
    22   10   76 1    
    23   11   12 ar   
    24   11   48 1    
    25   12   13 ar   
    26   12   77 1    
    27   13   14 ar   
    28   13   15 1    
    29   14   78 1    
    30   15   16 1    
    31   15   79 1    
    32   15   80 1    
    33   16   17 1    
    34   17   18 1    
    35   17   81 1    
    36   17   82 1    
    37   18   19 1    
    38   18   22 1    
    39   18   83 1    
    40   19   20 am   BACKBONE|DICT|INTERRES
    41   19   21 2    
    42   20   84 1    
    43   20   85 1    
    44   22   23 am   BACKBONE|DICT|INTERRES
    45   22   86 1    
    46   23   24 2    
    47   23   25 1    
    48   25   26 1    
    49   25   27 1    
    50   25   87 1    
    51   26   88 1    
    52   26   89 1    
    53   26   90 1    
    54   27   28 am   BACKBONE|DICT|INTERRES
    55   27   91 1    
    56   28   29 2    
    57   28   30 1    
    58   30   31 1    
    59   30   32 1    
    60   30   92 1    
    61   31   93 1    
    62   31   94 1    
    63   31   95 1    
    64   32   33 am   BACKBONE|DICT|INTERRES
    65   32   96 1    
    66   33   34 2    
    67   33   35 1    
    68   35   36 1    
    69   35   37 1    
    70   35   97 1    
    71   36   98 1    
    72   36   99 1    
    73   36  100 1    
    74   37   38 am   BACKBONE|DICT|INTERRES
    75   37  101 1    
    76   38   39 2    
    77   38   40 1    
    78   40   41 1    
    79   40   42 1    
    80   40  102 1    
    81   41  103 1    
    82   41  104 1    
    83   41  105 1    
    84   42   43 am   BACKBONE|DICT|INTERRES
    85   42  106 1    
    86   43   44 2    
    87   43   45 1    
    88   45   46 1    
    89   45   49 1    
    90   45  107 1    
    91   46   47 1    
    92   46  108 1    
    93   46  109 1    
    94   47   48 1    
    95   48  110 1    
    96   48  111 1    
    97   49   50 am   BACKBONE|DICT|INTERRES
    98   49  112 1    
    99   50   51 2    
   100   50   52 1    
   101   52   53 1    
   102   52   54 1    
   103   52  113 1    
   104   53  114 1    
   105   53  115 1    
   106   53  116 1    
   107   54   55 am   BACKBONE|DICT|INTERRES
   108   54  117 1    
   109   55   56 2    
   110   55   57 1    
   111   57   58 1    
   112   57   59 1    
   113   57  118 1    
   114   58  119 1    
   115   58  120 1    
   116   58  121 1    
   117   59   60 am   BACKBONE|DICT|INTERRES
   118   59  122 1    
   119   60   61 2    
   120   60   62 1    
   121   62   63 1    
   122   62   64 1    
   123   62  123 1    
   124   63  124 1    
   125   63  125 1    
   126   63  126 1    
   127   64   65 am   BACKBONE|DICT|INTERRES
   128   64  127 1    
   129   65   66 2    
@<TRIPOS>SUBSTRUCTURE
     1 UNK         1 GROUP             0       ****    0 ROOT    
