@<TRIPOS>MOLECULE
3R134
127   129    1
SMALL
USER_CHARGES


@<TRIPOS>ATOM
      1 CA         28.8259  -43.4926  -49.2606 C.3       0 UNK        -0.1968 
      2 C          30.1751  -44.1141  -49.5906 C.2       0 UNK         0.4852 
      3 O          30.9422  -44.4247  -48.6773 O.2       0 UNK        -0.5359 
      4 N          30.4744  -44.2835  -50.8847 N.am      1 UNK        -0.4300 
      5 CA         31.7104  -44.8939  -51.3896 C.3       1 UNK         0.0863 
      6 C6         31.8854  -44.6445  -52.9070 C.3       11 UNK        -0.0953 
      7 S7         32.1009  -42.8696  -53.2633 S.3       11 UNK        -0.2369 
      8 C8         33.2919  -42.9067  -54.6442 C.3       11 UNK         0.0226 
      9 C9         32.7229  -43.5217  -55.9196 C.ar      11 UNK        -0.0699 
     10 C10        33.4976  -44.4086  -56.6730 C.ar      11 UNK        -0.0804 
     11 C11        33.0066  -44.9472  -57.8667 C.ar      11 UNK        -0.0871 
     12 C12        31.7127  -44.6253  -58.2876 C.ar      11 UNK        -0.1008 
     13 C13        30.9293  -43.7339  -57.5473 C.ar      11 UNK        -0.0735 
     14 C14        31.4488  -43.1718  -56.3781 C.ar      11 UNK        -0.0945 
     15 C15        29.5402  -43.3470  -58.0337 C.3       11 UNK         0.0169 
     16 S16        28.2505  -44.4354  -57.3545 S.3       11 UNK        -0.2669 
     17 C17        27.8995  -43.6599  -55.7353 C.3       11 UNK        -0.0850 
     18 CA         27.4324  -44.6923  -54.6720 C.3       10 UNK         0.0855 
     19 C          27.3819  -44.0975  -53.2347 C.2       10 UNK         0.5543 
     20 N          26.3220  -44.3004  -52.4631 N.am      10 UNK        -0.7343 
     21 O          28.3521  -43.4907  -52.7873 O.2       10 UNK        -0.5027 
     22 N          26.2488  -45.4662  -55.0887 N.am      10 UNK        -0.4495 
     23 C          25.0342  -44.9954  -55.3972 C.2       10 UNK         0.4903 
     24 O          24.7125  -43.8090  -55.3140 O.2       10 UNK        -0.4860 
     25 CA         24.0097  -46.0478  -55.8694 C.3       9 UNK         0.0227 
     26 CB         22.6672  -45.4304  -56.3169 C.3       9 UNK        -0.1964 
     27 N          24.5502  -46.9405  -56.9043 N.am      9 UNK        -0.4231 
     28 C          25.0058  -46.6111  -58.1235 C.2       9 UNK         0.5014 
     29 O          24.9618  -45.4677  -58.5802 O.2       9 UNK        -0.5270 
     30 CA         25.6031  -47.7502  -58.9855 C.3       8 UNK         0.0284 
     31 CB         26.4984  -47.2149  -60.1193 C.3       8 UNK        -0.1977 
     32 N          26.3770  -48.7229  -58.2068 N.am      8 UNK        -0.4342 
     33 C          25.8690  -49.7069  -57.4496 C.2       8 UNK         0.5039 
     34 O          24.6625  -49.9341  -57.3607 O.2       8 UNK        -0.5547 
     35 CA         26.8525  -50.5293  -56.5925 C.3       7 UNK         0.0281 
     36 CB         27.2248  -51.8376  -57.3072 C.3       7 UNK        -0.1963 
     37 N          28.0781  -49.8025  -56.2507 N.am      7 UNK        -0.4444 
     38 C          28.1276  -48.6374  -55.5872 C.2       7 UNK         0.5104 
     39 O          27.1428  -48.1204  -55.0593 O.2       7 UNK        -0.5100 
     40 CA         29.4772  -47.8966  -55.5367 C.3       6 UNK         0.0396 
     41 CB         29.9677  -47.7819  -54.0877 C.3       6 UNK        -0.1801 
     42 N          30.5238  -48.4949  -56.3718 N.am      6 UNK        -0.4747 
     43 C          30.5144  -48.5095  -57.7160 C.2       6 UNK         0.5012 
     44 O          29.6081  -48.0105  -58.3854 O.2       6 UNK        -0.5003 
     45 CA         31.6481  -49.2622  -58.4476 C.3       5 UNK         0.0782 
     46 C46        32.5927  -48.2981  -59.2104 C.3       11 UNK        -0.0868 
     47 S47        33.8978  -47.5553  -58.1680 S.3       11 UNK        -0.2515 
     48 C48        33.9041  -45.8266  -58.7234 C.3       11 UNK         0.0199 
     49 N          32.3936  -50.1880  -57.5890 N.am      5 UNK        -0.4607 
     50 C          31.9147  -51.3062  -57.0324 C.2       4 UNK         0.5031 
     51 O          30.7799  -51.7371  -57.2378 O.2       4 UNK        -0.5119 
     52 CA         32.8468  -52.0374  -56.0455 C.3       4 UNK         0.0263 
     53 CB         33.6404  -53.1343  -56.7730 C.3       4 UNK        -0.1967 
     54 N          33.7799  -51.1549  -55.3247 N.am      4 UNK        -0.4237 
     55 C          33.4067  -50.1474  -54.5219 C.2       3 UNK         0.4908 
     56 O          32.2319  -49.8290  -54.3450 O.2       3 UNK        -0.5102 
     57 CA         34.5257  -49.3284  -53.8542 C.3       3 UNK         0.0241 
     58 CB         35.0964  -48.2941  -54.8377 C.3       3 UNK        -0.1971 
     59 N          34.0546  -48.6191  -52.6603 N.am      3 UNK        -0.4139 
     60 C          33.7253  -49.2002  -51.4987 C.2       2 UNK         0.5016 
     61 O          33.8274  -50.4108  -51.2913 O.2       2 UNK        -0.5319 
     62 CA         33.2300  -48.2890  -50.3595 C.3       2 UNK         0.0286 
     63 CB         34.2520  -48.2718  -49.2090 C.3       2 UNK        -0.1963 
     64 N          32.9796  -46.9028  -50.7782 N.am      2 UNK        -0.4790 
     65 C          31.7685  -46.4016  -51.0588 C.2       1 UNK         0.5024 
     66 O          30.7354  -47.0741  -51.0667 O.2       1 UNK        -0.4888 
     67 H67        28.1482  -44.2522  -48.8721 H         1 UNK         0.0892 
     68 H68        28.9425  -42.7183  -48.5028 H         1 UNK         0.0892 
     69 H69        28.3647  -43.0363  -50.1357 H         1 UNK         0.0892 
     70 H70        29.7991  -44.0050  -51.5923 H         1 UNK         0.3107 
     71 H71        32.5422  -44.4135  -50.8691 H         1 UNK         0.0773 
     72 H72        32.7506  -45.1875  -53.2920 H         1 UNK         0.0680 
     73 H73        31.0191  -45.0027  -53.4658 H         1 UNK         0.0680 
     74 H74        34.1880  -43.4387  -54.3208 H         1 UNK         0.0650 
     75 H75        33.6016  -41.8841  -54.8625 H         1 UNK         0.0650 
     76 H76        34.4965  -44.6627  -56.3452 H         1 UNK         0.1397 
     77 H77        31.3230  -45.0475  -59.2039 H         1 UNK         0.1363 
     78 H78        30.8630  -42.4560  -55.8200 H         1 UNK         0.1355 
     79 H79        29.3198  -42.3085  -57.7818 H         1 UNK         0.0707 
     80 H80        29.5036  -43.4066  -59.1225 H         1 UNK         0.0707 
     81 H81        28.7963  -43.1511  -55.3855 H         1 UNK         0.1034 
     82 H82        27.1493  -42.8802  -55.8739 H         1 UNK         0.1034 
     83 H83        28.2245  -45.4324  -54.5984 H         1 UNK         0.0482 
     84 H84        26.3056  -43.9239  -51.5294 H         1 UNK         0.3460 
     85 H85        25.5269  -44.8050  -52.8196 H         1 UNK         0.3460 
     86 H86        26.4097  -46.4698  -55.1512 H         1 UNK         0.2989 
     87 H87        23.8046  -46.6798  -55.0041 H         1 UNK         0.0559 
     88 H88        22.7941  -44.7464  -57.1565 H         1 UNK         0.0848 
     89 H89        22.2089  -44.8639  -55.5053 H         1 UNK         0.0848 
     90 H90        21.9557  -46.2000  -56.6156 H         1 UNK         0.0848 
     91 H91        24.6060  -47.9216  -56.6547 H         1 UNK         0.3144 
     92 H92        24.7602  -48.2698  -59.4458 H         1 UNK         0.0727 
     93 H93        27.3447  -46.6488  -59.7264 H         1 UNK         0.0790 
     94 H94        25.9416  -46.5530  -60.7837 H         1 UNK         0.0790 
     95 H95        26.8933  -48.0258  -60.7316 H         1 UNK         0.0790 
     96 H96        27.3799  -48.5772  -58.1904 H         1 UNK         0.3215 
     97 H97        26.3442  -50.7765  -55.6581 H         1 UNK         0.0863 
     98 H98        27.8548  -52.4680  -56.6791 H         1 UNK         0.0808 
     99 H99        27.7626  -51.6505  -58.2377 H         1 UNK         0.0808 
    100 H100       26.3332  -52.4155  -57.5547 H         1 UNK         0.0808 
    101 H101       28.9443  -50.1734  -56.6188 H         1 UNK         0.3118 
    102 H102       29.3112  -46.8900  -55.9212 H         1 UNK         0.0546 
    103 H103       29.2934  -47.1710  -53.4874 H         1 UNK         0.0828 
    104 H104       30.9564  -47.3277  -54.0351 H         1 UNK         0.0828 
    105 H105       30.0219  -48.7563  -53.6016 H         1 UNK         0.0828 
    106 H106       31.2729  -48.9667  -55.8733 H         1 UNK         0.3005 
    107 H107       31.1407  -49.8726  -59.1985 H         1 UNK         0.1257 
    108 H108       32.0239  -47.5183  -59.7207 H         1 UNK         0.0775 
    109 H109       33.0978  -48.8506  -60.0041 H         1 UNK         0.0775 
    110 H110       34.9280  -45.4533  -58.6712 H         1 UNK         0.0840 
    111 H111       33.6223  -45.7640  -59.7756 H         1 UNK         0.0840 
    112 H112       33.3320  -49.8963  -57.3563 H         1 UNK         0.2987 
    113 H113       32.2090  -52.5156  -55.2991 H         1 UNK         0.0785 
    114 H114       32.9707  -53.8177  -57.2973 H         1 UNK         0.0798 
    115 H115       34.2257  -53.7319  -56.0739 H         1 UNK         0.0798 
    116 H116       34.3234  -52.7157  -57.5134 H         1 UNK         0.0798 
    117 H117       34.7648  -51.3503  -55.4360 H         1 UNK         0.3079 
    118 H118       35.3230  -50.0122  -53.5552 H         1 UNK         0.0794 
    119 H119       34.3362  -47.5780  -55.1539 H         1 UNK         0.0786 
    120 H120       35.4871  -48.7747  -55.7355 H         1 UNK         0.0786 
    121 H121       35.9184  -47.7336  -54.3921 H         1 UNK         0.0786 
    122 H122       33.9031  -47.6268  -52.7509 H         1 UNK         0.3032 
    123 H123       32.3072  -48.7349  -49.9805 H         1 UNK         0.1094 
    124 H124       35.2107  -47.8581  -49.5244 H         1 UNK         0.0794 
    125 H125       33.8908  -47.6802  -48.3674 H         1 UNK         0.0794 
    126 H126       34.4395  -49.2795  -48.8353 H         1 UNK         0.0794 
    127 H127       33.7790  -46.2839  -50.7837 H         1 UNK         0.3016 
@<TRIPOS>BOND
     1    1    2 1    
     2    1   67 1    
     3    1   68 1    
     4    1   69 1    
     5    2    3 2    
     6    2    4 am   BACKBONE|DICT|INTERRES
     7    4    5 1    
     8    4   70 1    
     9    5    6 1    
    10    5   65 1    
    11    5   71 1    
    12    6    7 1    
    13    6   72 1    
    14    6   73 1    
    15    7    8 1    
    16    8    9 1    
    17    8   74 1    
    18    8   75 1    
    19    9   10 ar   
    20    9   14 ar   
    21   10   11 ar   
    22   10   76 1    
    23   11   12 ar   
    24   11   48 1    
    25   12   13 ar   
    26   12   77 1    
    27   13   14 ar   
    28   13   15 1    
    29   14   78 1    
    30   15   16 1    
    31   15   79 1    
    32   15   80 1    
    33   16   17 1    
    34   17   18 1    
    35   17   81 1    
    36   17   82 1    
    37   18   19 1    
    38   18   22 1    
    39   18   83 1    
    40   19   20 am   BACKBONE|DICT|INTERRES
    41   19   21 2    
    42   20   84 1    
    43   20   85 1    
    44   22   23 am   BACKBONE|DICT|INTERRES
    45   22   86 1    
    46   23   24 2    
    47   23   25 1    
    48   25   26 1    
    49   25   27 1    
    50   25   87 1    
    51   26   88 1    
    52   26   89 1    
    53   26   90 1    
    54   27   28 am   BACKBONE|DICT|INTERRES
    55   27   91 1    
    56   28   29 2    
    57   28   30 1    
    58   30   31 1    
    59   30   32 1    
    60   30   92 1    
    61   31   93 1    
    62   31   94 1    
    63   31   95 1    
    64   32   33 am   BACKBONE|DICT|INTERRES
    65   32   96 1    
    66   33   34 2    
    67   33   35 1    
    68   35   36 1    
    69   35   37 1    
    70   35   97 1    
    71   36   98 1    
    72   36   99 1    
    73   36  100 1    
    74   37   38 am   BACKBONE|DICT|INTERRES
    75   37  101 1    
    76   38   39 2    
    77   38   40 1    
    78   40   41 1    
    79   40   42 1    
    80   40  102 1    
    81   41  103 1    
    82   41  104 1    
    83   41  105 1    
    84   42   43 am   BACKBONE|DICT|INTERRES
    85   42  106 1    
    86   43   44 2    
    87   43   45 1    
    88   45   46 1    
    89   45   49 1    
    90   45  107 1    
    91   46   47 1    
    92   46  108 1    
    93   46  109 1    
    94   47   48 1    
    95   48  110 1    
    96   48  111 1    
    97   49   50 am   BACKBONE|DICT|INTERRES
    98   49  112 1    
    99   50   51 2    
   100   50   52 1    
   101   52   53 1    
   102   52   54 1    
   103   52  113 1    
   104   53  114 1    
   105   53  115 1    
   106   53  116 1    
   107   54   55 am   BACKBONE|DICT|INTERRES
   108   54  117 1    
   109   55   56 2    
   110   55   57 1    
   111   57   58 1    
   112   57   59 1    
   113   57  118 1    
   114   58  119 1    
   115   58  120 1    
   116   58  121 1    
   117   59   60 am   BACKBONE|DICT|INTERRES
   118   59  122 1    
   119   60   61 2    
   120   60   62 1    
   121   62   63 1    
   122   62   64 1    
   123   62  123 1    
   124   63  124 1    
   125   63  125 1    
   126   63  126 1    
   127   64   65 am   BACKBONE|DICT|INTERRES
   128   64  127 1    
   129   65   66 2    
@<TRIPOS>SUBSTRUCTURE
     1 UNK         1 GROUP             0       ****    0 ROOT    
