@<TRIPOS>MOLECULE
3R134
127   129    1
SMALL
USER_CHARGES


@<TRIPOS>ATOM
      1 CA         33.5350  -49.3195  -57.8981 C.3       0 UNK        -0.1968 
      2 C          33.4947  -48.8143  -56.4644 C.2       0 UNK         0.4852 
      3 O          33.2461  -49.6004  -55.5501 O.2       0 UNK        -0.5359 
      4 N          33.7654  -47.5163  -56.2618 N.am      1 UNK        -0.4300 
      5 CA         33.7287  -46.8013  -54.9750 C.3       1 UNK         0.0863 
      6 C6         34.1457  -45.3181  -55.1301 C.3       11 UNK        -0.0953 
      7 S7         33.1744  -44.4199  -56.3857 S.3       11 UNK        -0.2369 
      8 C8         33.0876  -42.7562  -55.6538 C.3       11 UNK         0.0226 
      9 C9         31.8709  -42.6026  -54.7545 C.ar      11 UNK        -0.0699 
     10 C10        31.9576  -42.8598  -53.3825 C.ar      11 UNK        -0.0804 
     11 C11        30.8357  -42.7098  -52.5615 C.ar      11 UNK        -0.0871 
     12 C12        29.6243  -42.2905  -53.1219 C.ar      11 UNK        -0.1008 
     13 C13        29.5270  -42.0260  -54.4909 C.ar      11 UNK        -0.0735 
     14 C14        30.6549  -42.1823  -55.3010 C.ar      11 UNK        -0.0945 
     15 C15        28.2080  -41.5523  -55.0861 C.3       11 UNK         0.0169 
     16 S16        27.1131  -42.9462  -55.5009 S.3       11 UNK        -0.2669 
     17 C17        27.9035  -43.6155  -57.0066 C.3       11 UNK        -0.0850 
     18 CA         26.8629  -43.8871  -58.1263 C.3       10 UNK         0.0855 
     19 C          27.5057  -43.9960  -59.5411 C.2       10 UNK         0.5543 
     20 N          27.0321  -44.8647  -60.4269 N.am      10 UNK        -0.7343 
     21 O          28.4331  -43.2563  -59.8614 O.2       10 UNK        -0.5027 
     22 N          26.0286  -45.0532  -57.7989 N.am      10 UNK        -0.4495 
     23 C          24.6944  -45.0520  -57.6858 C.2       10 UNK         0.4903 
     24 O          24.0018  -44.0350  -57.7545 O.2       10 UNK        -0.4860 
     25 CA         24.0137  -46.4242  -57.4761 C.3       9 UNK         0.0227 
     26 CB         22.5331  -46.4282  -57.9123 C.3       9 UNK        -0.1964 
     27 N          24.7359  -47.5417  -58.0996 N.am      9 UNK        -0.4231 
     28 C          25.0867  -47.6594  -59.3921 C.2       9 UNK         0.5014 
     29 O          24.7649  -46.8460  -60.2603 O.2       9 UNK        -0.5270 
     30 CA         25.9876  -48.8544  -59.7758 C.3       8 UNK         0.0284 
     31 CB         26.8859  -48.5474  -60.9932 C.3       8 UNK        -0.1977 
     32 N          26.8016  -49.3743  -58.6684 N.am      8 UNK        -0.4342 
     33 C          27.6632  -48.6920  -57.8988 C.2       8 UNK         0.5039 
     34 O          27.9074  -47.4883  -58.0174 O.2       8 UNK        -0.5547 
     35 CA         28.3052  -49.4912  -56.7526 C.3       7 UNK         0.0281 
     36 CB         29.8351  -49.5054  -56.8922 C.3       7 UNK        -0.1963 
     37 N          27.9297  -48.9731  -55.4326 N.am      7 UNK        -0.4444 
     38 C          26.6720  -48.7856  -54.9954 C.2       7 UNK         0.5104 
     39 O          25.6717  -49.0381  -55.6711 O.2       7 UNK        -0.5100 
     40 CA         26.4677  -48.2549  -53.5614 C.3       6 UNK         0.0396 
     41 CB         25.8197  -49.3351  -52.6794 C.3       6 UNK        -0.1801 
     42 N          27.6922  -47.7895  -52.9073 N.am      6 UNK        -0.4747 
     43 C          28.3553  -46.6647  -53.2137 C.2       6 UNK         0.5012 
     44 O          27.9733  -45.8691  -54.0672 O.2       6 UNK        -0.5003 
     45 CA         29.6792  -46.3997  -52.4626 C.3       5 UNK         0.0782 
     46 C46        29.4595  -45.3850  -51.3154 C.3       11 UNK        -0.0868 
     47 S47        31.0475  -44.7544  -50.6763 S.3       11 UNK        -0.2515 
     48 C48        30.9374  -42.9769  -51.0652 C.3       11 UNK         0.0199 
     49 N          30.3025  -47.6385  -51.9706 N.am      5 UNK        -0.4607 
     50 C          30.7673  -48.6178  -52.7542 C.2       4 UNK         0.5031 
     51 O          30.7605  -48.5660  -53.9829 O.2       4 UNK        -0.5119 
     52 CA         31.2065  -49.9045  -52.0542 C.3       4 UNK         0.0263 
     53 CB         30.0185  -50.8862  -51.9786 C.3       4 UNK        -0.1967 
     54 N          32.3234  -50.5007  -52.7836 N.am      4 UNK        -0.4237 
     55 C          33.1168  -51.4685  -52.3037 C.2       3 UNK         0.4908 
     56 O          32.9670  -51.9988  -51.2020 O.2       3 UNK        -0.5102 
     57 CA         34.3010  -51.8963  -53.1801 C.3       3 UNK         0.0241 
     58 CB         33.8337  -52.7095  -54.3998 C.3       3 UNK        -0.1971 
     59 N          35.0586  -50.7218  -53.6092 N.am      3 UNK        -0.4139 
     60 C          36.0208  -50.1409  -52.8769 C.2       2 UNK         0.5016 
     61 O          36.4481  -50.6041  -51.8184 O.2       2 UNK        -0.5319 
     62 CA         36.6171  -48.8206  -53.3993 C.3       2 UNK         0.0286 
     63 CB         37.9333  -49.0846  -54.1485 C.3       2 UNK        -0.1963 
     64 N          35.7112  -48.0729  -54.2734 N.am      2 UNK        -0.4790 
     65 C          34.5883  -47.4576  -53.8726 C.2       1 UNK         0.5024 
     66 O          34.2199  -47.4039  -52.6991 O.2       1 UNK        -0.4888 
     67 H67        33.6537  -48.5069  -58.6144 H         1 UNK         0.0892 
     68 H68        34.3655  -50.0130  -58.0263 H         1 UNK         0.0892 
     69 H69        32.6128  -49.8479  -58.1355 H         1 UNK         0.0892 
     70 H70        33.9560  -46.9276  -57.0604 H         1 UNK         0.3107 
     71 H71        32.6933  -46.8282  -54.6308 H         1 UNK         0.0773 
     72 H72        34.0466  -44.8055  -54.1724 H         1 UNK         0.0680 
     73 H73        35.1986  -45.2400  -55.4085 H         1 UNK         0.0680 
     74 H74        33.0400  -42.0247  -56.4620 H         1 UNK         0.0650 
     75 H75        34.0049  -42.5369  -55.1052 H         1 UNK         0.0650 
     76 H76        32.8961  -43.1760  -52.9490 H         1 UNK         0.1397 
     77 H77        28.7524  -42.1677  -52.4938 H         1 UNK         0.1363 
     78 H78        30.5906  -41.9744  -56.3600 H         1 UNK         0.1355 
     79 H79        27.6957  -40.9090  -54.3691 H         1 UNK         0.0707 
     80 H80        28.3798  -40.9380  -55.9714 H         1 UNK         0.0707 
     81 H81        28.6555  -42.9029  -57.3456 H         1 UNK         0.1034 
     82 H82        28.4463  -44.5277  -56.7499 H         1 UNK         0.1034 
     83 H83        26.2332  -42.9990  -58.2009 H         1 UNK         0.0482 
     84 H84        27.4542  -44.9090  -61.3401 H         1 UNK         0.3460 
     85 H85        26.2405  -45.4589  -60.2087 H         1 UNK         0.3460 
     86 H86        26.5270  -45.9379  -57.7708 H         1 UNK         0.2989 
     87 H87        24.0423  -46.6114  -56.4017 H         1 UNK         0.0559 
     88 H88        21.9567  -45.6902  -57.3531 H         1 UNK         0.0848 
     89 H89        22.0697  -47.3987  -57.7357 H         1 UNK         0.0848 
     90 H90        22.4239  -46.1915  -58.9712 H         1 UNK         0.0848 
     91 H91        25.0814  -48.2411  -57.4476 H         1 UNK         0.3144 
     92 H92        25.3077  -49.6585  -60.0608 H         1 UNK         0.0727 
     93 H93        27.5751  -47.7276  -60.7883 H         1 UNK         0.0790 
     94 H94        26.2918  -48.2654  -61.8634 H         1 UNK         0.0790 
     95 H95        27.4777  -49.4173  -61.2779 H         1 UNK         0.0790 
     96 H96        26.6465  -50.3488  -58.4468 H         1 UNK         0.3215 
     97 H97        27.9564  -50.5246  -56.8018 H         1 UNK         0.0863 
     98 H98        30.2991  -50.1526  -56.1474 H         1 UNK         0.0808 
     99 H99        30.2584  -48.5065  -56.7760 H         1 UNK         0.0808 
    100 H100       30.1337  -49.8756  -57.8734 H         1 UNK         0.0808 
    101 H101       28.6964  -48.7106  -54.8252 H         1 UNK         0.3118 
    102 H102       25.7771  -47.4116  -53.6281 H         1 UNK         0.0546 
    103 H103       26.4634  -50.2091  -52.5722 H         1 UNK         0.0828 
    104 H104       24.8766  -49.6773  -53.1081 H         1 UNK         0.0828 
    105 H105       25.5979  -48.9549  -51.6821 H         1 UNK         0.0828 
    106 H106       28.0777  -48.3856  -52.1901 H         1 UNK         0.3005 
    107 H107       30.3569  -45.9519  -53.1945 H         1 UNK         0.1257 
    108 H108       28.9095  -45.8449  -50.4923 H         1 UNK         0.0775 
    109 H109       28.8463  -44.5457  -51.6466 H         1 UNK         0.0775 
    110 H110       30.0855  -42.5471  -50.5356 H         1 UNK         0.0840 
    111 H111       31.8219  -42.4753  -50.6699 H         1 UNK         0.0840 
    112 H112       30.3483  -47.7431  -50.9672 H         1 UNK         0.2987 
    113 H113       31.5440  -49.6577  -51.0453 H         1 UNK         0.0785 
    114 H114       29.1731  -50.4423  -51.4520 H         1 UNK         0.0798 
    115 H115       30.2805  -51.7985  -51.4430 H         1 UNK         0.0798 
    116 H116       29.6720  -51.1716  -52.9729 H         1 UNK         0.0798 
    117 H117       32.5033  -50.1027  -53.7042 H         1 UNK         0.3079 
    118 H118       34.9480  -52.5428  -52.5830 H         1 UNK         0.0794 
    119 H119       34.6782  -53.0171  -55.0165 H         1 UNK         0.0786 
    120 H120       33.1451  -52.1493  -55.0324 H         1 UNK         0.0786 
    121 H121       33.3160  -53.6160  -54.0836 H         1 UNK         0.0786 
    122 H122       34.7054  -50.2397  -54.4307 H         1 UNK         0.3032 
    123 H123       36.8361  -48.1989  -52.5280 H         1 UNK         0.1094 
    124 H124       37.7762  -49.6922  -55.0406 H         1 UNK         0.0794 
    125 H125       38.4105  -48.1533  -54.4542 H         1 UNK         0.0794 
    126 H126       38.6435  -49.6164  -53.5134 H         1 UNK         0.0794 
    127 H127       35.9320  -48.0634  -55.2590 H         1 UNK         0.3016 
@<TRIPOS>BOND
     1    1    2 1    
     2    1   67 1    
     3    1   68 1    
     4    1   69 1    
     5    2    3 2    
     6    2    4 am   BACKBONE|DICT|INTERRES
     7    4    5 1    
     8    4   70 1    
     9    5    6 1    
    10    5   65 1    
    11    5   71 1    
    12    6    7 1    
    13    6   72 1    
    14    6   73 1    
    15    7    8 1    
    16    8    9 1    
    17    8   74 1    
    18    8   75 1    
    19    9   10 ar   
    20    9   14 ar   
    21   10   11 ar   
    22   10   76 1    
    23   11   12 ar   
    24   11   48 1    
    25   12   13 ar   
    26   12   77 1    
    27   13   14 ar   
    28   13   15 1    
    29   14   78 1    
    30   15   16 1    
    31   15   79 1    
    32   15   80 1    
    33   16   17 1    
    34   17   18 1    
    35   17   81 1    
    36   17   82 1    
    37   18   19 1    
    38   18   22 1    
    39   18   83 1    
    40   19   20 am   BACKBONE|DICT|INTERRES
    41   19   21 2    
    42   20   84 1    
    43   20   85 1    
    44   22   23 am   BACKBONE|DICT|INTERRES
    45   22   86 1    
    46   23   24 2    
    47   23   25 1    
    48   25   26 1    
    49   25   27 1    
    50   25   87 1    
    51   26   88 1    
    52   26   89 1    
    53   26   90 1    
    54   27   28 am   BACKBONE|DICT|INTERRES
    55   27   91 1    
    56   28   29 2    
    57   28   30 1    
    58   30   31 1    
    59   30   32 1    
    60   30   92 1    
    61   31   93 1    
    62   31   94 1    
    63   31   95 1    
    64   32   33 am   BACKBONE|DICT|INTERRES
    65   32   96 1    
    66   33   34 2    
    67   33   35 1    
    68   35   36 1    
    69   35   37 1    
    70   35   97 1    
    71   36   98 1    
    72   36   99 1    
    73   36  100 1    
    74   37   38 am   BACKBONE|DICT|INTERRES
    75   37  101 1    
    76   38   39 2    
    77   38   40 1    
    78   40   41 1    
    79   40   42 1    
    80   40  102 1    
    81   41  103 1    
    82   41  104 1    
    83   41  105 1    
    84   42   43 am   BACKBONE|DICT|INTERRES
    85   42  106 1    
    86   43   44 2    
    87   43   45 1    
    88   45   46 1    
    89   45   49 1    
    90   45  107 1    
    91   46   47 1    
    92   46  108 1    
    93   46  109 1    
    94   47   48 1    
    95   48  110 1    
    96   48  111 1    
    97   49   50 am   BACKBONE|DICT|INTERRES
    98   49  112 1    
    99   50   51 2    
   100   50   52 1    
   101   52   53 1    
   102   52   54 1    
   103   52  113 1    
   104   53  114 1    
   105   53  115 1    
   106   53  116 1    
   107   54   55 am   BACKBONE|DICT|INTERRES
   108   54  117 1    
   109   55   56 2    
   110   55   57 1    
   111   57   58 1    
   112   57   59 1    
   113   57  118 1    
   114   58  119 1    
   115   58  120 1    
   116   58  121 1    
   117   59   60 am   BACKBONE|DICT|INTERRES
   118   59  122 1    
   119   60   61 2    
   120   60   62 1    
   121   62   63 1    
   122   62   64 1    
   123   62  123 1    
   124   63  124 1    
   125   63  125 1    
   126   63  126 1    
   127   64   65 am   BACKBONE|DICT|INTERRES
   128   64  127 1    
   129   65   66 2    
@<TRIPOS>SUBSTRUCTURE
     1 UNK         1 GROUP             0       ****    0 ROOT    
