@<TRIPOS>MOLECULE
3R134
127   129    1
SMALL
USER_CHARGES


@<TRIPOS>ATOM
      1 CA         30.4012  -48.6272  -50.5053 C.3       0 UNK        -0.1968 
      2 C          31.1488  -47.3108  -50.3485 C.2       0 UNK         0.4852 
      3 O          30.7645  -46.4839  -49.5202 O.2       0 UNK        -0.5359 
      4 N          32.2072  -47.1160  -51.1398 N.am      1 UNK        -0.4300 
      5 CA         33.0636  -45.9322  -51.1440 C.3       1 UNK         0.0863 
      6 C6         32.5693  -44.8948  -52.1883 C.3       11 UNK        -0.0953 
      7 S7         33.1828  -43.2011  -51.8788 S.3       11 UNK        -0.2369 
      8 C8         33.9945  -42.7386  -53.4476 C.3       11 UNK         0.0226 
      9 C9         33.1017  -42.9751  -54.6577 C.ar      11 UNK        -0.0699 
     10 C10        33.3980  -44.0070  -55.5531 C.ar      11 UNK        -0.0804 
     11 C11        32.5450  -44.2825  -56.6237 C.ar      11 UNK        -0.0871 
     12 C12        31.4147  -43.4875  -56.8270 C.ar      11 UNK        -0.1008 
     13 C13        31.1097  -42.4501  -55.9422 C.ar      11 UNK        -0.0735 
     14 C14        31.9608  -42.1924  -54.8628 C.ar      11 UNK        -0.0945 
     15 C15        29.8534  -41.6183  -56.1474 C.3       11 UNK         0.0169 
     16 S16        28.4772  -42.1634  -55.0816 S.3       11 UNK        -0.2669 
     17 C17        28.0469  -43.8107  -55.7479 C.3       11 UNK        -0.0850 
     18 CA         26.9589  -43.7454  -56.8542 C.3       10 UNK         0.0855 
     19 C          27.5709  -43.5566  -58.2659 C.2       10 UNK         0.5543 
     20 N          27.3259  -42.4236  -58.9092 N.am      10 UNK        -0.7343 
     21 O          28.2953  -44.4160  -58.7626 O.2       10 UNK        -0.5027 
     22 N          26.0990  -44.9344  -56.8305 N.am      10 UNK        -0.4495 
     23 C          24.8244  -44.9453  -57.2437 C.2       10 UNK         0.4903 
     24 O          24.2230  -43.9410  -57.6296 O.2       10 UNK        -0.4860 
     25 CA         24.0971  -46.3028  -57.1978 C.3       9 UNK         0.0227 
     26 CB         22.7107  -46.2768  -57.8770 C.3       9 UNK        -0.1964 
     27 N          24.9158  -47.4028  -57.7146 N.am      9 UNK        -0.4231 
     28 C          25.4079  -47.5533  -58.9556 C.2       9 UNK         0.5014 
     29 O          25.1802  -46.7759  -59.8834 O.2       9 UNK        -0.5270 
     30 CA         26.3165  -48.7726  -59.2166 C.3       8 UNK         0.0284 
     31 CB         27.7180  -48.3212  -59.6664 C.3       8 UNK        -0.1977 
     32 N          26.4524  -49.6374  -58.0415 N.am      8 UNK        -0.4342 
     33 C          25.6154  -50.6294  -57.7078 C.2       8 UNK         0.5039 
     34 O          24.6761  -50.9998  -58.4121 O.2       8 UNK        -0.5547 
     35 CA         25.8443  -51.2981  -56.3393 C.3       7 UNK         0.0281 
     36 CB         26.6870  -52.5739  -56.4967 C.3       7 UNK        -0.1963 
     37 N          26.4828  -50.4010  -55.3681 N.am      7 UNK        -0.4444 
     38 C          25.8714  -49.3455  -54.8041 C.2       7 UNK         0.5104 
     39 O          24.6955  -49.0517  -55.0146 O.2       7 UNK        -0.5100 
     40 CA         26.7228  -48.4171  -53.9162 C.3       6 UNK         0.0396 
     41 CB         26.6607  -48.8645  -52.4482 C.3       6 UNK        -0.1801 
     42 N          28.1197  -48.3419  -54.3490 N.am      6 UNK        -0.4747 
     43 C          28.5258  -47.8737  -55.5383 C.2       6 UNK         0.5012 
     44 O          27.7693  -47.3056  -56.3261 O.2       6 UNK        -0.5003 
     45 CA         29.9912  -48.1325  -55.9492 C.3       5 UNK         0.0782 
     46 C46        30.7710  -46.8050  -56.0737 C.3       11 UNK        -0.0868 
     47 S47        32.4928  -47.0433  -56.6366 S.3       11 UNK        -0.2515 
     48 C48        32.8098  -45.4813  -57.5208 C.3       11 UNK         0.0199 
     49 N          30.6814  -49.0965  -55.0832 N.am      5 UNK        -0.4607 
     50 C          30.4205  -50.4048  -54.9852 C.2       4 UNK         0.5031 
     51 O          29.4638  -50.9361  -55.5506 O.2       4 UNK        -0.5119 
     52 CA         31.3683  -51.2442  -54.0970 C.3       4 UNK         0.0263 
     53 CB         31.1606  -52.7577  -54.2929 C.3       4 UNK        -0.1967 
     54 N          32.7917  -50.9294  -54.2920 N.am      4 UNK        -0.4237 
     55 C          33.4123  -49.8229  -53.8623 C.2       3 UNK         0.4908 
     56 O          32.8341  -48.9299  -53.2310 O.2       3 UNK        -0.5102 
     57 CA         34.8998  -49.6630  -54.2174 C.3       3 UNK         0.0241 
     58 CB         35.1809  -49.8680  -55.7186 C.3       3 UNK        -0.1971 
     59 N          35.2904  -48.3152  -53.8255 N.am      3 UNK        -0.4139 
     60 C          36.4706  -47.9177  -53.3426 C.2       2 UNK         0.5016 
     61 O          37.4755  -48.6285  -53.3008 O.2       2 UNK        -0.5319 
     62 CA         36.5256  -46.4789  -52.7881 C.3       2 UNK         0.0286 
     63 CB         37.1291  -45.5231  -53.8300 C.3       2 UNK        -0.1963 
     64 N          35.2091  -45.9718  -52.3723 N.am      2 UNK        -0.4790 
     65 C          34.5093  -46.4340  -51.3255 C.2       1 UNK         0.5024 
     66 O          34.9575  -47.2647  -50.5328 O.2       1 UNK        -0.4888 
     67 H67        30.8228  -49.2424  -51.2995 H         1 UNK         0.0892 
     68 H68        30.4450  -49.1957  -49.5769 H         1 UNK         0.0892 
     69 H69        29.3549  -48.4384  -50.7403 H         1 UNK         0.0892 
     70 H70        32.4839  -47.8458  -51.7958 H         1 UNK         0.3107 
     71 H71        33.0309  -45.4715  -50.1542 H         1 UNK         0.0773 
     72 H72        32.7764  -45.2306  -53.2037 H         1 UNK         0.0680 
     73 H73        31.4816  -44.8227  -52.1376 H         1 UNK         0.0680 
     74 H74        34.9328  -43.2857  -53.5426 H         1 UNK         0.0650 
     75 H75        34.2648  -41.6827  -53.4033 H         1 UNK         0.0650 
     76 H76        34.2668  -44.6304  -55.3956 H         1 UNK         0.1397 
     77 H77        30.7508  -43.6991  -57.6545 H         1 UNK         0.1363 
     78 H78        31.7208  -41.4010  -54.1657 H         1 UNK         0.1355 
     79 H79        29.5438  -41.6392  -57.1926 H         1 UNK         0.0707 
     80 H80        30.0735  -40.5736  -55.9226 H         1 UNK         0.0707 
     81 H81        28.9362  -44.3468  -56.0754 H         1 UNK         0.1034 
     82 H82        27.6726  -44.3850  -54.8988 H         1 UNK         0.1034 
     83 H83        26.3228  -42.8848  -56.6350 H         1 UNK         0.0482 
     84 H84        26.7292  -41.7171  -58.5077 H         1 UNK         0.3460 
     85 H85        27.7243  -42.2830  -59.8242 H         1 UNK         0.3460 
     86 H86        26.5605  -45.8141  -56.6160 H         1 UNK         0.2989 
     87 H87        23.9363  -46.5204  -56.1410 H         1 UNK         0.0559 
     88 H88        22.7795  -46.0118  -58.9324 H         1 UNK         0.0848 
     89 H89        22.0570  -45.5446  -57.4015 H         1 UNK         0.0848 
     90 H90        22.2159  -47.2453  -57.8055 H         1 UNK         0.0848 
     91 H91        25.1585  -48.1062  -57.0297 H         1 UNK         0.3144 
     92 H92        25.8673  -49.3443  -60.0314 H         1 UNK         0.0727 
     93 H93        28.3728  -49.1733  -59.8490 H         1 UNK         0.0790 
     94 H94        28.1964  -47.6786  -58.9266 H         1 UNK         0.0790 
     95 H95        27.6631  -47.7523  -60.5955 H         1 UNK         0.0790 
     96 H96        27.1834  -49.3911  -57.3898 H         1 UNK         0.3215 
     97 H97        24.8664  -51.5837  -55.9448 H         1 UNK         0.0863 
     98 H98        26.8414  -53.0704  -55.5386 H         1 UNK         0.0808 
     99 H99        27.6665  -52.3624  -56.9269 H         1 UNK         0.0808 
    100 H100       26.1911  -53.2878  -57.1558 H         1 UNK         0.0808 
    101 H101       27.4677  -50.5642  -55.1817 H         1 UNK         0.3118 
    102 H102       26.2967  -47.4138  -53.9854 H         1 UNK         0.0546 
    103 H103       25.6270  -48.9413  -52.1077 H         1 UNK         0.0828 
    104 H104       27.1589  -48.1477  -51.7958 H         1 UNK         0.0828 
    105 H105       27.1258  -49.8398  -52.2996 H         1 UNK         0.0828 
    106 H106       28.8075  -48.7881  -53.7605 H         1 UNK         0.3005 
    107 H107       29.9454  -48.5802  -56.9446 H         1 UNK         0.1257 
    108 H108       30.7904  -46.2705  -55.1216 H         1 UNK         0.0775 
    109 H109       30.2673  -46.1531  -56.7895 H         1 UNK         0.0775 
    110 H110       33.8463  -45.4645  -57.8606 H         1 UNK         0.0840 
    111 H111       32.1896  -45.4433  -58.4179 H         1 UNK         0.0840 
    112 H112       31.4754  -48.7408  -54.5599 H         1 UNK         0.2987 
    113 H113       31.1099  -51.0110  -53.0624 H         1 UNK         0.0785 
    114 H114       30.1300  -53.0446  -54.0785 H         1 UNK         0.0798 
    115 H115       31.7984  -53.3368  -53.6249 H         1 UNK         0.0798 
    116 H116       31.3776  -53.0646  -55.3168 H         1 UNK         0.0798 
    117 H117       33.3235  -51.5989  -54.8294 H         1 UNK         0.3079 
    118 H118       35.4640  -50.3917  -53.6319 H         1 UNK         0.0794 
    119 H119       34.5701  -49.2103  -56.3375 H         1 UNK         0.0786 
    120 H120       34.9790  -50.8935  -56.0285 H         1 UNK         0.0786 
    121 H121       36.2261  -49.6661  -55.9539 H         1 UNK         0.0786 
    122 H122       34.5102  -47.6760  -53.7542 H         1 UNK         0.3032 
    123 H123       37.1787  -46.4932  -51.9123 H         1 UNK         0.1094 
    124 H124       36.5195  -45.4684  -54.7326 H         1 UNK         0.0794 
    125 H125       37.2355  -44.5143  -53.4307 H         1 UNK         0.0794 
    126 H126       38.1237  -45.8554  -54.1310 H         1 UNK         0.0794 
    127 H127       34.7846  -45.2636  -52.9521 H         1 UNK         0.3016 
@<TRIPOS>BOND
     1    1    2 1    
     2    1   67 1    
     3    1   68 1    
     4    1   69 1    
     5    2    3 2    
     6    2    4 am   BACKBONE|DICT|INTERRES
     7    4    5 1    
     8    4   70 1    
     9    5    6 1    
    10    5   65 1    
    11    5   71 1    
    12    6    7 1    
    13    6   72 1    
    14    6   73 1    
    15    7    8 1    
    16    8    9 1    
    17    8   74 1    
    18    8   75 1    
    19    9   10 ar   
    20    9   14 ar   
    21   10   11 ar   
    22   10   76 1    
    23   11   12 ar   
    24   11   48 1    
    25   12   13 ar   
    26   12   77 1    
    27   13   14 ar   
    28   13   15 1    
    29   14   78 1    
    30   15   16 1    
    31   15   79 1    
    32   15   80 1    
    33   16   17 1    
    34   17   18 1    
    35   17   81 1    
    36   17   82 1    
    37   18   19 1    
    38   18   22 1    
    39   18   83 1    
    40   19   20 am   BACKBONE|DICT|INTERRES
    41   19   21 2    
    42   20   84 1    
    43   20   85 1    
    44   22   23 am   BACKBONE|DICT|INTERRES
    45   22   86 1    
    46   23   24 2    
    47   23   25 1    
    48   25   26 1    
    49   25   27 1    
    50   25   87 1    
    51   26   88 1    
    52   26   89 1    
    53   26   90 1    
    54   27   28 am   BACKBONE|DICT|INTERRES
    55   27   91 1    
    56   28   29 2    
    57   28   30 1    
    58   30   31 1    
    59   30   32 1    
    60   30   92 1    
    61   31   93 1    
    62   31   94 1    
    63   31   95 1    
    64   32   33 am   BACKBONE|DICT|INTERRES
    65   32   96 1    
    66   33   34 2    
    67   33   35 1    
    68   35   36 1    
    69   35   37 1    
    70   35   97 1    
    71   36   98 1    
    72   36   99 1    
    73   36  100 1    
    74   37   38 am   BACKBONE|DICT|INTERRES
    75   37  101 1    
    76   38   39 2    
    77   38   40 1    
    78   40   41 1    
    79   40   42 1    
    80   40  102 1    
    81   41  103 1    
    82   41  104 1    
    83   41  105 1    
    84   42   43 am   BACKBONE|DICT|INTERRES
    85   42  106 1    
    86   43   44 2    
    87   43   45 1    
    88   45   46 1    
    89   45   49 1    
    90   45  107 1    
    91   46   47 1    
    92   46  108 1    
    93   46  109 1    
    94   47   48 1    
    95   48  110 1    
    96   48  111 1    
    97   49   50 am   BACKBONE|DICT|INTERRES
    98   49  112 1    
    99   50   51 2    
   100   50   52 1    
   101   52   53 1    
   102   52   54 1    
   103   52  113 1    
   104   53  114 1    
   105   53  115 1    
   106   53  116 1    
   107   54   55 am   BACKBONE|DICT|INTERRES
   108   54  117 1    
   109   55   56 2    
   110   55   57 1    
   111   57   58 1    
   112   57   59 1    
   113   57  118 1    
   114   58  119 1    
   115   58  120 1    
   116   58  121 1    
   117   59   60 am   BACKBONE|DICT|INTERRES
   118   59  122 1    
   119   60   61 2    
   120   60   62 1    
   121   62   63 1    
   122   62   64 1    
   123   62  123 1    
   124   63  124 1    
   125   63  125 1    
   126   63  126 1    
   127   64   65 am   BACKBONE|DICT|INTERRES
   128   64  127 1    
   129   65   66 2    
@<TRIPOS>SUBSTRUCTURE
     1 UNK         1 GROUP             0       ****    0 ROOT    
