@<TRIPOS>MOLECULE
3R134
127   129    1
SMALL
USER_CHARGES


@<TRIPOS>ATOM
      1 CA         30.4012  -44.8673  -52.6305 C.3       0 UNK        -0.1968 
      2 C          31.7079  -44.8698  -51.8539 C.2       0 UNK         0.4852 
      3 O          31.7170  -45.2337  -50.6774 O.2       0 UNK        -0.5359 
      4 N          32.8087  -44.4599  -52.4982 N.am      1 UNK        -0.4300 
      5 CA         34.1382  -44.3460  -51.8816 C.3       1 UNK         0.0863 
      6 C6         35.0491  -43.3456  -52.6357 C.3       11 UNK        -0.0953 
      7 S7         34.3230  -41.6718  -52.7238 S.3       11 UNK        -0.2369 
      8 C8         34.2590  -41.3653  -54.5172 C.3       11 UNK         0.0226 
      9 C9         33.1737  -42.1801  -55.2061 C.ar      11 UNK        -0.0699 
     10 C10        33.4940  -43.3857  -55.8379 C.ar      11 UNK        -0.0804 
     11 C11        32.5059  -44.1320  -56.4839 C.ar      11 UNK        -0.0871 
     12 C12        31.1950  -43.6507  -56.5196 C.ar      11 UNK        -0.1008 
     13 C13        30.8611  -42.4444  -55.8996 C.ar      11 UNK        -0.0735 
     14 C14        31.8539  -41.7154  -55.2365 C.ar      11 UNK        -0.0945 
     15 C15        29.4296  -41.9332  -55.9651 C.3       11 UNK         0.0169 
     16 S16        28.3930  -42.7248  -54.6996 S.3       11 UNK        -0.2669 
     17 C17        26.7279  -42.1350  -55.1599 C.3       11 UNK        -0.0850 
     18 CA         25.8118  -43.2849  -55.6608 C.3       10 UNK         0.0855 
     19 C          24.3282  -42.8220  -55.7659 C.2       10 UNK         0.5543 
     20 N          23.6760  -42.9198  -56.9182 N.am      10 UNK        -0.7343 
     21 O          23.7541  -42.3719  -54.7773 O.2       10 UNK        -0.5027 
     22 N          26.3386  -43.9088  -56.8882 N.am      10 UNK        -0.4495 
     23 C          26.1377  -45.1839  -57.2430 C.2       10 UNK         0.4903 
     24 O          25.5050  -45.9947  -56.5622 O.2       10 UNK        -0.4860 
     25 CA         26.7512  -45.6005  -58.5935 C.3       9 UNK         0.0227 
     26 CB         28.2878  -45.5316  -58.5629 C.3       9 UNK        -0.1964 
     27 N          26.3497  -46.9493  -58.9925 N.am      9 UNK        -0.4231 
     28 C          25.1767  -47.2816  -59.5397 C.2       9 UNK         0.5014 
     29 O          24.2905  -46.4656  -59.8001 O.2       9 UNK        -0.5270 
     30 CA         24.9487  -48.7666  -59.8876 C.3       8 UNK         0.0284 
     31 CB         25.6428  -49.1284  -61.2158 C.3       8 UNK        -0.1977 
     32 N          25.2856  -49.7383  -58.8334 N.am      8 UNK        -0.4342 
     33 C          26.4760  -50.0098  -58.2808 C.2       8 UNK         0.5039 
     34 O          27.5210  -49.4109  -58.5484 O.2       8 UNK        -0.5547 
     35 CA         26.5138  -51.1763  -57.2843 C.3       7 UNK         0.0281 
     36 CB         27.2075  -52.3968  -57.9112 C.3       7 UNK        -0.1963 
     37 N          27.2503  -50.7704  -56.0921 N.am      7 UNK        -0.4444 
     38 C          26.6934  -50.2214  -55.0042 C.2       7 UNK         0.5104 
     39 O          25.4779  -50.1020  -54.8452 O.2       7 UNK        -0.5100 
     40 CA         27.6463  -49.7211  -53.9005 C.3       6 UNK         0.0396 
     41 CB         27.7337  -50.7471  -52.7601 C.3       6 UNK        -0.1801 
     42 N          28.9962  -49.4296  -54.3907 N.am      6 UNK        -0.4747 
     43 C          29.2993  -48.4228  -55.2255 C.2       6 UNK         0.5012 
     44 O          28.4789  -47.5801  -55.5843 O.2       6 UNK        -0.5003 
     45 CA         30.7454  -48.3287  -55.7560 C.3       5 UNK         0.0782 
     46 C46        31.4021  -47.0107  -55.2844 C.3       11 UNK        -0.0868 
     47 S47        33.0967  -46.7771  -55.9181 S.3       11 UNK        -0.2515 
     48 C48        32.8576  -45.4557  -57.1467 C.3       11 UNK         0.0199 
     49 N          31.5528  -49.5021  -55.4067 N.am      5 UNK        -0.4607 
     50 C          31.4713  -50.6961  -56.0095 C.2       4 UNK         0.5031 
     51 O          30.6714  -50.9469  -56.9104 O.2       4 UNK        -0.5119 
     52 CA         32.4218  -51.8045  -55.5194 C.3       4 UNK         0.0263 
     53 CB         33.6468  -51.9009  -56.4430 C.3       4 UNK        -0.1967 
     54 N          32.8763  -51.6195  -54.1384 N.am      4 UNK        -0.4237 
     55 C          32.0881  -51.7022  -53.0569 C.2       3 UNK         0.4908 
     56 O          30.8944  -51.9991  -53.1033 O.2       3 UNK        -0.5102 
     57 CA         32.7284  -51.3529  -51.7002 C.3       3 UNK         0.0241 
     58 CB         33.2918  -52.6167  -51.0307 C.3       3 UNK        -0.1971 
     59 N          33.7790  -50.3272  -51.7752 N.am      3 UNK        -0.4139 
     60 C          33.5919  -49.0786  -52.2252 C.2       2 UNK         0.5016 
     61 O          32.5182  -48.6692  -52.6718 O.2       2 UNK        -0.5319 
     62 CA         34.8093  -48.1470  -52.2157 C.3       2 UNK         0.0286 
     63 CB         35.7576  -48.4674  -53.3845 C.3       2 UNK        -0.1963 
     64 N          34.3397  -46.7691  -52.3396 N.am      2 UNK        -0.4790 
     65 C          34.8479  -45.7081  -51.7018 C.2       1 UNK         0.5024 
     66 O          35.8454  -45.7708  -50.9812 O.2       1 UNK        -0.4888 
     67 H67        29.6995  -44.1666  -52.1790 H         1 UNK         0.0892 
     68 H68        30.5491  -44.5726  -53.6688 H         1 UNK         0.0892 
     69 H69        29.9479  -45.8581  -52.6169 H         1 UNK         0.0892 
     70 H70        32.7438  -44.1462  -53.4574 H         1 UNK         0.3107 
     71 H71        33.9975  -43.9503  -50.8731 H         1 UNK         0.0773 
     72 H72        35.2804  -43.7128  -53.6355 H         1 UNK         0.0680 
     73 H73        36.0094  -43.2492  -52.1255 H         1 UNK         0.0680 
     74 H74        35.2359  -41.5717  -54.9574 H         1 UNK         0.0650 
     75 H75        34.0733  -40.3028  -54.6816 H         1 UNK         0.0650 
     76 H76        34.5122  -43.7496  -55.8278 H         1 UNK         0.1397 
     77 H77        30.4280  -44.2207  -57.0220 H         1 UNK         0.1363 
     78 H78        31.6026  -40.7818  -54.7518 H         1 UNK         0.1355 
     79 H79        29.0155  -42.1330  -56.9544 H         1 UNK         0.0707 
     80 H80        29.4032  -40.8508  -55.8296 H         1 UNK         0.0707 
     81 H81        26.7979  -41.3432  -55.9078 H         1 UNK         0.1034 
     82 H82        26.3019  -41.6667  -54.2704 H         1 UNK         0.1034 
     83 H83        25.8121  -44.0475  -54.8792 H         1 UNK         0.0482 
     84 H84        24.1300  -43.3037  -57.7312 H         1 UNK         0.3460 
     85 H85        22.7150  -42.6204  -56.9694 H         1 UNK         0.3460 
     86 H86        26.8521  -43.3014  -57.5084 H         1 UNK         0.2989 
     87 H87        26.3955  -44.9001  -59.3521 H         1 UNK         0.0559 
     88 H88        28.7200  -45.8733  -59.5036 H         1 UNK         0.0848 
     89 H89        28.7050  -46.1432  -57.7631 H         1 UNK         0.0848 
     90 H90        28.6294  -44.5082  -58.4105 H         1 UNK         0.0848 
     91 H91        26.9855  -47.7153  -58.7697 H         1 UNK         0.3144 
     92 H92        23.8749  -48.8790  -60.0471 H         1 UNK         0.0727 
     93 H93        25.3956  -50.1428  -61.5288 H         1 UNK         0.0790 
     94 H94        26.7284  -49.0560  -61.1421 H         1 UNK         0.0790 
     95 H95        25.3275  -48.4570  -62.0158 H         1 UNK         0.0790 
     96 H96        24.4956  -50.2753  -58.5014 H         1 UNK         0.3215 
     97 H97        25.4951  -51.4629  -57.0131 H         1 UNK         0.0863 
     98 H98        27.2326  -53.2379  -57.2182 H         1 UNK         0.0808 
     99 H99        28.2351  -52.1720  -58.2018 H         1 UNK         0.0808 
    100 H100       26.6802  -52.7287  -58.8065 H         1 UNK         0.0808 
    101 H101       28.2587  -50.7625  -56.1724 H         1 UNK         0.3118 
    102 H102       27.2270  -48.7972  -53.4968 H         1 UNK         0.0546 
    103 H103       28.1333  -51.7012  -53.1061 H         1 UNK         0.0828 
    104 H104       26.7485  -50.9421  -52.3345 H         1 UNK         0.0828 
    105 H105       28.3715  -50.3907  -51.9511 H         1 UNK         0.0828 
    106 H106       29.7298  -50.0729  -54.1218 H         1 UNK         0.3005 
    107 H107       30.6652  -48.2898  -56.8452 H         1 UNK         0.1257 
    108 H108       30.7842  -46.1624  -55.5769 H         1 UNK         0.0775 
    109 H109       31.4477  -46.9787  -54.1975 H         1 UNK         0.0775 
    110 H110       33.7760  -45.3394  -57.7241 H         1 UNK         0.0840 
    111 H111       32.0863  -45.7557  -57.8580 H         1 UNK         0.0840 
    112 H112       32.1873  -49.3745  -54.6269 H         1 UNK         0.2987 
    113 H113       31.8762  -52.7493  -55.5714 H         1 UNK         0.0785 
    114 H114       34.2946  -52.7307  -56.1597 H         1 UNK         0.0798 
    115 H115       34.2409  -50.9862  -56.4228 H         1 UNK         0.0798 
    116 H116       33.3427  -52.0687  -57.4773 H         1 UNK         0.0798 
    117 H117       33.8459  -51.3724  -54.0058 H         1 UNK         0.3079 
    118 H118       31.9333  -50.9568  -51.0648 H         1 UNK         0.0794 
    119 H119       32.5240  -53.3869  -50.9426 H         1 UNK         0.0786 
    120 H120       33.6519  -52.4061  -50.0234 H         1 UNK         0.0786 
    121 H121       34.1176  -53.0437  -51.6013 H         1 UNK         0.0786 
    122 H122       34.6926  -50.5913  -51.4343 H         1 UNK         0.3032 
    123 H123       35.3327  -48.2807  -51.2660 H         1 UNK         0.1094 
    124 H124       36.6142  -47.7932  -53.3933 H         1 UNK         0.0794 
    125 H125       36.1483  -49.4829  -53.3113 H         1 UNK         0.0794 
    126 H126       35.2544  -48.3781  -54.3481 H         1 UNK         0.0794 
    127 H127       33.4751  -46.6673  -52.8560 H         1 UNK         0.3016 
@<TRIPOS>BOND
     1    1    2 1    
     2    1   67 1    
     3    1   68 1    
     4    1   69 1    
     5    2    3 2    
     6    2    4 am   BACKBONE|DICT|INTERRES
     7    4    5 1    
     8    4   70 1    
     9    5    6 1    
    10    5   65 1    
    11    5   71 1    
    12    6    7 1    
    13    6   72 1    
    14    6   73 1    
    15    7    8 1    
    16    8    9 1    
    17    8   74 1    
    18    8   75 1    
    19    9   10 ar   
    20    9   14 ar   
    21   10   11 ar   
    22   10   76 1    
    23   11   12 ar   
    24   11   48 1    
    25   12   13 ar   
    26   12   77 1    
    27   13   14 ar   
    28   13   15 1    
    29   14   78 1    
    30   15   16 1    
    31   15   79 1    
    32   15   80 1    
    33   16   17 1    
    34   17   18 1    
    35   17   81 1    
    36   17   82 1    
    37   18   19 1    
    38   18   22 1    
    39   18   83 1    
    40   19   20 am   BACKBONE|DICT|INTERRES
    41   19   21 2    
    42   20   84 1    
    43   20   85 1    
    44   22   23 am   BACKBONE|DICT|INTERRES
    45   22   86 1    
    46   23   24 2    
    47   23   25 1    
    48   25   26 1    
    49   25   27 1    
    50   25   87 1    
    51   26   88 1    
    52   26   89 1    
    53   26   90 1    
    54   27   28 am   BACKBONE|DICT|INTERRES
    55   27   91 1    
    56   28   29 2    
    57   28   30 1    
    58   30   31 1    
    59   30   32 1    
    60   30   92 1    
    61   31   93 1    
    62   31   94 1    
    63   31   95 1    
    64   32   33 am   BACKBONE|DICT|INTERRES
    65   32   96 1    
    66   33   34 2    
    67   33   35 1    
    68   35   36 1    
    69   35   37 1    
    70   35   97 1    
    71   36   98 1    
    72   36   99 1    
    73   36  100 1    
    74   37   38 am   BACKBONE|DICT|INTERRES
    75   37  101 1    
    76   38   39 2    
    77   38   40 1    
    78   40   41 1    
    79   40   42 1    
    80   40  102 1    
    81   41  103 1    
    82   41  104 1    
    83   41  105 1    
    84   42   43 am   BACKBONE|DICT|INTERRES
    85   42  106 1    
    86   43   44 2    
    87   43   45 1    
    88   45   46 1    
    89   45   49 1    
    90   45  107 1    
    91   46   47 1    
    92   46  108 1    
    93   46  109 1    
    94   47   48 1    
    95   48  110 1    
    96   48  111 1    
    97   49   50 am   BACKBONE|DICT|INTERRES
    98   49  112 1    
    99   50   51 2    
   100   50   52 1    
   101   52   53 1    
   102   52   54 1    
   103   52  113 1    
   104   53  114 1    
   105   53  115 1    
   106   53  116 1    
   107   54   55 am   BACKBONE|DICT|INTERRES
   108   54  117 1    
   109   55   56 2    
   110   55   57 1    
   111   57   58 1    
   112   57   59 1    
   113   57  118 1    
   114   58  119 1    
   115   58  120 1    
   116   58  121 1    
   117   59   60 am   BACKBONE|DICT|INTERRES
   118   59  122 1    
   119   60   61 2    
   120   60   62 1    
   121   62   63 1    
   122   62   64 1    
   123   62  123 1    
   124   63  124 1    
   125   63  125 1    
   126   63  126 1    
   127   64   65 am   BACKBONE|DICT|INTERRES
   128   64  127 1    
   129   65   66 2    
@<TRIPOS>SUBSTRUCTURE
     1 UNK         1 GROUP             0       ****    0 ROOT    
