@<TRIPOS>MOLECULE
3R134
127   129    1
SMALL
USER_CHARGES


@<TRIPOS>ATOM
      1 CA         37.1854  -42.5818  -48.8597 C.3       0 UNK        -0.1968 
      2 C          37.4612  -43.7784  -49.7586 C.2       0 UNK         0.4852 
      3 O          38.2349  -44.6607  -49.3818 O.2       0 UNK        -0.5359 
      4 N          36.8428  -43.8098  -50.9456 N.am      1 UNK        -0.4300 
      5 CA         36.9242  -44.9117  -51.9080 C.3       1 UNK         0.0863 
      6 C6         36.5090  -44.4582  -53.3349 C.3       11 UNK        -0.0953 
      7 S7         34.8753  -43.6392  -53.4641 S.3       11 UNK        -0.2369 
      8 C8         33.8501  -45.0322  -54.0191 C.3       11 UNK         0.0226 
      9 C9         32.4421  -44.6079  -54.4029 C.ar      11 UNK        -0.0699 
     10 C10        31.4159  -44.6300  -53.4526 C.ar      11 UNK        -0.0804 
     11 C11        30.1078  -44.2952  -53.8135 C.ar      11 UNK        -0.0871 
     12 C12        29.8407  -43.8971  -55.1253 C.ar      11 UNK        -0.1008 
     13 C13        30.8511  -43.8896  -56.0883 C.ar      11 UNK        -0.0735 
     14 C14        32.1540  -44.2395  -55.7210 C.ar      11 UNK        -0.0945 
     15 C15        30.5175  -43.5047  -57.5207 C.3       11 UNK         0.0169 
     16 S16        29.4643  -44.7661  -58.3175 S.3       11 UNK        -0.2669 
     17 C17        28.1593  -43.7313  -59.0683 C.3       11 UNK        -0.0850 
     18 CA         26.8472  -43.7494  -58.2413 C.3       10 UNK         0.0855 
     19 C          25.8878  -42.6221  -58.7114 C.2       10 UNK         0.5543 
     20 N          25.9604  -41.4506  -58.0950 N.am      10 UNK        -0.7343 
     21 O          25.1152  -42.7852  -59.6540 O.2       10 UNK        -0.5027 
     22 N          26.2105  -45.0714  -58.2950 N.am      10 UNK        -0.4495 
     23 C          25.1921  -45.4832  -57.5336 C.2       10 UNK         0.4903 
     24 O          24.7358  -44.8271  -56.5975 O.2       10 UNK        -0.4860 
     25 CA         24.5899  -46.8731  -57.8306 C.3       9 UNK         0.0227 
     26 CB         23.3367  -46.7469  -58.7189 C.3       9 UNK        -0.1964 
     27 N          25.5345  -47.8708  -58.3672 N.am      9 UNK        -0.4231 
     28 C          26.1616  -47.8804  -59.5543 C.2       9 UNK         0.5014 
     29 O          26.0158  -47.0020  -60.4049 O.2       9 UNK        -0.5270 
     30 CA         27.1645  -49.0121  -59.8358 C.3       8 UNK         0.0284 
     31 CB         28.5652  -48.4264  -60.0938 C.3       8 UNK        -0.1977 
     32 N          27.2670  -49.9932  -58.7524 N.am      8 UNK        -0.4342 
     33 C          26.5481  -51.1192  -58.6623 C.2       8 UNK         0.5039 
     34 O          25.6354  -51.4071  -59.4371 O.2       8 UNK        -0.5547 
     35 CA         26.9078  -52.0956  -57.5323 C.3       7 UNK         0.0281 
     36 CB         28.1504  -52.9200  -57.9093 C.3       7 UNK        -0.1963 
     37 N          27.1504  -51.4088  -56.2606 N.am      7 UNK        -0.4444 
     38 C          26.5292  -51.6969  -55.1068 C.2       7 UNK         0.5104 
     39 O          25.6829  -52.5839  -54.9875 O.2       7 UNK        -0.5100 
     40 CA         26.9073  -50.8670  -53.8616 C.3       6 UNK         0.0396 
     41 CB         27.8899  -51.6495  -52.9766 C.3       6 UNK        -0.1801 
     42 N          27.4834  -49.5568  -54.1726 N.am      6 UNK        -0.4747 
     43 C          26.8236  -48.5596  -54.7809 C.2       6 UNK         0.5012 
     44 O          25.6296  -48.6205  -55.0720 O.2       6 UNK        -0.5003 
     45 CA         27.6249  -47.3055  -55.1933 C.3       5 UNK         0.0782 
     46 C46        27.2816  -46.0975  -54.2813 C.3       11 UNK        -0.0868 
     47 S47        28.2346  -46.0300  -52.7187 S.3       11 UNK        -0.2515 
     48 C48        28.9836  -44.3675  -52.7903 C.3       11 UNK         0.0199 
     49 N          29.0703  -47.5237  -55.3322 N.am      5 UNK        -0.4607 
     50 C          29.6655  -48.4390  -56.1113 C.2       4 UNK         0.5031 
     51 O          29.0520  -49.2143  -56.8440 O.2       4 UNK        -0.5119 
     52 CA         31.1917  -48.5646  -56.0023 C.3       4 UNK         0.0263 
     53 CB         31.8787  -47.7013  -57.0698 C.3       4 UNK        -0.1967 
     54 N          31.6865  -48.2037  -54.6716 N.am      4 UNK        -0.4237 
     55 C          31.4485  -48.9072  -53.5554 C.2       3 UNK         0.4908 
     56 O          30.8404  -49.9787  -53.5398 O.2       3 UNK        -0.5102 
     57 CA         31.9239  -48.2787  -52.2328 C.3       3 UNK         0.0241 
     58 CB         30.9576  -48.6034  -51.0786 C.3       3 UNK        -0.1971 
     59 N          33.2883  -48.6278  -51.8224 N.am      3 UNK        -0.4139 
     60 C          34.4101  -48.4779  -52.5403 C.2       2 UNK         0.5016 
     61 O          34.4489  -48.1944  -53.7387 O.2       2 UNK        -0.5319 
     62 CA         35.7367  -48.5758  -51.7689 C.3       2 UNK         0.0286 
     63 CB         36.5787  -49.7629  -52.2645 C.3       2 UNK        -0.1963 
     64 N          36.4955  -47.3312  -51.9379 N.am      2 UNK        -0.4790 
     65 C          36.1232  -46.1446  -51.4333 C.2       1 UNK         0.5024 
     66 O          35.1721  -46.0052  -50.6588 O.2       1 UNK        -0.4888 
     67 H67        38.1141  -42.0573  -48.6368 H         1 UNK         0.0892 
     68 H68        36.4991  -41.8733  -49.3232 H         1 UNK         0.0892 
     69 H69        36.7461  -42.9131  -47.9192 H         1 UNK         0.0892 
     70 H70        36.1914  -43.0776  -51.1910 H         1 UNK         0.3107 
     71 H71        37.9715  -45.2182  -51.9591 H         1 UNK         0.0773 
     72 H72        36.5582  -45.2940  -54.0354 H         1 UNK         0.0680 
     73 H73        37.2473  -43.7430  -53.7009 H         1 UNK         0.0680 
     74 H74        34.3289  -45.5367  -54.8600 H         1 UNK         0.0650 
     75 H75        33.7968  -45.7534  -53.2067 H         1 UNK         0.0650 
     76 H76        31.6328  -44.9154  -52.4324 H         1 UNK         0.1397 
     77 H77        28.8403  -43.6088  -55.4130 H         1 UNK         0.1363 
     78 H78        32.9425  -44.2353  -56.4613 H         1 UNK         0.1355 
     79 H79        30.0211  -42.5339  -57.5064 H         1 UNK         0.0707 
     80 H80        31.4249  -43.3769  -58.1128 H         1 UNK         0.0707 
     81 H81        28.5332  -42.7133  -59.1918 H         1 UNK         0.1034 
     82 H82        27.9724  -44.0938  -60.0810 H         1 UNK         0.1034 
     83 H83        27.0986  -43.5545  -57.1968 H         1 UNK         0.0482 
     84 H84        25.3573  -40.7011  -58.3966 H         1 UNK         0.3460 
     85 H85        26.5958  -41.3014  -57.3268 H         1 UNK         0.3460 
     86 H86        26.4477  -45.6501  -59.0940 H         1 UNK         0.2989 
     87 H87        24.2588  -47.2725  -56.8716 H         1 UNK         0.0559 
     88 H88        22.5915  -46.1042  -58.2482 H         1 UNK         0.0848 
     89 H89        22.8683  -47.7168  -58.8862 H         1 UNK         0.0848 
     90 H90        23.5660  -46.3113  -59.6919 H         1 UNK         0.0848 
     91 H91        25.7367  -48.6400  -57.7437 H         1 UNK         0.3144 
     92 H92        26.8360  -49.5147  -60.7480 H         1 UNK         0.0727 
     93 H93        28.9275  -47.8520  -59.2401 H         1 UNK         0.0790 
     94 H94        28.5593  -47.7562  -60.9545 H         1 UNK         0.0790 
     95 H95        29.2926  -49.2110  -60.3027 H         1 UNK         0.0790 
     96 H96        27.9990  -49.8083  -58.0650 H         1 UNK         0.3215 
     97 H97        26.0659  -52.7848  -57.4361 H         1 UNK         0.0863 
     98 H98        28.3607  -53.6815  -57.1582 H         1 UNK         0.0808 
     99 H99        29.0381  -52.2935  -58.0074 H         1 UNK         0.0808 
    100 H100       28.0054  -53.4346  -58.8602 H         1 UNK         0.0808 
    101 H101       27.8338  -50.6583  -56.2659 H         1 UNK         0.3118 
    102 H102       25.9925  -50.7002  -53.2891 H         1 UNK         0.0546 
    103 H103       28.8236  -51.8595  -53.5000 H         1 UNK         0.0828 
    104 H104       27.4647  -52.6072  -52.6731 H         1 UNK         0.0828 
    105 H105       28.1326  -51.1001  -52.0668 H         1 UNK         0.0828 
    106 H106       28.4691  -49.4370  -53.9778 H         1 UNK         0.3005 
    107 H107       27.2751  -47.0608  -56.1969 H         1 UNK         0.1257 
    108 H108       26.2180  -46.0795  -54.0334 H         1 UNK         0.0775 
    109 H109       27.4342  -45.1795  -54.8434 H         1 UNK         0.0775 
    110 H110       28.2136  -43.6265  -53.0112 H         1 UNK         0.0840 
    111 H111       29.3696  -44.1144  -51.8017 H         1 UNK         0.0840 
    112 H112       29.6515  -46.9313  -54.7564 H         1 UNK         0.2987 
    113 H113       31.4526  -49.6090  -56.1861 H         1 UNK         0.0785 
    114 H114       31.5813  -48.0147  -58.0715 H         1 UNK         0.0798 
    115 H115       32.9643  -47.7826  -57.0120 H         1 UNK         0.0798 
    116 H116       31.6120  -46.6499  -56.9711 H         1 UNK         0.0798 
    117 H117       32.2634  -47.3768  -54.6084 H         1 UNK         0.3079 
    118 H118       31.9045  -47.1980  -52.3653 H         1 UNK         0.0794 
    119 H119       31.2005  -48.0318  -50.1826 H         1 UNK         0.0786 
    120 H120       30.9794  -49.6627  -50.8190 H         1 UNK         0.0786 
    121 H121       29.9294  -48.3561  -51.3472 H         1 UNK         0.0786 
    122 H122       33.3890  -48.8816  -50.8504 H         1 UNK         0.3032 
    123 H123       35.5327  -48.7151  -50.7046 H         1 UNK         0.1094 
    124 H124       36.8238  -49.6720  -53.3236 H         1 UNK         0.0794 
    125 H125       37.5131  -49.8467  -51.7092 H         1 UNK         0.0794 
    126 H126       36.0399  -50.7026  -52.1350 H         1 UNK         0.0794 
    127 H127       37.2647  -47.3630  -52.5918 H         1 UNK         0.3016 
@<TRIPOS>BOND
     1    1    2 1    
     2    1   67 1    
     3    1   68 1    
     4    1   69 1    
     5    2    3 2    
     6    2    4 am   BACKBONE|DICT|INTERRES
     7    4    5 1    
     8    4   70 1    
     9    5    6 1    
    10    5   65 1    
    11    5   71 1    
    12    6    7 1    
    13    6   72 1    
    14    6   73 1    
    15    7    8 1    
    16    8    9 1    
    17    8   74 1    
    18    8   75 1    
    19    9   10 ar   
    20    9   14 ar   
    21   10   11 ar   
    22   10   76 1    
    23   11   12 ar   
    24   11   48 1    
    25   12   13 ar   
    26   12   77 1    
    27   13   14 ar   
    28   13   15 1    
    29   14   78 1    
    30   15   16 1    
    31   15   79 1    
    32   15   80 1    
    33   16   17 1    
    34   17   18 1    
    35   17   81 1    
    36   17   82 1    
    37   18   19 1    
    38   18   22 1    
    39   18   83 1    
    40   19   20 am   BACKBONE|DICT|INTERRES
    41   19   21 2    
    42   20   84 1    
    43   20   85 1    
    44   22   23 am   BACKBONE|DICT|INTERRES
    45   22   86 1    
    46   23   24 2    
    47   23   25 1    
    48   25   26 1    
    49   25   27 1    
    50   25   87 1    
    51   26   88 1    
    52   26   89 1    
    53   26   90 1    
    54   27   28 am   BACKBONE|DICT|INTERRES
    55   27   91 1    
    56   28   29 2    
    57   28   30 1    
    58   30   31 1    
    59   30   32 1    
    60   30   92 1    
    61   31   93 1    
    62   31   94 1    
    63   31   95 1    
    64   32   33 am   BACKBONE|DICT|INTERRES
    65   32   96 1    
    66   33   34 2    
    67   33   35 1    
    68   35   36 1    
    69   35   37 1    
    70   35   97 1    
    71   36   98 1    
    72   36   99 1    
    73   36  100 1    
    74   37   38 am   BACKBONE|DICT|INTERRES
    75   37  101 1    
    76   38   39 2    
    77   38   40 1    
    78   40   41 1    
    79   40   42 1    
    80   40  102 1    
    81   41  103 1    
    82   41  104 1    
    83   41  105 1    
    84   42   43 am   BACKBONE|DICT|INTERRES
    85   42  106 1    
    86   43   44 2    
    87   43   45 1    
    88   45   46 1    
    89   45   49 1    
    90   45  107 1    
    91   46   47 1    
    92   46  108 1    
    93   46  109 1    
    94   47   48 1    
    95   48  110 1    
    96   48  111 1    
    97   49   50 am   BACKBONE|DICT|INTERRES
    98   49  112 1    
    99   50   51 2    
   100   50   52 1    
   101   52   53 1    
   102   52   54 1    
   103   52  113 1    
   104   53  114 1    
   105   53  115 1    
   106   53  116 1    
   107   54   55 am   BACKBONE|DICT|INTERRES
   108   54  117 1    
   109   55   56 2    
   110   55   57 1    
   111   57   58 1    
   112   57   59 1    
   113   57  118 1    
   114   58  119 1    
   115   58  120 1    
   116   58  121 1    
   117   59   60 am   BACKBONE|DICT|INTERRES
   118   59  122 1    
   119   60   61 2    
   120   60   62 1    
   121   62   63 1    
   122   62   64 1    
   123   62  123 1    
   124   63  124 1    
   125   63  125 1    
   126   63  126 1    
   127   64   65 am   BACKBONE|DICT|INTERRES
   128   64  127 1    
   129   65   66 2    
@<TRIPOS>SUBSTRUCTURE
     1 UNK         1 GROUP             0       ****    0 ROOT    
