@<TRIPOS>MOLECULE
3R134
127   129    1
SMALL
USER_CHARGES


@<TRIPOS>ATOM
      1 CA         30.8039  -45.7263  -52.5901 C.3       0 UNK        -0.1968 
      2 C          32.0611  -45.6068  -51.7434 C.2       0 UNK         0.4852 
      3 O          32.0634  -46.0235  -50.5831 O.2       0 UNK        -0.5359 
      4 N          33.1255  -45.0229  -52.3071 N.am      1 UNK        -0.4300 
      5 CA         34.4103  -44.7915  -51.6418 C.3       1 UNK         0.0863 
      6 C6         35.2146  -43.6542  -52.3164 C.3       11 UNK        -0.0953 
      7 S7         34.3294  -42.0619  -52.2665 S.3       11 UNK        -0.2369 
      8 C8         34.2742  -41.6204  -54.0293 C.3       11 UNK         0.0226 
      9 C9         33.1953  -42.3762  -54.7934 C.ar      11 UNK        -0.0699 
     10 C10        33.5241  -43.4742  -55.5973 C.ar      11 UNK        -0.0804 
     11 C11        32.5469  -44.0906  -56.3864 C.ar      11 UNK        -0.0871 
     12 C12        31.2421  -43.5918  -56.3744 C.ar      11 UNK        -0.1008 
     13 C13        30.8876  -42.5373  -55.5324 C.ar      11 UNK        -0.0735 
     14 C14        31.8701  -41.9316  -54.7439 C.ar      11 UNK        -0.0945 
     15 C15        29.4562  -42.0227  -55.5133 C.3       11 UNK         0.0169 
     16 S16        28.3759  -42.9984  -54.4128 S.3       11 UNK        -0.2669 
     17 C17        27.8389  -44.3980  -55.4615 C.3       11 UNK        -0.0850 
     18 CA         26.5429  -44.0882  -56.2598 C.3       10 UNK         0.0855 
     19 C          26.8390  -43.3674  -57.6014 C.2       10 UNK         0.5543 
     20 N          26.3922  -42.1294  -57.7612 N.am      10 UNK        -0.7343 
     21 O          27.5048  -43.9125  -58.4786 O.2       10 UNK        -0.5027 
     22 N          25.7489  -45.3009  -56.4970 N.am      10 UNK        -0.4495 
     23 C          24.4332  -45.2851  -56.7579 C.2       10 UNK         0.4903 
     24 O          23.7505  -44.2590  -56.7457 O.2       10 UNK        -0.4860 
     25 CA         23.7611  -46.6394  -57.0561 C.3       9 UNK         0.0227 
     26 CB         22.3565  -46.4966  -57.6814 C.3       9 UNK        -0.1964 
     27 N          24.6007  -47.5419  -57.8499 N.am      9 UNK        -0.4231 
     28 C          25.0571  -47.3573  -59.1003 C.2       9 UNK         0.5014 
     29 O          24.7796  -46.3760  -59.7909 O.2       9 UNK        -0.5270 
     30 CA         25.9852  -48.4415  -59.6867 C.3       8 UNK         0.0284 
     31 CB         27.2748  -47.8178  -60.2518 C.3       8 UNK        -0.1977 
     32 N          26.3487  -49.4502  -58.6885 N.am      8 UNK        -0.4342 
     33 C          25.7424  -50.6346  -58.5229 C.2       8 UNK         0.5039 
     34 O          24.8635  -51.0636  -59.2708 O.2       8 UNK        -0.5547 
     35 CA         26.1578  -51.4714  -57.2959 C.3       7 UNK         0.0281 
     36 CB         27.1858  -52.5404  -57.6991 C.3       7 UNK        -0.1963 
     37 N          26.6977  -50.6622  -56.1963 N.am      7 UNK        -0.4444 
     38 C          25.9815  -49.7708  -55.4903 C.2       7 UNK         0.5104 
     39 O          24.7734  -49.6014  -55.6465 O.2       7 UNK        -0.5100 
     40 CA         26.7364  -48.8545  -54.5064 C.3       6 UNK         0.0396 
     41 CB         26.6481  -49.4113  -53.0778 C.3       6 UNK        -0.1801 
     42 N          28.1429  -48.6519  -54.8605 N.am      6 UNK        -0.4747 
     43 C          28.5911  -48.1279  -56.0116 C.2       6 UNK         0.5012 
     44 O          27.8460  -47.6120  -56.8456 O.2       6 UNK        -0.5003 
     45 CA         30.1045  -48.2479  -56.3034 C.3       5 UNK         0.0782 
     46 C46        30.7671  -46.8520  -56.2652 C.3       11 UNK        -0.0868 
     47 S47        32.5842  -46.8688  -56.4488 S.3       11 UNK        -0.2515 
     48 C48        32.8965  -45.2754  -57.2779 C.3       11 UNK         0.0199 
     49 N          30.7753  -49.2253  -55.4341 N.am      5 UNK        -0.4607 
     50 C          30.5644  -50.5474  -55.4429 C.2       4 UNK         0.5031 
     51 O          29.7354  -51.0824  -56.1807 O.2       4 UNK        -0.5119 
     52 CA         31.3702  -51.4015  -54.4402 C.3       4 UNK         0.0263 
     53 CB         31.2507  -52.9098  -54.7303 C.3       4 UNK        -0.1967 
     54 N          32.7921  -51.0464  -54.3558 N.am      4 UNK        -0.4237 
     55 C          33.2940  -49.9616  -53.7526 C.2       3 UNK         0.4908 
     56 O          32.5963  -49.0670  -53.2662 O.2       3 UNK        -0.5102 
     57 CA         34.8271  -49.8436  -53.7264 C.3       3 UNK         0.0241 
     58 CB         35.3438  -49.2098  -55.0280 C.3       3 UNK        -0.1971 
     59 N          35.2722  -49.0280  -52.5985 N.am      3 UNK        -0.4139 
     60 C          35.1863  -49.3696  -51.3082 C.2       2 UNK         0.5016 
     61 O          34.8742  -50.4965  -50.9198 O.2       2 UNK        -0.5319 
     62 CA         35.4709  -48.2696  -50.2682 C.3       2 UNK         0.0286 
     63 CB         36.9779  -48.1693  -49.9592 C.3       2 UNK        -0.1963 
     64 N          34.8924  -46.9540  -50.5937 N.am      2 UNK        -0.4790 
     65 C          35.2220  -46.1001  -51.5735 C.2       1 UNK         0.5024 
     66 O          36.0925  -46.3276  -52.4160 O.2       1 UNK        -0.4888 
     67 H67        30.7021  -46.7451  -52.9631 H         1 UNK         0.0892 
     68 H68        29.9222  -45.4892  -51.9954 H         1 UNK         0.0892 
     69 H69        30.8276  -45.0395  -53.4363 H         1 UNK         0.0892 
     70 H70        33.0670  -44.6976  -53.2620 H         1 UNK         0.3107 
     71 H71        34.2135  -44.4789  -50.6135 H         1 UNK         0.0773 
     72 H72        36.1696  -43.5117  -51.8070 H         1 UNK         0.0680 
     73 H73        35.4588  -43.9124  -53.3479 H         1 UNK         0.0680 
     74 H74        35.2548  -41.7812  -54.4803 H         1 UNK         0.0650 
     75 H75        34.0831  -40.5492  -54.1088 H         1 UNK         0.0650 
     76 H76        34.5447  -43.8304  -55.6335 H         1 UNK         0.1397 
     77 H77        30.4983  -44.0247  -57.0255 H         1 UNK         0.1363 
     78 H78        31.6113  -41.0915  -54.1136 H         1 UNK         0.1355 
     79 H79        29.0557  -42.0018  -56.5261 H         1 UNK         0.0707 
     80 H80        29.4432  -40.9869  -55.1708 H         1 UNK         0.0707 
     81 H81        28.6415  -44.7397  -56.1113 H         1 UNK         0.1034 
     82 H82        27.6565  -45.2281  -54.7770 H         1 UNK         0.1034 
     83 H83        25.9312  -43.4285  -55.6399 H         1 UNK         0.0482 
     84 H84        25.8411  -41.6809  -57.0460 H         1 UNK         0.3460 
     85 H85        26.5856  -41.6447  -58.6233 H         1 UNK         0.3460 
     86 H86        26.2680  -46.1642  -56.6054 H         1 UNK         0.2989 
     87 H87        23.6342  -47.1244  -56.0875 H         1 UNK         0.0559 
     88 H88        22.3864  -45.9587  -58.6294 H         1 UNK         0.0848 
     89 H89        21.6873  -45.9466  -57.0186 H         1 UNK         0.0848 
     90 H90        21.9014  -47.4704  -57.8618 H         1 UNK         0.0848 
     91 H91        24.8609  -48.3972  -57.3734 H         1 UNK         0.3144 
     92 H92        25.4485  -48.9130  -60.5124 H         1 UNK         0.0727 
     93 H93        27.9425  -48.5800  -60.6535 H         1 UNK         0.0790 
     94 H94        27.8211  -47.2570  -59.4925 H         1 UNK         0.0790 
     95 H95        27.0506  -47.1256  -61.0644 H         1 UNK         0.0790 
     96 H96        27.0396  -49.1552  -58.0081 H         1 UNK         0.3215 
     97 H97        25.2635  -51.9794  -56.9284 H         1 UNK         0.0863 
     98 H98        27.4667  -53.1639  -56.8500 H         1 UNK         0.0808 
     99 H99        28.0956  -52.0939  -58.1022 H         1 UNK         0.0808 
    100 H100       26.7802  -53.2009  -58.4667 H         1 UNK         0.0808 
    101 H101       27.6952  -50.7442  -56.0245 H         1 UNK         0.3118 
    102 H102       26.2470  -47.8785  -54.5255 H         1 UNK         0.0546 
    103 H103       25.6085  -49.5467  -52.7758 H         1 UNK         0.0828 
    104 H104       27.1058  -48.7329  -52.3576 H         1 UNK         0.0828 
    105 H105       27.1415  -50.3801  -52.9893 H         1 UNK         0.0828 
    106 H106       28.8280  -49.0406  -54.2289 H         1 UNK         0.3005 
    107 H107       30.1890  -48.6256  -57.3250 H         1 UNK         0.1257 
    108 H108       30.5291  -46.3322  -55.3386 H         1 UNK         0.0775 
    109 H109       30.3475  -46.2522  -57.0735 H         1 UNK         0.0775 
    110 H110       33.9486  -45.2296  -57.5631 H         1 UNK         0.0840 
    111 H111       32.3302  -45.2302  -58.2096 H         1 UNK         0.0840 
    112 H112       31.4615  -48.8610  -54.7783 H         1 UNK         0.2987 
    113 H113       30.9238  -51.2224  -53.4597 H         1 UNK         0.0785 
    114 H114       30.2086  -53.2325  -54.7157 H         1 UNK         0.0798 
    115 H115       31.7776  -53.5023  -53.9821 H         1 UNK         0.0798 
    116 H116       31.6569  -53.1646  -55.7100 H         1 UNK         0.0798 
    117 H117       33.4362  -51.7026  -54.7742 H         1 UNK         0.3079 
    118 H118       35.2555  -50.8424  -53.6196 H         1 UNK         0.0794 
    119 H119       34.9824  -48.1877  -55.1473 H         1 UNK         0.0786 
    120 H120       35.0182  -49.7755  -55.9019 H         1 UNK         0.0786 
    121 H121       36.4335  -49.1814  -55.0483 H         1 UNK         0.0786 
    122 H122       35.5399  -48.0687  -52.7992 H         1 UNK         0.3032 
    123 H123       34.9729  -48.5856  -49.3497 H         1 UNK         0.1094 
    124 H124       37.5598  -47.8845  -50.8361 H         1 UNK         0.0794 
    125 H125       37.1741  -47.4392  -49.1740 H         1 UNK         0.0794 
    126 H126       37.3663  -49.1283  -49.6136 H         1 UNK         0.0794 
    127 H127       34.0704  -46.7055  -50.0525 H         1 UNK         0.3016 
@<TRIPOS>BOND
     1    1    2 1    
     2    1   67 1    
     3    1   68 1    
     4    1   69 1    
     5    2    3 2    
     6    2    4 am   BACKBONE|DICT|INTERRES
     7    4    5 1    
     8    4   70 1    
     9    5    6 1    
    10    5   65 1    
    11    5   71 1    
    12    6    7 1    
    13    6   72 1    
    14    6   73 1    
    15    7    8 1    
    16    8    9 1    
    17    8   74 1    
    18    8   75 1    
    19    9   10 ar   
    20    9   14 ar   
    21   10   11 ar   
    22   10   76 1    
    23   11   12 ar   
    24   11   48 1    
    25   12   13 ar   
    26   12   77 1    
    27   13   14 ar   
    28   13   15 1    
    29   14   78 1    
    30   15   16 1    
    31   15   79 1    
    32   15   80 1    
    33   16   17 1    
    34   17   18 1    
    35   17   81 1    
    36   17   82 1    
    37   18   19 1    
    38   18   22 1    
    39   18   83 1    
    40   19   20 am   BACKBONE|DICT|INTERRES
    41   19   21 2    
    42   20   84 1    
    43   20   85 1    
    44   22   23 am   BACKBONE|DICT|INTERRES
    45   22   86 1    
    46   23   24 2    
    47   23   25 1    
    48   25   26 1    
    49   25   27 1    
    50   25   87 1    
    51   26   88 1    
    52   26   89 1    
    53   26   90 1    
    54   27   28 am   BACKBONE|DICT|INTERRES
    55   27   91 1    
    56   28   29 2    
    57   28   30 1    
    58   30   31 1    
    59   30   32 1    
    60   30   92 1    
    61   31   93 1    
    62   31   94 1    
    63   31   95 1    
    64   32   33 am   BACKBONE|DICT|INTERRES
    65   32   96 1    
    66   33   34 2    
    67   33   35 1    
    68   35   36 1    
    69   35   37 1    
    70   35   97 1    
    71   36   98 1    
    72   36   99 1    
    73   36  100 1    
    74   37   38 am   BACKBONE|DICT|INTERRES
    75   37  101 1    
    76   38   39 2    
    77   38   40 1    
    78   40   41 1    
    79   40   42 1    
    80   40  102 1    
    81   41  103 1    
    82   41  104 1    
    83   41  105 1    
    84   42   43 am   BACKBONE|DICT|INTERRES
    85   42  106 1    
    86   43   44 2    
    87   43   45 1    
    88   45   46 1    
    89   45   49 1    
    90   45  107 1    
    91   46   47 1    
    92   46  108 1    
    93   46  109 1    
    94   47   48 1    
    95   48  110 1    
    96   48  111 1    
    97   49   50 am   BACKBONE|DICT|INTERRES
    98   49  112 1    
    99   50   51 2    
   100   50   52 1    
   101   52   53 1    
   102   52   54 1    
   103   52  113 1    
   104   53  114 1    
   105   53  115 1    
   106   53  116 1    
   107   54   55 am   BACKBONE|DICT|INTERRES
   108   54  117 1    
   109   55   56 2    
   110   55   57 1    
   111   57   58 1    
   112   57   59 1    
   113   57  118 1    
   114   58  119 1    
   115   58  120 1    
   116   58  121 1    
   117   59   60 am   BACKBONE|DICT|INTERRES
   118   59  122 1    
   119   60   61 2    
   120   60   62 1    
   121   62   63 1    
   122   62   64 1    
   123   62  123 1    
   124   63  124 1    
   125   63  125 1    
   126   63  126 1    
   127   64   65 am   BACKBONE|DICT|INTERRES
   128   64  127 1    
   129   65   66 2    
@<TRIPOS>SUBSTRUCTURE
     1 UNK         1 GROUP             0       ****    0 ROOT    
