@<TRIPOS>MOLECULE
3R134
127   129    1
SMALL
USER_CHARGES


@<TRIPOS>ATOM
      1 CA         35.2507  -47.6029  -56.2019 C.3       0 UNK        -0.1968 
      2 C          36.3021  -47.0118  -55.2661 C.2       0 UNK         0.4852 
      3 O          37.4525  -47.4440  -55.3123 O.2       0 UNK        -0.5359 
      4 N          35.9793  -46.0292  -54.4119 N.am      1 UNK        -0.4300 
      5 CA         34.6574  -45.4373  -54.1724 C.3       1 UNK         0.0863 
      6 C6         34.7580  -44.1630  -53.2921 C.3       11 UNK        -0.0953 
      7 S7         34.9226  -42.6573  -54.3040 S.3       11 UNK        -0.2369 
      8 C8         33.7865  -41.5158  -53.4498 C.3       11 UNK         0.0226 
      9 C9         32.3202  -41.9077  -53.6003 C.ar      11 UNK        -0.0699 
     10 C10        31.6329  -42.5072  -52.5400 C.ar      11 UNK        -0.0804 
     11 C11        30.2732  -42.8138  -52.6513 C.ar      11 UNK        -0.0871 
     12 C12        29.5982  -42.4977  -53.8355 C.ar      11 UNK        -0.1008 
     13 C13        30.2737  -41.9115  -54.9154 C.ar      11 UNK        -0.0735 
     14 C14        31.6361  -41.6226  -54.7849 C.ar      11 UNK        -0.0945 
     15 C15        29.5724  -41.5249  -56.2194 C.3       11 UNK         0.0169 
     16 S16        27.9602  -42.3271  -56.5226 S.3       11 UNK        -0.2669 
     17 C17        28.4643  -44.0395  -56.8954 C.3       11 UNK        -0.0850 
     18 CA         28.3224  -44.3661  -58.4056 C.3       10 UNK         0.0855 
     19 C          29.5804  -43.9392  -59.2120 C.2       10 UNK         0.5543 
     20 N          29.5796  -42.7406  -59.7786 N.am      10 UNK        -0.7343 
     21 O          30.5657  -44.6678  -59.2948 O.2       10 UNK        -0.5027 
     22 N          27.9593  -45.7751  -58.5995 N.am      10 UNK        -0.4495 
     23 C          27.5575  -46.3178  -59.7577 C.2       10 UNK         0.4903 
     24 O          27.4525  -45.6956  -60.8148 O.2       10 UNK        -0.4860 
     25 CA         27.1669  -47.8038  -59.7201 C.3       9 UNK         0.0227 
     26 CB         28.3876  -48.6935  -60.0045 C.3       9 UNK        -0.1964 
     27 N          26.5943  -48.1674  -58.4245 N.am      9 UNK        -0.4231 
     28 C          25.3250  -47.9575  -58.0512 C.2       9 UNK         0.5014 
     29 O          24.4550  -47.5142  -58.8035 O.2       9 UNK        -0.5270 
     30 CA         24.9855  -48.2816  -56.5809 C.3       8 UNK         0.0284 
     31 CB         23.4794  -48.5225  -56.3440 C.3       8 UNK        -0.1977 
     32 N          25.7934  -49.3806  -56.0364 N.am      8 UNK        -0.4342 
     33 C          25.8243  -50.6555  -56.4566 C.2       8 UNK         0.5039 
     34 O          25.0831  -51.1097  -57.3293 O.2       8 UNK        -0.5547 
     35 CA         26.8865  -51.5833  -55.8372 C.3       7 UNK         0.0281 
     36 CB         27.9634  -51.9180  -56.8832 C.3       7 UNK        -0.1963 
     37 N          27.5357  -51.0304  -54.6445 N.am      7 UNK        -0.4444 
     38 C          26.9580  -50.9389  -53.4388 C.2       7 UNK         0.5104 
     39 O          25.8260  -51.3534  -53.1888 O.2       7 UNK        -0.5100 
     40 CA         27.7661  -50.2396  -52.3324 C.3       6 UNK         0.0396 
     41 CB         28.7529  -51.2238  -51.6856 C.3       6 UNK        -0.1801 
     42 N          28.4886  -49.0487  -52.7929 N.am      6 UNK        -0.4747 
     43 C          27.9164  -47.9428  -53.2965 C.2       6 UNK         0.5012 
     44 O          26.7029  -47.8160  -53.4616 O.2       6 UNK        -0.5003 
     45 CA         28.8649  -46.8162  -53.7543 C.3       5 UNK         0.0782 
     46 C46        29.4936  -46.0518  -52.5613 C.3       11 UNK        -0.0868 
     47 S47        28.3745  -44.7703  -51.9085 S.3       11 UNK        -0.2515 
     48 C48        29.5393  -43.4347  -51.4631 C.3       11 UNK         0.0199 
     49 N          29.8862  -47.3362  -54.6602 N.am      5 UNK        -0.4607 
     50 C          29.6518  -47.8501  -55.8732 C.2       4 UNK         0.5031 
     51 O          28.5516  -47.8370  -56.4259 O.2       4 UNK        -0.5119 
     52 CA         30.8412  -48.5118  -56.5823 C.3       4 UNK         0.0263 
     53 CB         31.6136  -47.4794  -57.4152 C.3       4 UNK        -0.1967 
     54 N          31.7513  -49.1750  -55.6456 N.am      4 UNK        -0.4237 
     55 C          31.4580  -50.2968  -54.9730 C.2       3 UNK         0.4908 
     56 O          30.3887  -50.8958  -55.0742 O.2       3 UNK        -0.5102 
     57 CA         32.5245  -50.8186  -53.9965 C.3       3 UNK         0.0241 
     58 CB         33.6230  -51.5870  -54.7485 C.3       3 UNK        -0.1971 
     59 N          33.1279  -49.7573  -53.1867 N.am      3 UNK        -0.4139 
     60 C          32.4579  -49.0219  -52.2892 C.2       2 UNK         0.5016 
     61 O          31.2586  -49.1523  -52.0472 O.2       2 UNK        -0.5319 
     62 CA         33.2507  -47.9169  -51.5751 C.3       2 UNK         0.0286 
     63 CB         34.0983  -48.5064  -50.4366 C.3       2 UNK        -0.1963 
     64 N          34.1010  -47.1024  -52.4538 N.am      2 UNK        -0.4790 
     65 C          33.6773  -46.4410  -53.5416 C.2       1 UNK         0.5024 
     66 O          32.5685  -46.5914  -54.0508 O.2       1 UNK        -0.4888 
     67 H67        34.6645  -48.3586  -55.6821 H         1 UNK         0.0892 
     68 H68        34.5816  -46.8416  -56.6014 H         1 UNK         0.0892 
     69 H69        35.7338  -48.0846  -57.0534 H         1 UNK         0.0892 
     70 H70        36.7203  -45.6524  -53.8390 H         1 UNK         0.3107 
     71 H71        34.2286  -45.1566  -55.1366 H         1 UNK         0.0773 
     72 H72        33.8827  -44.0476  -52.6525 H         1 UNK         0.0680 
     73 H73        35.6033  -44.2183  -52.6035 H         1 UNK         0.0680 
     74 H74        34.0640  -41.4564  -52.3960 H         1 UNK         0.0650 
     75 H75        33.9323  -40.5137  -53.8557 H         1 UNK         0.0650 
     76 H76        32.1551  -42.7179  -51.6166 H         1 UNK         0.1397 
     77 H77        28.5401  -42.7053  -53.9024 H         1 UNK         0.1363 
     78 H78        32.1661  -41.1528  -55.6027 H         1 UNK         0.1355 
     79 H79        30.2289  -41.7334  -57.0656 H         1 UNK         0.0707 
     80 H80        29.4159  -40.4457  -56.2119 H         1 UNK         0.0707 
     81 H81        29.4713  -44.2444  -56.5248 H         1 UNK         0.1034 
     82 H82        27.8038  -44.6788  -56.3080 H         1 UNK         0.1034 
     83 H83        27.4731  -43.8014  -58.7970 H         1 UNK         0.0482 
     84 H84        28.7810  -42.1308  -59.7002 H         1 UNK         0.3460 
     85 H85        30.3905  -42.4420  -60.2969 H         1 UNK         0.3460 
     86 H86        28.0600  -46.3840  -57.7964 H         1 UNK         0.2989 
     87 H87        26.4238  -47.9820  -60.5002 H         1 UNK         0.0559 
     88 H88        29.1772  -48.5470  -59.2678 H         1 UNK         0.0848 
     89 H89        28.8117  -48.4697  -60.9843 H         1 UNK         0.0848 
     90 H90        28.1178  -49.7498  -60.0016 H         1 UNK         0.0848 
     91 H91        27.2522  -48.4405  -57.6999 H         1 UNK         0.3144 
     92 H92        25.2683  -47.3963  -56.0092 H         1 UNK         0.0727 
     93 H93        22.8963  -47.6394  -56.6077 H         1 UNK         0.0790 
     94 H94        23.2743  -48.7443  -55.2967 H         1 UNK         0.0790 
     95 H95        23.1015  -49.3510  -56.9437 H         1 UNK         0.0790 
     96 H96        26.4379  -49.1127  -55.3021 H         1 UNK         0.3215 
     97 H97        26.3828  -52.5106  -55.5561 H         1 UNK         0.0863 
     98 H98        28.6910  -52.6284  -56.4904 H         1 UNK         0.0808 
     99 H99        28.5042  -51.0264  -57.2029 H         1 UNK         0.0808 
    100 H100       27.5216  -52.3680  -57.7733 H         1 UNK         0.0808 
    101 H101       28.5060  -50.7403  -54.7463 H         1 UNK         0.3118 
    102 H102       27.0605  -49.9153  -51.5648 H         1 UNK         0.0546 
    103 H103       29.5159  -51.5524  -52.3922 H         1 UNK         0.0828 
    104 H104       28.2379  -52.1137  -51.3216 H         1 UNK         0.0828 
    105 H105       29.2614  -50.7725  -50.8335 H         1 UNK         0.0828 
    106 H106       29.5008  -49.0657  -52.6757 H         1 UNK         0.3005 
    107 H107       28.2684  -46.1116  -54.3375 H         1 UNK         0.1257 
    108 H108       30.4095  -45.5569  -52.8859 H         1 UNK         0.0775 
    109 H109       29.7932  -46.7228  -51.7540 H         1 UNK         0.0775 
    110 H110       28.9841  -42.6469  -50.9527 H         1 UNK         0.0840 
    111 H111       30.2500  -43.8292  -50.7349 H         1 UNK         0.0840 
    112 H112       30.8438  -47.3129  -54.3214 H         1 UNK         0.2987 
    113 H113       30.4438  -49.2707  -57.2593 H         1 UNK         0.0785 
    114 H114       32.0054  -46.6684  -56.7997 H         1 UNK         0.0798 
    115 H115       30.9646  -47.0305  -58.1674 H         1 UNK         0.0798 
    116 H116       32.4487  -47.9378  -57.9447 H         1 UNK         0.0798 
    117 H117       32.6198  -48.7048  -55.4449 H         1 UNK         0.3079 
    118 H118       32.0305  -51.5143  -53.3147 H         1 UNK         0.0794 
    119 H119       33.1945  -52.3961  -55.3418 H         1 UNK         0.0786 
    120 H120       34.3345  -52.0387  -54.0570 H         1 UNK         0.0786 
    121 H121       34.1797  -50.9432  -55.4303 H         1 UNK         0.0786 
    122 H122       34.1142  -49.5812  -53.3091 H         1 UNK         0.3032 
    123 H123       32.5148  -47.2428  -51.1308 H         1 UNK         0.1094 
    124 H124       34.5502  -47.7206  -49.8310 H         1 UNK         0.0794 
    125 H125       33.4865  -49.1143  -49.7681 H         1 UNK         0.0794 
    126 H126       34.8997  -49.1425  -50.8141 H         1 UNK         0.0794 
    127 H127       35.0436  -46.9321  -52.1326 H         1 UNK         0.3016 
@<TRIPOS>BOND
     1    1    2 1    
     2    1   67 1    
     3    1   68 1    
     4    1   69 1    
     5    2    3 2    
     6    2    4 am   BACKBONE|DICT|INTERRES
     7    4    5 1    
     8    4   70 1    
     9    5    6 1    
    10    5   65 1    
    11    5   71 1    
    12    6    7 1    
    13    6   72 1    
    14    6   73 1    
    15    7    8 1    
    16    8    9 1    
    17    8   74 1    
    18    8   75 1    
    19    9   10 ar   
    20    9   14 ar   
    21   10   11 ar   
    22   10   76 1    
    23   11   12 ar   
    24   11   48 1    
    25   12   13 ar   
    26   12   77 1    
    27   13   14 ar   
    28   13   15 1    
    29   14   78 1    
    30   15   16 1    
    31   15   79 1    
    32   15   80 1    
    33   16   17 1    
    34   17   18 1    
    35   17   81 1    
    36   17   82 1    
    37   18   19 1    
    38   18   22 1    
    39   18   83 1    
    40   19   20 am   BACKBONE|DICT|INTERRES
    41   19   21 2    
    42   20   84 1    
    43   20   85 1    
    44   22   23 am   BACKBONE|DICT|INTERRES
    45   22   86 1    
    46   23   24 2    
    47   23   25 1    
    48   25   26 1    
    49   25   27 1    
    50   25   87 1    
    51   26   88 1    
    52   26   89 1    
    53   26   90 1    
    54   27   28 am   BACKBONE|DICT|INTERRES
    55   27   91 1    
    56   28   29 2    
    57   28   30 1    
    58   30   31 1    
    59   30   32 1    
    60   30   92 1    
    61   31   93 1    
    62   31   94 1    
    63   31   95 1    
    64   32   33 am   BACKBONE|DICT|INTERRES
    65   32   96 1    
    66   33   34 2    
    67   33   35 1    
    68   35   36 1    
    69   35   37 1    
    70   35   97 1    
    71   36   98 1    
    72   36   99 1    
    73   36  100 1    
    74   37   38 am   BACKBONE|DICT|INTERRES
    75   37  101 1    
    76   38   39 2    
    77   38   40 1    
    78   40   41 1    
    79   40   42 1    
    80   40  102 1    
    81   41  103 1    
    82   41  104 1    
    83   41  105 1    
    84   42   43 am   BACKBONE|DICT|INTERRES
    85   42  106 1    
    86   43   44 2    
    87   43   45 1    
    88   45   46 1    
    89   45   49 1    
    90   45  107 1    
    91   46   47 1    
    92   46  108 1    
    93   46  109 1    
    94   47   48 1    
    95   48  110 1    
    96   48  111 1    
    97   49   50 am   BACKBONE|DICT|INTERRES
    98   49  112 1    
    99   50   51 2    
   100   50   52 1    
   101   52   53 1    
   102   52   54 1    
   103   52  113 1    
   104   53  114 1    
   105   53  115 1    
   106   53  116 1    
   107   54   55 am   BACKBONE|DICT|INTERRES
   108   54  117 1    
   109   55   56 2    
   110   55   57 1    
   111   57   58 1    
   112   57   59 1    
   113   57  118 1    
   114   58  119 1    
   115   58  120 1    
   116   58  121 1    
   117   59   60 am   BACKBONE|DICT|INTERRES
   118   59  122 1    
   119   60   61 2    
   120   60   62 1    
   121   62   63 1    
   122   62   64 1    
   123   62  123 1    
   124   63  124 1    
   125   63  125 1    
   126   63  126 1    
   127   64   65 am   BACKBONE|DICT|INTERRES
   128   64  127 1    
   129   65   66 2    
@<TRIPOS>SUBSTRUCTURE
     1 UNK         1 GROUP             0       ****    0 ROOT    
