@<TRIPOS>MOLECULE
3R134
127   129    1
SMALL
USER_CHARGES


@<TRIPOS>ATOM
      1 CA         30.6803  -41.2187  -51.9523 C.3       0 UNK        -0.1968 
      2 C          31.5450  -42.3615  -51.4400 C.2       0 UNK         0.4852 
      3 O          31.7355  -42.4874  -50.2296 O.2       0 UNK        -0.5359 
      4 N          32.0733  -43.1890  -52.3514 N.am      1 UNK        -0.4300 
      5 CA         32.8619  -44.3847  -52.0487 C.3       1 UNK         0.0863 
      6 C6         33.5597  -44.9374  -53.3158 C.3       11 UNK        -0.0953 
      7 S7         34.9742  -43.9179  -53.8638 S.3       11 UNK        -0.2369 
      8 C8         34.2300  -42.5915  -54.8776 C.3       11 UNK         0.0226 
      9 C9         33.2317  -43.0985  -55.9102 C.ar      11 UNK        -0.0699 
     10 C10        33.6235  -44.0219  -56.8846 C.ar      11 UNK        -0.0804 
     11 C11        32.6942  -44.5268  -57.8004 C.ar      11 UNK        -0.0871 
     12 C12        31.3716  -44.0762  -57.7551 C.ar      11 UNK        -0.1008 
     13 C13        30.9747  -43.1351  -56.8013 C.ar      11 UNK        -0.0735 
     14 C14        31.9092  -42.6458  -55.8857 C.ar      11 UNK        -0.0945 
     15 C15        29.5337  -42.6509  -56.7612 C.3       11 UNK         0.0169 
     16 S16        28.4190  -43.9194  -56.0881 S.3       11 UNK        -0.2669 
     17 C17        28.9523  -43.9994  -54.3416 C.3       11 UNK        -0.0850 
     18 CA         27.9670  -44.7860  -53.4385 C.3       10 UNK         0.0855 
     19 C          26.6317  -44.0116  -53.2237 C.2       10 UNK         0.5543 
     20 N          25.4954  -44.4830  -53.7265 N.am      10 UNK        -0.7343 
     21 O          26.6311  -42.9658  -52.5789 O.2       10 UNK        -0.5027 
     22 N          27.8146  -46.1691  -53.9083 N.am      10 UNK        -0.4495 
     23 C          27.2709  -47.1721  -53.2090 C.2       10 UNK         0.4903 
     24 O          26.9581  -47.0837  -52.0205 O.2       10 UNK        -0.4860 
     25 CA         27.0195  -48.4925  -53.9694 C.3       9 UNK         0.0227 
     26 CB         25.7966  -49.2595  -53.4237 C.3       9 UNK        -0.1964 
     27 N          26.9215  -48.3436  -55.4314 N.am      9 UNK        -0.4231 
     28 C          26.0301  -47.6086  -56.1169 C.2       9 UNK         0.5014 
     29 O          25.1761  -46.8967  -55.5854 O.2       9 UNK        -0.5270 
     30 CA         26.1134  -47.6516  -57.6528 C.3       8 UNK         0.0284 
     31 CB         26.7138  -46.3479  -58.2019 C.3       8 UNK        -0.1977 
     32 N          26.8936  -48.7840  -58.1619 N.am      8 UNK        -0.4342 
     33 C          26.3977  -50.0136  -58.3717 C.2       8 UNK         0.5039 
     34 O          25.2385  -50.3247  -58.0934 O.2       8 UNK        -0.5547 
     35 CA         27.3366  -51.0840  -58.9752 C.3       7 UNK         0.0281 
     36 CB         26.6029  -52.0245  -59.9548 C.3       7 UNK        -0.1963 
     37 N          28.5587  -50.5412  -59.5831 N.am      7 UNK        -0.4444 
     38 C          28.6584  -49.7000  -60.6270 C.2       7 UNK         0.5104 
     39 O          27.7021  -49.3594  -61.3242 O.2       7 UNK        -0.5100 
     40 CA         30.0577  -49.1039  -60.9123 C.3       6 UNK         0.0396 
     41 CB         29.9731  -47.6747  -61.4896 C.3       6 UNK        -0.1801 
     42 N          30.9666  -49.1300  -59.7548 N.am      6 UNK        -0.4747 
     43 C          30.7486  -48.5778  -58.5508 C.2       6 UNK         0.5012 
     44 O          29.7382  -47.9325  -58.2611 O.2       6 UNK        -0.5003 
     45 CA         31.7829  -48.8867  -57.4536 C.3       5 UNK         0.0782 
     46 C46        32.4942  -47.6127  -56.9446 C.3       11 UNK        -0.0868 
     47 S47        33.8284  -47.0647  -58.0617 S.3       11 UNK        -0.2515 
     48 C48        33.1061  -45.5749  -58.8272 C.3       11 UNK         0.0199 
     49 N          31.1344  -49.5924  -56.3505 N.am      5 UNK        -0.4607 
     50 C          30.5431  -50.7902  -56.4079 C.2       4 UNK         0.5031 
     51 O          30.4877  -51.4652  -57.4378 O.2       4 UNK        -0.5119 
     52 CA         29.9015  -51.3109  -55.1017 C.3       4 UNK         0.0263 
     53 CB         29.5423  -52.8063  -55.1807 C.3       4 UNK        -0.1967 
     54 N          30.7239  -51.0793  -53.9046 N.am      4 UNK        -0.4237 
     55 C          30.9289  -49.8980  -53.3065 C.2       3 UNK         0.4908 
     56 O          30.4503  -48.8356  -53.7118 O.2       3 UNK        -0.5102 
     57 CA         31.8708  -49.8901  -52.1001 C.3       3 UNK         0.0241 
     58 CB         33.3404  -49.9783  -52.5549 C.3       3 UNK        -0.1971 
     59 N          31.6558  -48.6523  -51.3581 N.am      3 UNK        -0.4139 
     60 C          31.9548  -48.4409  -50.0737 C.2       2 UNK         0.5016 
     61 O          32.4783  -49.2887  -49.3476 O.2       2 UNK        -0.5319 
     62 CA         31.6380  -47.0369  -49.5229 C.3       2 UNK         0.0286 
     63 CB         31.9672  -46.8976  -48.0243 C.3       2 UNK        -0.1963 
     64 N          32.3593  -45.9968  -50.2628 N.am      2 UNK        -0.4790 
     65 C          31.9550  -45.4610  -51.4212 C.2       1 UNK         0.5024 
     66 O          30.9255  -45.8038  -52.0049 O.2       1 UNK        -0.4888 
     67 H67        31.0296  -40.2714  -51.5422 H         1 UNK         0.0892 
     68 H68        30.7006  -41.1413  -53.0384 H         1 UNK         0.0892 
     69 H69        29.6460  -41.3638  -51.6409 H         1 UNK         0.0892 
     70 H70        31.8708  -43.0531  -53.3288 H         1 UNK         0.3107 
     71 H71        33.6283  -44.1100  -51.3205 H         1 UNK         0.0773 
     72 H72        33.9688  -45.9300  -53.1157 H         1 UNK         0.0680 
     73 H73        32.8483  -45.0785  -54.1313 H         1 UNK         0.0680 
     74 H74        33.7669  -41.8622  -54.2118 H         1 UNK         0.0650 
     75 H75        35.0303  -42.0604  -55.3944 H         1 UNK         0.0650 
     76 H76        34.6459  -44.3740  -56.9079 H         1 UNK         0.1397 
     77 H77        30.6420  -44.4655  -58.4526 H         1 UNK         0.1363 
     78 H78        31.6030  -41.9104  -55.1559 H         1 UNK         0.1355 
     79 H79        29.2104  -42.3997  -57.7724 H         1 UNK         0.0707 
     80 H80        29.4413  -41.7354  -56.1747 H         1 UNK         0.0707 
     81 H81        29.0935  -42.9871  -53.9600 H         1 UNK         0.1034 
     82 H82        29.9341  -44.4745  -54.3054 H         1 UNK         0.1034 
     83 H83        28.4252  -44.8457  -52.4497 H         1 UNK         0.0482 
     84 H84        25.4866  -45.3328  -54.2800 H         1 UNK         0.3460 
     85 H85        24.6401  -43.9730  -53.5764 H         1 UNK         0.3460 
     86 H86        28.0342  -46.3227  -54.8808 H         1 UNK         0.2989 
     87 H87        27.8930  -49.1124  -53.7803 H         1 UNK         0.0559 
     88 H88        25.6456  -50.1979  -53.9571 H         1 UNK         0.0848 
     89 H89        24.8811  -48.6734  -53.5096 H         1 UNK         0.0848 
     90 H90        25.9257  -49.5066  -52.3692 H         1 UNK         0.0848 
     91 H91        27.6031  -48.8530  -55.9738 H         1 UNK         0.3144 
     92 H92        25.0904  -47.7292  -58.0275 H         1 UNK         0.0727 
     93 H93        26.7000  -46.3337  -59.2919 H         1 UNK         0.0790 
     94 H94        27.7465  -46.2121  -57.8805 H         1 UNK         0.0790 
     95 H95        26.1491  -45.4798  -57.8587 H         1 UNK         0.0790 
     96 H96        27.8650  -48.5923  -58.3936 H         1 UNK         0.3215 
     97 H97        27.6708  -51.6902  -58.1319 H         1 UNK         0.0863 
     98 H98        27.2764  -52.7793  -60.3604 H         1 UNK         0.0808 
     99 H99        26.1658  -51.4788  -60.7915 H         1 UNK         0.0808 
    100 H100       25.7904  -52.5538  -59.4555 H         1 UNK         0.0808 
    101 H101       29.4126  -50.7640  -59.0802 H         1 UNK         0.3118 
    102 H102       30.5096  -49.7436  -61.6716 H         1 UNK         0.0546 
    103 H103       29.4648  -46.9920  -60.8077 H         1 UNK         0.0828 
    104 H104       29.4219  -47.6626  -62.4307 H         1 UNK         0.0828 
    105 H105       30.9640  -47.2690  -61.6931 H         1 UNK         0.0828 
    106 H106       31.8081  -49.6759  -59.8845 H         1 UNK         0.3005 
    107 H107       32.5362  -49.5684  -57.8550 H         1 UNK         0.1257 
    108 H108       31.7805  -46.8113  -56.7462 H         1 UNK         0.0775 
    109 H109       32.9714  -47.8143  -55.9839 H         1 UNK         0.0775 
    110 H110       33.8372  -45.1365  -59.5077 H         1 UNK         0.0840 
    111 H111       32.2553  -45.8745  -59.4415 H         1 UNK         0.0840 
    112 H112       31.0591  -49.0864  -55.4725 H         1 UNK         0.2987 
    113 H113       28.9669  -50.7626  -54.9813 H         1 UNK         0.0785 
    114 H114       29.0422  -53.1438  -54.2726 H         1 UNK         0.0798 
    115 H115       30.4279  -53.4258  -55.3279 H         1 UNK         0.0798 
    116 H116       28.8633  -53.0057  -56.0110 H         1 UNK         0.0798 
    117 H117       31.1945  -51.8913  -53.5305 H         1 UNK         0.3079 
    118 H118       31.6246  -50.7413  -51.4616 H         1 UNK         0.0794 
    119 H119       33.5266  -50.8918  -53.1209 H         1 UNK         0.0786 
    120 H120       34.0207  -49.9855  -51.7031 H         1 UNK         0.0786 
    121 H121       33.6141  -49.1365  -53.1926 H         1 UNK         0.0786 
    122 H122       31.2021  -47.9133  -51.8904 H         1 UNK         0.3032 
    123 H123       30.5624  -46.8819  -49.6403 H         1 UNK         0.1094 
    124 H124       33.0301  -47.0427  -47.8271 H         1 UNK         0.0794 
    125 H125       31.6869  -45.9139  -47.6469 H         1 UNK         0.0794 
    126 H126       31.4219  -47.6356  -47.4342 H         1 UNK         0.0794 
    127 H127       33.2318  -45.6852  -49.8596 H         1 UNK         0.3016 
@<TRIPOS>BOND
     1    1    2 1    
     2    1   67 1    
     3    1   68 1    
     4    1   69 1    
     5    2    3 2    
     6    2    4 am   BACKBONE|DICT|INTERRES
     7    4    5 1    
     8    4   70 1    
     9    5    6 1    
    10    5   65 1    
    11    5   71 1    
    12    6    7 1    
    13    6   72 1    
    14    6   73 1    
    15    7    8 1    
    16    8    9 1    
    17    8   74 1    
    18    8   75 1    
    19    9   10 ar   
    20    9   14 ar   
    21   10   11 ar   
    22   10   76 1    
    23   11   12 ar   
    24   11   48 1    
    25   12   13 ar   
    26   12   77 1    
    27   13   14 ar   
    28   13   15 1    
    29   14   78 1    
    30   15   16 1    
    31   15   79 1    
    32   15   80 1    
    33   16   17 1    
    34   17   18 1    
    35   17   81 1    
    36   17   82 1    
    37   18   19 1    
    38   18   22 1    
    39   18   83 1    
    40   19   20 am   BACKBONE|DICT|INTERRES
    41   19   21 2    
    42   20   84 1    
    43   20   85 1    
    44   22   23 am   BACKBONE|DICT|INTERRES
    45   22   86 1    
    46   23   24 2    
    47   23   25 1    
    48   25   26 1    
    49   25   27 1    
    50   25   87 1    
    51   26   88 1    
    52   26   89 1    
    53   26   90 1    
    54   27   28 am   BACKBONE|DICT|INTERRES
    55   27   91 1    
    56   28   29 2    
    57   28   30 1    
    58   30   31 1    
    59   30   32 1    
    60   30   92 1    
    61   31   93 1    
    62   31   94 1    
    63   31   95 1    
    64   32   33 am   BACKBONE|DICT|INTERRES
    65   32   96 1    
    66   33   34 2    
    67   33   35 1    
    68   35   36 1    
    69   35   37 1    
    70   35   97 1    
    71   36   98 1    
    72   36   99 1    
    73   36  100 1    
    74   37   38 am   BACKBONE|DICT|INTERRES
    75   37  101 1    
    76   38   39 2    
    77   38   40 1    
    78   40   41 1    
    79   40   42 1    
    80   40  102 1    
    81   41  103 1    
    82   41  104 1    
    83   41  105 1    
    84   42   43 am   BACKBONE|DICT|INTERRES
    85   42  106 1    
    86   43   44 2    
    87   43   45 1    
    88   45   46 1    
    89   45   49 1    
    90   45  107 1    
    91   46   47 1    
    92   46  108 1    
    93   46  109 1    
    94   47   48 1    
    95   48  110 1    
    96   48  111 1    
    97   49   50 am   BACKBONE|DICT|INTERRES
    98   49  112 1    
    99   50   51 2    
   100   50   52 1    
   101   52   53 1    
   102   52   54 1    
   103   52  113 1    
   104   53  114 1    
   105   53  115 1    
   106   53  116 1    
   107   54   55 am   BACKBONE|DICT|INTERRES
   108   54  117 1    
   109   55   56 2    
   110   55   57 1    
   111   57   58 1    
   112   57   59 1    
   113   57  118 1    
   114   58  119 1    
   115   58  120 1    
   116   58  121 1    
   117   59   60 am   BACKBONE|DICT|INTERRES
   118   59  122 1    
   119   60   61 2    
   120   60   62 1    
   121   62   63 1    
   122   62   64 1    
   123   62  123 1    
   124   63  124 1    
   125   63  125 1    
   126   63  126 1    
   127   64   65 am   BACKBONE|DICT|INTERRES
   128   64  127 1    
   129   65   66 2    
@<TRIPOS>SUBSTRUCTURE
     1 UNK         1 GROUP             0       ****    0 ROOT    
