@<TRIPOS>MOLECULE
3R134
127   129    1
SMALL
USER_CHARGES


@<TRIPOS>ATOM
      1 CA         29.3835  -44.4511  -50.9812 C.3       0 UNK        -0.1968 
      2 C          30.7424  -45.0118  -50.5896 C.2       0 UNK         0.4852 
      3 O          30.8995  -45.5016  -49.4700 O.2       0 UNK        -0.5359 
      4 N          31.7265  -44.9295  -51.4943 N.am      1 UNK        -0.4300 
      5 CA         33.0932  -45.4161  -51.2851 C.3       1 UNK         0.0863 
      6 C6         34.0924  -44.8096  -52.3022 C.3       11 UNK        -0.0953 
      7 S7         34.0665  -42.9833  -52.2780 S.3       11 UNK        -0.2369 
      8 C8         34.0434  -42.5554  -54.0508 C.3       11 UNK         0.0226 
      9 C9         32.8746  -43.1714  -54.8120 C.ar      11 UNK        -0.0699 
     10 C10        33.1233  -44.0022  -55.9103 C.ar      11 UNK        -0.0804 
     11 C11        32.0662  -44.5622  -56.6318 C.ar      11 UNK        -0.0871 
     12 C12        30.7538  -44.3005  -56.2348 C.ar      11 UNK        -0.1008 
     13 C13        30.4861  -43.4587  -55.1505 C.ar      11 UNK        -0.0735 
     14 C14        31.5527  -42.8930  -54.4437 C.ar      11 UNK        -0.0945 
     15 C15        29.0439  -43.1679  -54.7547 C.3       11 UNK         0.0169 
     16 S16        28.1104  -42.4453  -56.1392 S.3       11 UNK        -0.2669 
     17 C17        26.3797  -42.6740  -55.5972 C.3       11 UNK        -0.0850 
     18 CA         25.8428  -44.1382  -55.6886 C.3       10 UNK         0.0855 
     19 C          24.3312  -44.2323  -55.3235 C.2       10 UNK         0.5543 
     20 N          23.5289  -45.0385  -56.0084 N.am      10 UNK        -0.7343 
     21 O          23.8805  -43.5803  -54.3846 O.2       10 UNK        -0.5027 
     22 N          26.2230  -44.8549  -56.9204 N.am      10 UNK        -0.4495 
     23 C          25.9774  -44.4664  -58.1776 C.2       10 UNK         0.4903 
     24 O          25.3455  -43.4551  -58.4837 O.2       10 UNK        -0.4860 
     25 CA         26.5506  -45.3592  -59.2882 C.3       9 UNK         0.0227 
     26 CB         28.0160  -44.9879  -59.5707 C.3       9 UNK        -0.1964 
     27 N          26.4655  -46.7908  -58.9884 N.am      9 UNK        -0.4231 
     28 C          25.3351  -47.5093  -59.0412 C.2       9 UNK         0.5014 
     29 O          24.2225  -47.0227  -59.2453 O.2       9 UNK        -0.5270 
     30 CA         25.4692  -49.0261  -58.8518 C.3       8 UNK         0.0284 
     31 CB         26.2854  -49.6567  -59.9945 C.3       8 UNK        -0.1977 
     32 N          26.1033  -49.3370  -57.5727 N.am      8 UNK        -0.4342 
     33 C          25.4705  -49.8441  -56.5052 C.2       8 UNK         0.5039 
     34 O          24.2726  -50.1309  -56.4890 O.2       8 UNK        -0.5547 
     35 CA         26.3082  -50.0863  -55.2345 C.3       7 UNK         0.0281 
     36 CB         26.6780  -51.5732  -55.1113 C.3       7 UNK        -0.1963 
     37 N          27.5271  -49.2739  -55.1841 N.am      7 UNK        -0.4444 
     38 C          27.5264  -47.9468  -54.9889 C.2       7 UNK         0.5104 
     39 O          26.5083  -47.2968  -54.7584 O.2       7 UNK        -0.5100 
     40 CA         28.8635  -47.1960  -55.1136 C.3       6 UNK         0.0396 
     41 CB         29.4443  -46.8990  -53.7247 C.3       6 UNK        -0.1801 
     42 N          29.8760  -47.8816  -55.9160 N.am      6 UNK        -0.4747 
     43 C          29.7655  -48.2279  -57.2065 C.2       6 UNK         0.5012 
     44 O          28.7761  -47.9784  -57.8981 O.2       6 UNK        -0.5003 
     45 CA         30.9294  -49.0485  -57.8026 C.3       5 UNK         0.0782 
     46 C46        31.9472  -48.1448  -58.5426 C.3       11 UNK        -0.0868 
     47 S47        32.9260  -47.0741  -57.4245 S.3       11 UNK        -0.2515 
     48 C48        32.3346  -45.4107  -57.8658 C.3       11 UNK         0.0199 
     49 N          31.6001  -49.9211  -56.8288 N.am      5 UNK        -0.4607 
     50 C          31.0314  -50.8490  -56.0499 C.2       4 UNK         0.5031 
     51 O          29.8227  -51.0805  -56.0467 O.2       4 UNK        -0.5119 
     52 CA         31.9407  -51.6240  -55.0776 C.3       4 UNK         0.0263 
     53 CB         32.4361  -52.9358  -55.7166 C.3       4 UNK        -0.1967 
     54 N          33.0525  -50.8457  -54.5026 N.am      4 UNK        -0.4237 
     55 C          34.1418  -50.3428  -55.1074 C.2       3 UNK         0.4908 
     56 O          34.3658  -50.4649  -56.3120 O.2       3 UNK        -0.5102 
     57 CA         35.1329  -49.5470  -54.2375 C.3       3 UNK         0.0241 
     58 CB         35.5750  -48.2420  -54.9261 C.3       3 UNK        -0.1971 
     59 N          34.5642  -49.2088  -52.9317 N.am      3 UNK        -0.4139 
     60 C          35.0622  -49.5427  -51.7370 C.2       2 UNK         0.5016 
     61 O          36.0804  -50.2203  -51.5850 O.2       2 UNK        -0.5319 
     62 CA         34.2918  -49.0080  -50.5089 C.3       2 UNK         0.0286 
     63 CB         34.9978  -49.3337  -49.1788 C.3       2 UNK        -0.1963 
     64 N          34.0533  -47.5597  -50.5747 N.am      2 UNK        -0.4790 
     65 C          33.1380  -46.9543  -51.3437 C.2       1 UNK         0.5024 
     66 O          32.3954  -47.5651  -52.1181 O.2       1 UNK        -0.4888 
     67 H67        28.6163  -45.2181  -50.8794 H         1 UNK         0.0892 
     68 H68        29.3734  -44.0923  -52.0086 H         1 UNK         0.0892 
     69 H69        29.1204  -43.6186  -50.3293 H         1 UNK         0.0892 
     70 H70        31.5489  -44.5296  -52.4037 H         1 UNK         0.3107 
     71 H71        33.4033  -45.1079  -50.2840 H         1 UNK         0.0773 
     72 H72        33.8823  -45.1747  -53.3089 H         1 UNK         0.0680 
     73 H73        35.1110  -45.1288  -52.0739 H         1 UNK         0.0680 
     74 H74        34.9953  -42.8582  -54.4898 H         1 UNK         0.0650 
     75 H75        33.9936  -41.4702  -54.1477 H         1 UNK         0.0650 
     76 H76        34.1407  -44.2080  -56.2145 H         1 UNK         0.1397 
     77 H77        29.9322  -44.7284  -56.7902 H         1 UNK         0.1363 
     78 H78        31.3597  -42.2347  -53.6074 H         1 UNK         0.1355 
     79 H79        28.9984  -42.4848  -53.9053 H         1 UNK         0.0707 
     80 H80        28.5738  -44.0977  -54.4371 H         1 UNK         0.0707 
     81 H81        25.7610  -42.0147  -56.2084 H         1 UNK         0.1034 
     82 H82        26.2860  -42.3003  -54.5758 H         1 UNK         0.1034 
     83 H83        26.3372  -44.6918  -54.8918 H         1 UNK         0.0482 
     84 H84        22.5550  -45.0989  -55.7570 H         1 UNK         0.3460 
     85 H85        23.8875  -45.5753  -56.7826 H         1 UNK         0.3460 
     86 H86        26.6968  -45.7336  -56.7769 H         1 UNK         0.2989 
     87 H87        25.9752  -45.1670  -60.1964 H         1 UNK         0.0559 
     88 H88        28.4055  -45.5350  -60.4293 H         1 UNK         0.0848 
     89 H89        28.6589  -45.2042  -58.7177 H         1 UNK         0.0848 
     90 H90        28.1151  -43.9241  -59.7916 H         1 UNK         0.0848 
     91 H91        27.3401  -47.2620  -58.7654 H         1 UNK         0.3144 
     92 H92        24.4642  -49.4517  -58.8926 H         1 UNK         0.0727 
     93 H93        26.3018  -50.7435  -59.9106 H         1 UNK         0.0790 
     94 H94        27.3194  -49.3097  -60.0037 H         1 UNK         0.0790 
     95 H95        25.8501  -49.4145  -60.9650 H         1 UNK         0.0790 
     96 H96        27.0840  -49.0970  -57.4842 H         1 UNK         0.3215 
     97 H97        25.6863  -49.8191  -54.3770 H         1 UNK         0.0863 
     98 H98        27.2556  -51.7673  -54.2075 H         1 UNK         0.0808 
     99 H99        27.2644  -51.9154  -55.9649 H         1 UNK         0.0808 
    100 H100       25.7824  -52.1940  -55.0637 H         1 UNK         0.0808 
    101 H101       28.4017  -49.7485  -55.3880 H         1 UNK         0.3118 
    102 H102       28.6453  -46.2477  -55.6049 H         1 UNK         0.0546 
    103 H103       29.7240  -47.8124  -53.1983 H         1 UNK         0.0828 
    104 H104       28.7168  -46.3759  -53.1041 H         1 UNK         0.0828 
    105 H105       30.3309  -46.2685  -53.7926 H         1 UNK         0.0828 
    106 H106       30.7346  -48.1275  -55.4445 H         1 UNK         0.3005 
    107 H107       30.4757  -49.7106  -58.5433 H         1 UNK         0.1257 
    108 H108       32.6537  -48.7739  -59.0864 H         1 UNK         0.0775 
    109 H109       31.4481  -47.5517  -59.3107 H         1 UNK         0.0775 
    110 H110       33.0832  -44.9230  -58.4917 H         1 UNK         0.0840 
    111 H111       31.4302  -45.4721  -58.4722 H         1 UNK         0.0840 
    112 H112       32.6110  -49.8333  -56.7758 H         1 UNK         0.2987 
    113 H113       31.3108  -51.8968  -54.2292 H         1 UNK         0.0785 
    114 H114       33.0533  -52.7557  -56.5972 H         1 UNK         0.0798 
    115 H115       31.5951  -53.5538  -56.0343 H         1 UNK         0.0798 
    116 H116       33.0217  -53.5246  -55.0107 H         1 UNK         0.0798 
    117 H117       32.9699  -50.6694  -53.5114 H         1 UNK         0.3079 
    118 H118       36.0112  -50.1839  -54.1153 H         1 UNK         0.0794 
    119 H119       34.7373  -47.5584  -55.0667 H         1 UNK         0.0786 
    120 H120       36.0099  -48.4351  -55.9077 H         1 UNK         0.0786 
    121 H121       36.3310  -47.7230  -54.3367 H         1 UNK         0.0786 
    122 H122       33.7260  -48.6316  -52.9335 H         1 UNK         0.3032 
    123 H123       33.3248  -49.5167  -50.5003 H         1 UNK         0.1094 
    124 H124       34.4107  -48.9962  -48.3244 H         1 UNK         0.0794 
    125 H125       35.1409  -50.4091  -49.0638 H         1 UNK         0.0794 
    126 H126       35.9809  -48.8652  -49.1179 H         1 UNK         0.0794 
    127 H127       34.6551  -46.9862  -50.0001 H         1 UNK         0.3016 
@<TRIPOS>BOND
     1    1    2 1    
     2    1   67 1    
     3    1   68 1    
     4    1   69 1    
     5    2    3 2    
     6    2    4 am   BACKBONE|DICT|INTERRES
     7    4    5 1    
     8    4   70 1    
     9    5    6 1    
    10    5   65 1    
    11    5   71 1    
    12    6    7 1    
    13    6   72 1    
    14    6   73 1    
    15    7    8 1    
    16    8    9 1    
    17    8   74 1    
    18    8   75 1    
    19    9   10 ar   
    20    9   14 ar   
    21   10   11 ar   
    22   10   76 1    
    23   11   12 ar   
    24   11   48 1    
    25   12   13 ar   
    26   12   77 1    
    27   13   14 ar   
    28   13   15 1    
    29   14   78 1    
    30   15   16 1    
    31   15   79 1    
    32   15   80 1    
    33   16   17 1    
    34   17   18 1    
    35   17   81 1    
    36   17   82 1    
    37   18   19 1    
    38   18   22 1    
    39   18   83 1    
    40   19   20 am   BACKBONE|DICT|INTERRES
    41   19   21 2    
    42   20   84 1    
    43   20   85 1    
    44   22   23 am   BACKBONE|DICT|INTERRES
    45   22   86 1    
    46   23   24 2    
    47   23   25 1    
    48   25   26 1    
    49   25   27 1    
    50   25   87 1    
    51   26   88 1    
    52   26   89 1    
    53   26   90 1    
    54   27   28 am   BACKBONE|DICT|INTERRES
    55   27   91 1    
    56   28   29 2    
    57   28   30 1    
    58   30   31 1    
    59   30   32 1    
    60   30   92 1    
    61   31   93 1    
    62   31   94 1    
    63   31   95 1    
    64   32   33 am   BACKBONE|DICT|INTERRES
    65   32   96 1    
    66   33   34 2    
    67   33   35 1    
    68   35   36 1    
    69   35   37 1    
    70   35   97 1    
    71   36   98 1    
    72   36   99 1    
    73   36  100 1    
    74   37   38 am   BACKBONE|DICT|INTERRES
    75   37  101 1    
    76   38   39 2    
    77   38   40 1    
    78   40   41 1    
    79   40   42 1    
    80   40  102 1    
    81   41  103 1    
    82   41  104 1    
    83   41  105 1    
    84   42   43 am   BACKBONE|DICT|INTERRES
    85   42  106 1    
    86   43   44 2    
    87   43   45 1    
    88   45   46 1    
    89   45   49 1    
    90   45  107 1    
    91   46   47 1    
    92   46  108 1    
    93   46  109 1    
    94   47   48 1    
    95   48  110 1    
    96   48  111 1    
    97   49   50 am   BACKBONE|DICT|INTERRES
    98   49  112 1    
    99   50   51 2    
   100   50   52 1    
   101   52   53 1    
   102   52   54 1    
   103   52  113 1    
   104   53  114 1    
   105   53  115 1    
   106   53  116 1    
   107   54   55 am   BACKBONE|DICT|INTERRES
   108   54  117 1    
   109   55   56 2    
   110   55   57 1    
   111   57   58 1    
   112   57   59 1    
   113   57  118 1    
   114   58  119 1    
   115   58  120 1    
   116   58  121 1    
   117   59   60 am   BACKBONE|DICT|INTERRES
   118   59  122 1    
   119   60   61 2    
   120   60   62 1    
   121   62   63 1    
   122   62   64 1    
   123   62  123 1    
   124   63  124 1    
   125   63  125 1    
   126   63  126 1    
   127   64   65 am   BACKBONE|DICT|INTERRES
   128   64  127 1    
   129   65   66 2    
@<TRIPOS>SUBSTRUCTURE
     1 UNK         1 GROUP             0       ****    0 ROOT    
