@<TRIPOS>MOLECULE
3R134
127   129    1
SMALL
USER_CHARGES


@<TRIPOS>ATOM
      1 CA         37.4745  -44.1231  -57.8884 C.3       0 UNK        -0.1968 
      2 C          36.2278  -44.9936  -57.8247 C.2       0 UNK         0.4852 
      3 O          35.9806  -45.7749  -58.7452 O.2       0 UNK        -0.5359 
      4 N          35.4389  -44.8580  -56.7512 N.am      1 UNK        -0.4300 
      5 CA         34.2260  -45.6429  -56.4963 C.3       1 UNK         0.0863 
      6 C6         33.3432  -45.0059  -55.3947 C.3       11 UNK        -0.0953 
      7 S7         32.7830  -43.3359  -55.8553 S.3       11 UNK        -0.2369 
      8 C8         32.6117  -42.5582  -54.2193 C.3       11 UNK         0.0226 
      9 C9         31.3774  -43.0501  -53.4757 C.ar      11 UNK        -0.0699 
     10 C10        31.4996  -43.7817  -52.2886 C.ar      11 UNK        -0.0804 
     11 C11        30.3597  -44.1763  -51.5785 C.ar      11 UNK        -0.0871 
     12 C12        29.0942  -43.8373  -52.0687 C.ar      11 UNK        -0.1008 
     13 C13        28.9607  -43.1284  -53.2647 C.ar      11 UNK        -0.0735 
     14 C14        30.1051  -42.7342  -53.9613 C.ar      11 UNK        -0.0945 
     15 C15        27.5816  -42.7731  -53.7944 C.3       11 UNK         0.0169 
     16 S16        26.7923  -44.2074  -54.5840 S.3       11 UNK        -0.2669 
     17 C17        25.3217  -43.4154  -55.3256 C.3       11 UNK        -0.0850 
     18 CA         25.3676  -43.3533  -56.8751 C.3       10 UNK         0.0855 
     19 C          26.4055  -42.3185  -57.4066 C.2       10 UNK         0.5543 
     20 N          27.3583  -42.6908  -58.2543 N.am      10 UNK        -0.7343 
     21 O          26.3332  -41.1451  -57.0498 O.2       10 UNK        -0.5027 
     22 N          25.4853  -44.6993  -57.4502 N.am      10 UNK        -0.4495 
     23 C          25.0913  -45.0552  -58.6775 C.2       10 UNK         0.4903 
     24 O          24.4862  -44.3074  -59.4475 O.2       10 UNK        -0.4860 
     25 CA         25.4449  -46.4920  -59.1071 C.3       9 UNK         0.0227 
     26 CB         25.3616  -46.7001  -60.6343 C.3       9 UNK        -0.1964 
     27 N          26.7434  -46.9466  -58.5899 N.am      9 UNK        -0.4231 
     28 C          27.9515  -46.4045  -58.8274 C.2       9 UNK         0.5014 
     29 O          28.1158  -45.3853  -59.4997 O.2       9 UNK        -0.5270 
     30 CA         29.1890  -47.0803  -58.1984 C.3       8 UNK         0.0284 
     31 CB         29.9461  -46.0915  -57.2924 C.3       8 UNK        -0.1977 
     32 N          28.8582  -48.2895  -57.4357 N.am      8 UNK        -0.4342 
     33 C          28.6080  -49.4891  -57.9870 C.2       8 UNK         0.5039 
     34 O          28.7598  -49.7238  -59.1860 O.2       8 UNK        -0.5547 
     35 CA         28.0552  -50.6105  -57.0813 C.3       7 UNK         0.0281 
     36 CB         29.1096  -51.7023  -56.8384 C.3       7 UNK        -0.1963 
     37 N          27.5364  -50.1488  -55.7914 N.am      7 UNK        -0.4444 
     38 C          26.4737  -49.3500  -55.6207 C.2       7 UNK         0.5104 
     39 O          25.7688  -48.9437  -56.5449 O.2       7 UNK        -0.5100 
     40 CA         26.2033  -48.8653  -54.1837 C.3       6 UNK         0.0396 
     41 CB         25.2121  -49.8026  -53.4780 C.3       6 UNK        -0.1801 
     42 N          27.4149  -48.7310  -53.3625 N.am      6 UNK        -0.4747 
     43 C          28.4726  -47.9609  -53.6558 C.2       6 UNK         0.5012 
     44 O          28.5599  -47.3096  -54.6945 O.2       6 UNK        -0.5003 
     45 CA         29.6574  -47.9646  -52.6737 C.3       5 UNK         0.0782 
     46 C46        29.3099  -47.2900  -51.3209 C.3       11 UNK        -0.0868 
     47 S47        30.8224  -46.7087  -50.4817 S.3       11 UNK        -0.2515 
     48 C48        30.4906  -44.9293  -50.2594 C.3       11 UNK         0.0199 
     49 N          30.2682  -49.2956  -52.5444 N.am      5 UNK        -0.4607 
     50 C          29.7496  -50.3974  -51.9782 C.2       4 UNK         0.5031 
     51 O          28.6344  -50.4335  -51.4564 O.2       4 UNK        -0.5119 
     52 CA         30.5776  -51.6972  -52.0245 C.3       4 UNK         0.0263 
     53 CB         29.9093  -52.7264  -52.9519 C.3       4 UNK        -0.1967 
     54 N          31.9616  -51.4983  -52.4588 N.am      4 UNK        -0.4237 
     55 C          32.9388  -50.9952  -51.6923 C.2       3 UNK         0.4908 
     56 O          32.8028  -50.7282  -50.4980 O.2       3 UNK        -0.5102 
     57 CA         34.2950  -50.7276  -52.3732 C.3       3 UNK         0.0241 
     58 CB         35.2740  -51.8779  -52.0850 C.3       3 UNK        -0.1971 
     59 N          34.2294  -50.5018  -53.8249 N.am      3 UNK        -0.4139 
     60 C          33.5512  -49.5124  -54.4230 C.2       2 UNK         0.5016 
     61 O          32.8065  -48.7313  -53.8262 O.2       2 UNK        -0.5319 
     62 CA         33.6847  -49.4060  -55.9521 C.3       2 UNK         0.0286 
     63 CB         32.5459  -50.1729  -56.6411 C.3       2 UNK        -0.1963 
     64 N          33.6370  -48.0111  -56.3920 N.am      2 UNK        -0.4790 
     65 C          34.5733  -47.0949  -56.1156 C.2       1 UNK         0.5024 
     66 O          35.6416  -47.3535  -55.5534 O.2       1 UNK        -0.4888 
     67 H67        37.4515  -43.4993  -58.7815 H         1 UNK         0.0892 
     68 H68        38.3661  -44.7480  -57.9313 H         1 UNK         0.0892 
     69 H69        37.5603  -43.4691  -57.0207 H         1 UNK         0.0892 
     70 H70        35.6978  -44.2103  -56.0216 H         1 UNK         0.3107 
     71 H71        33.6484  -45.6705  -57.4234 H         1 UNK         0.0773 
     72 H72        33.8881  -44.9601  -54.4498 H         1 UNK         0.0680 
     73 H73        32.4540  -45.6102  -55.2033 H         1 UNK         0.0680 
     74 H74        33.5183  -42.7244  -53.6356 H         1 UNK         0.0650 
     75 H75        32.5323  -41.4787  -54.3553 H         1 UNK         0.0650 
     76 H76        32.4801  -44.0300  -51.9058 H         1 UNK         0.1397 
     77 H77        28.2062  -44.1265  -51.5234 H         1 UNK         0.1363 
     78 H78        30.0090  -42.1751  -54.8822 H         1 UNK         0.1355 
     79 H79        26.9522  -42.4157  -52.9780 H         1 UNK         0.0707 
     80 H80        27.6520  -41.9553  -54.5136 H         1 UNK         0.0707 
     81 H81        25.1736  -42.4194  -54.9038 H         1 UNK         0.1034 
     82 H82        24.4467  -43.9883  -55.0147 H         1 UNK         0.1034 
     83 H83        24.3995  -42.9603  -57.1916 H         1 UNK         0.0482 
     84 H84        28.0126  -42.0016  -58.5875 H         1 UNK         0.3460 
     85 H85        27.4304  -43.6477  -58.5791 H         1 UNK         0.3460 
     86 H86        25.9964  -45.3663  -56.8901 H         1 UNK         0.2989 
     87 H87        24.6954  -47.1372  -58.6464 H         1 UNK         0.0559 
     88 H88        26.0463  -46.0421  -61.1704 H         1 UNK         0.0848 
     89 H89        24.3565  -46.4929  -61.0038 H         1 UNK         0.0848 
     90 H90        25.6002  -47.7277  -60.9083 H         1 UNK         0.0848 
     91 H91        26.6945  -47.7539  -57.9770 H         1 UNK         0.3144 
     92 H92        29.8558  -47.3596  -59.0168 H         1 UNK         0.0727 
     93 H93        30.7665  -46.5768  -56.7653 H         1 UNK         0.0790 
     94 H94        29.2904  -45.6392  -56.5470 H         1 UNK         0.0790 
     95 H95        30.3727  -45.2752  -57.8767 H         1 UNK         0.0790 
     96 H96        28.7032  -48.1509  -56.4398 H         1 UNK         0.3215 
     97 H97        27.2233  -51.0635  -57.6251 H         1 UNK         0.0863 
     98 H98        28.6677  -52.5775  -56.3617 H         1 UNK         0.0808 
     99 H99        29.9187  -51.3490  -56.2018 H         1 UNK         0.0808 
    100 H100       29.5533  -52.0386  -57.7767 H         1 UNK         0.0808 
    101 H101       28.0542  -50.4154  -54.9675 H         1 UNK         0.3118 
    102 H102       25.7483  -47.8752  -54.2555 H         1 UNK         0.0546 
    103 H103       24.2936  -49.9082  -54.0573 H         1 UNK         0.0828 
    104 H104       24.9317  -49.4178  -52.4974 H         1 UNK         0.0828 
    105 H105       25.6284  -50.8013  -53.3401 H         1 UNK         0.0828 
    106 H106       27.4776  -49.3010  -52.5227 H         1 UNK         0.3005 
    107 H107       30.4187  -47.3467  -53.1559 H         1 UNK         0.1257 
    108 H108       28.7787  -47.9703  -50.6548 H         1 UNK         0.0775 
    109 H109       28.6337  -46.4488  -51.4684 H         1 UNK         0.0775 
    110 H110       29.5895  -44.8069  -49.6563 H         1 UNK         0.0840 
    111 H111       31.3023  -44.4936  -49.6749 H         1 UNK         0.0840 
    112 H112       31.2019  -49.3495  -52.9428 H         1 UNK         0.2987 
    113 H113       30.5863  -52.1078  -51.0125 H         1 UNK         0.0785 
    114 H114       28.8817  -52.9246  -52.6433 H         1 UNK         0.0798 
    115 H115       30.4384  -53.6794  -52.9325 H         1 UNK         0.0798 
    116 H116       29.8784  -52.3810  -53.9847 H         1 UNK         0.0798 
    117 H117       32.1720  -51.7032  -53.4243 H         1 UNK         0.3079 
    118 H118       34.6984  -49.8172  -51.9247 H         1 UNK         0.0794 
    119 H119       34.9436  -52.8130  -52.5390 H         1 UNK         0.0786 
    120 H120       35.3678  -52.0522  -51.0120 H         1 UNK         0.0786 
    121 H121       36.2725  -51.6545  -52.4615 H         1 UNK         0.0786 
    122 H122       34.7985  -51.1115  -54.3952 H         1 UNK         0.3032 
    123 H123       34.6430  -49.8324  -56.2578 H         1 UNK         0.1094 
    124 H124       32.6569  -50.1594  -57.7257 H         1 UNK         0.0794 
    125 H125       32.5282  -51.2190  -56.3323 H         1 UNK         0.0794 
    126 H126       31.5751  -49.7385  -56.4004 H         1 UNK         0.0794 
    127 H127       32.7793  -47.7110  -56.8303 H         1 UNK         0.3016 
@<TRIPOS>BOND
     1    1    2 1    
     2    1   67 1    
     3    1   68 1    
     4    1   69 1    
     5    2    3 2    
     6    2    4 am   BACKBONE|DICT|INTERRES
     7    4    5 1    
     8    4   70 1    
     9    5    6 1    
    10    5   65 1    
    11    5   71 1    
    12    6    7 1    
    13    6   72 1    
    14    6   73 1    
    15    7    8 1    
    16    8    9 1    
    17    8   74 1    
    18    8   75 1    
    19    9   10 ar   
    20    9   14 ar   
    21   10   11 ar   
    22   10   76 1    
    23   11   12 ar   
    24   11   48 1    
    25   12   13 ar   
    26   12   77 1    
    27   13   14 ar   
    28   13   15 1    
    29   14   78 1    
    30   15   16 1    
    31   15   79 1    
    32   15   80 1    
    33   16   17 1    
    34   17   18 1    
    35   17   81 1    
    36   17   82 1    
    37   18   19 1    
    38   18   22 1    
    39   18   83 1    
    40   19   20 am   BACKBONE|DICT|INTERRES
    41   19   21 2    
    42   20   84 1    
    43   20   85 1    
    44   22   23 am   BACKBONE|DICT|INTERRES
    45   22   86 1    
    46   23   24 2    
    47   23   25 1    
    48   25   26 1    
    49   25   27 1    
    50   25   87 1    
    51   26   88 1    
    52   26   89 1    
    53   26   90 1    
    54   27   28 am   BACKBONE|DICT|INTERRES
    55   27   91 1    
    56   28   29 2    
    57   28   30 1    
    58   30   31 1    
    59   30   32 1    
    60   30   92 1    
    61   31   93 1    
    62   31   94 1    
    63   31   95 1    
    64   32   33 am   BACKBONE|DICT|INTERRES
    65   32   96 1    
    66   33   34 2    
    67   33   35 1    
    68   35   36 1    
    69   35   37 1    
    70   35   97 1    
    71   36   98 1    
    72   36   99 1    
    73   36  100 1    
    74   37   38 am   BACKBONE|DICT|INTERRES
    75   37  101 1    
    76   38   39 2    
    77   38   40 1    
    78   40   41 1    
    79   40   42 1    
    80   40  102 1    
    81   41  103 1    
    82   41  104 1    
    83   41  105 1    
    84   42   43 am   BACKBONE|DICT|INTERRES
    85   42  106 1    
    86   43   44 2    
    87   43   45 1    
    88   45   46 1    
    89   45   49 1    
    90   45  107 1    
    91   46   47 1    
    92   46  108 1    
    93   46  109 1    
    94   47   48 1    
    95   48  110 1    
    96   48  111 1    
    97   49   50 am   BACKBONE|DICT|INTERRES
    98   49  112 1    
    99   50   51 2    
   100   50   52 1    
   101   52   53 1    
   102   52   54 1    
   103   52  113 1    
   104   53  114 1    
   105   53  115 1    
   106   53  116 1    
   107   54   55 am   BACKBONE|DICT|INTERRES
   108   54  117 1    
   109   55   56 2    
   110   55   57 1    
   111   57   58 1    
   112   57   59 1    
   113   57  118 1    
   114   58  119 1    
   115   58  120 1    
   116   58  121 1    
   117   59   60 am   BACKBONE|DICT|INTERRES
   118   59  122 1    
   119   60   61 2    
   120   60   62 1    
   121   62   63 1    
   122   62   64 1    
   123   62  123 1    
   124   63  124 1    
   125   63  125 1    
   126   63  126 1    
   127   64   65 am   BACKBONE|DICT|INTERRES
   128   64  127 1    
   129   65   66 2    
@<TRIPOS>SUBSTRUCTURE
     1 UNK         1 GROUP             0       ****    0 ROOT    
