@<TRIPOS>MOLECULE
3R134
127   129    1
SMALL
USER_CHARGES


@<TRIPOS>ATOM
      1 CA         35.0692  -47.6311  -57.1671 C.3       0 UNK        -0.1968 
      2 C          34.3222  -47.3013  -55.8845 C.2       0 UNK         0.4852 
      3 O          33.5072  -48.1041  -55.4363 O.2       0 UNK        -0.5359 
      4 N          34.6051  -46.1375  -55.2832 N.am      1 UNK        -0.4300 
      5 CA         33.9810  -45.5917  -54.0672 C.3       1 UNK         0.0863 
      6 C6         34.7052  -44.2812  -53.6600 C.3       11 UNK        -0.0953 
      7 S7         33.9098  -43.3244  -52.3265 S.3       11 UNK        -0.2369 
      8 C8         32.9531  -42.0899  -53.2636 C.3       11 UNK         0.0226 
      9 C9         31.6526  -42.6825  -53.7802 C.ar      11 UNK        -0.0699 
     10 C10        30.6171  -42.9526  -52.8801 C.ar      11 UNK        -0.0804 
     11 C11        29.4279  -43.5327  -53.3231 C.ar      11 UNK        -0.0871 
     12 C12        29.2780  -43.8260  -54.6793 C.ar      11 UNK        -0.1008 
     13 C13        30.2957  -43.5563  -55.5943 C.ar      11 UNK        -0.0735 
     14 C14        31.4859  -42.9790  -55.1386 C.ar      11 UNK        -0.0945 
     15 C15        30.1372  -43.9742  -57.0508 C.3       11 UNK         0.0169 
     16 S16        29.7991  -42.5898  -58.1891 S.3       11 UNK        -0.2669 
     17 C17        28.0264  -42.1055  -58.0908 C.3       11 UNK        -0.0850 
     18 CA         27.0033  -42.9492  -57.2630 C.3       10 UNK         0.0855 
     19 C          25.5905  -42.2904  -57.1376 C.2       10 UNK         0.5543 
     20 N          25.4782  -40.9695  -57.2006 N.am      10 UNK        -0.7343 
     21 O          24.5869  -42.9666  -56.9186 O.2       10 UNK        -0.5027 
     22 N          26.9236  -44.3645  -57.6748 N.am      10 UNK        -0.4495 
     23 C          26.4500  -44.8180  -58.8442 C.2       10 UNK         0.4903 
     24 O          26.0894  -44.0872  -59.7679 O.2       10 UNK        -0.4860 
     25 CA         26.3585  -46.3424  -59.0356 C.3       9 UNK         0.0227 
     26 CB         27.4715  -46.8266  -59.9763 C.3       9 UNK        -0.1964 
     27 N          26.4109  -47.0970  -57.7755 N.am      9 UNK        -0.4231 
     28 C          25.3318  -47.4698  -57.0722 C.2       9 UNK         0.5014 
     29 O          24.1765  -47.2053  -57.4127 O.2       9 UNK        -0.5270 
     30 CA         25.5817  -48.2653  -55.7701 C.3       8 UNK         0.0284 
     31 CB         24.2910  -48.8629  -55.1712 C.3       8 UNK        -0.1977 
     32 N          26.6131  -49.3042  -55.8903 N.am      8 UNK        -0.4342 
     33 C          26.6600  -50.3302  -56.7533 C.2       8 UNK         0.5039 
     34 O          25.7807  -50.5825  -57.5797 O.2       8 UNK        -0.5547 
     35 CA         27.9264  -51.2111  -56.6722 C.3       7 UNK         0.0281 
     36 CB         28.0065  -52.2690  -57.7931 C.3       7 UNK        -0.1963 
     37 N          29.1551  -50.4078  -56.6203 N.am      7 UNK        -0.4444 
     38 C          29.5710  -49.5043  -57.5206 C.2       7 UNK         0.5104 
     39 O          29.0411  -49.3252  -58.6167 O.2       7 UNK        -0.5100 
     40 CA         30.7538  -48.6196  -57.0833 C.3       6 UNK         0.0396 
     41 CB         31.0572  -47.4724  -58.0674 C.3       6 UNK        -0.1801 
     42 N          30.5821  -48.0998  -55.7211 N.am      6 UNK        -0.4747 
     43 C          29.5584  -47.3744  -55.2409 C.2       6 UNK         0.5012 
     44 O          28.6359  -46.9540  -55.9425 O.2       6 UNK        -0.5003 
     45 CA         29.5581  -47.1164  -53.7136 C.3       5 UNK         0.0782 
     46 C46        28.2078  -46.5615  -53.1611 C.3       11 UNK        -0.0868 
     47 S47        28.4769  -45.5511  -51.6676 S.3       11 UNK        -0.2515 
     48 C48        28.3141  -43.8631  -52.3387 C.3       11 UNK         0.0199 
     49 N          30.0083  -48.3014  -52.9690 N.am      5 UNK        -0.4607 
     50 C          29.3801  -49.4875  -52.9528 C.2       4 UNK         0.5031 
     51 O          28.3463  -49.7204  -53.5838 O.2       4 UNK        -0.5119 
     52 CA         30.0497  -50.6072  -52.1348 C.3       4 UNK         0.0263 
     53 CB         29.2943  -51.9499  -52.2345 C.3       4 UNK        -0.1967 
     54 N          31.4614  -50.7905  -52.4904 N.am      4 UNK        -0.4237 
     55 C          31.9678  -51.0258  -53.7099 C.2       3 UNK         0.4908 
     56 O          31.2862  -51.1204  -54.7328 O.2       3 UNK        -0.5102 
     57 CA         33.4996  -51.1451  -53.7854 C.3       3 UNK         0.0241 
     58 CB         34.0057  -51.4360  -55.2115 C.3       3 UNK        -0.1971 
     59 N          34.1423  -49.9284  -53.2800 N.am      3 UNK        -0.4139 
     60 C          34.4105  -49.6795  -51.9900 C.2       2 UNK         0.5016 
     61 O          34.1043  -50.4535  -51.0817 O.2       2 UNK        -0.5319 
     62 CA         35.1216  -48.3604  -51.6326 C.3       2 UNK         0.0286 
     63 CB         36.6095  -48.6189  -51.3454 C.3       2 UNK        -0.1963 
     64 N          35.0103  -47.3207  -52.6585 N.am      2 UNK        -0.4790 
     65 C          33.9003  -46.6095  -52.9039 C.2       1 UNK         0.5024 
     66 O          32.8384  -46.7712  -52.2992 O.2       1 UNK        -0.4888 
     67 H67        35.6613  -48.5357  -57.0315 H         1 UNK         0.0892 
     68 H68        34.3614  -47.8071  -57.9765 H         1 UNK         0.0892 
     69 H69        35.7390  -46.8266  -57.4698 H         1 UNK         0.0892 
     70 H70        35.2991  -45.5398  -55.7088 H         1 UNK         0.3107 
     71 H71        32.9528  -45.3447  -54.3377 H         1 UNK         0.0773 
     72 H72        35.7270  -44.4993  -53.3440 H         1 UNK         0.0680 
     73 H73        34.8045  -43.6295  -54.5293 H         1 UNK         0.0680 
     74 H74        32.7254  -41.2509  -52.6046 H         1 UNK         0.0650 
     75 H75        33.5548  -41.6824  -54.0773 H         1 UNK         0.0650 
     76 H76        30.7498  -42.7338  -51.8291 H         1 UNK         0.1397 
     77 H77        28.3767  -44.3070  -55.0202 H         1 UNK         0.1363 
     78 H78        32.2878  -42.7836  -55.8373 H         1 UNK         0.1355 
     79 H79        29.3879  -44.7528  -57.1617 H         1 UNK         0.0707 
     80 H80        31.0715  -44.4377  -57.3698 H         1 UNK         0.0707 
     81 H81        27.6656  -42.0075  -59.1160 H         1 UNK         0.1034 
     82 H82        28.0518  -41.0872  -57.7020 H         1 UNK         0.1034 
     83 H83        27.3499  -42.9421  -56.2369 H         1 UNK         0.0482 
     84 H84        26.2786  -40.3762  -57.3478 H         1 UNK         0.3460 
     85 H85        24.5649  -40.5557  -57.0952 H         1 UNK         0.3460 
     86 H86        27.1645  -45.0473  -56.9718 H         1 UNK         0.2989 
     87 H87        25.4078  -46.5435  -59.5338 H         1 UNK         0.0559 
     88 H88        27.3798  -47.8933  -60.1805 H         1 UNK         0.0848 
     89 H89        27.4256  -46.3103  -60.9361 H         1 UNK         0.0848 
     90 H90        28.4608  -46.6467  -59.5594 H         1 UNK         0.0848 
     91 H91        27.3282  -47.3128  -57.3943 H         1 UNK         0.3144 
     92 H92        25.9680  -47.5423  -55.0511 H         1 UNK         0.0727 
     93 H93        24.4919  -49.3763  -54.2308 H         1 UNK         0.0790 
     94 H94        23.8250  -49.5771  -55.8509 H         1 UNK         0.0790 
     95 H95        23.5570  -48.0835  -54.9628 H         1 UNK         0.0790 
     96 H96        27.3745  -49.2393  -55.2186 H         1 UNK         0.3215 
     97 H97        27.8692  -51.7414  -55.7201 H         1 UNK         0.0863 
     98 H98        28.9005  -52.8845  -57.6937 H         1 UNK         0.0808 
     99 H99        28.0213  -51.8116  -58.7828 H         1 UNK         0.0808 
    100 H100       27.1462  -52.9384  -57.7583 H         1 UNK         0.0808 
    101 H101       29.7112  -50.5054  -55.7736 H         1 UNK         0.3118 
    102 H102       31.6273  -49.2725  -57.0569 H         1 UNK         0.0546 
    103 H103       30.2204  -46.7824  -58.1489 H         1 UNK         0.0828 
    104 H104       31.2642  -47.8566  -59.0666 H         1 UNK         0.0828 
    105 H105       31.9286  -46.9005  -57.7518 H         1 UNK         0.0828 
    106 H106       31.3198  -48.3737  -55.0828 H         1 UNK         0.3005 
    107 H107       30.3256  -46.3530  -53.5714 H         1 UNK         0.1257 
    108 H108       27.6575  -45.9666  -53.8862 H         1 UNK         0.0775 
    109 H109       27.5189  -47.3661  -52.9043 H         1 UNK         0.0775 
    110 H110       27.3389  -43.7496  -52.8150 H         1 UNK         0.0840 
    111 H111       28.3285  -43.1529  -51.5105 H         1 UNK         0.0840 
    112 H112       30.8687  -48.1881  -52.4486 H         1 UNK         0.2987 
    113 H113       30.0248  -50.2868  -51.0922 H         1 UNK         0.0785 
    114 H114       29.7623  -52.7152  -51.6156 H         1 UNK         0.0798 
    115 H115       29.2613  -52.3217  -53.2593 H         1 UNK         0.0798 
    116 H116       28.2633  -51.8441  -51.8943 H         1 UNK         0.0798 
    117 H117       32.1286  -50.7111  -51.7292 H         1 UNK         0.3079 
    118 H118       33.7888  -51.9915  -53.1587 H         1 UNK         0.0794 
    119 H119       33.5971  -52.3763  -55.5836 H         1 UNK         0.0786 
    120 H120       35.0919  -51.5221  -55.2377 H         1 UNK         0.0786 
    121 H121       33.7139  -50.6570  -55.9160 H         1 UNK         0.0786 
    122 H122       34.2842  -49.1908  -53.9630 H         1 UNK         0.3032 
    123 H123       34.6580  -47.9865  -50.7165 H         1 UNK         0.1094 
    124 H124       36.7319  -49.3664  -50.5600 H         1 UNK         0.0794 
    125 H125       37.1342  -48.9860  -52.2285 H         1 UNK         0.0794 
    126 H126       37.1122  -47.7126  -51.0069 H         1 UNK         0.0794 
    127 H127       35.8294  -47.1442  -53.2226 H         1 UNK         0.3016 
@<TRIPOS>BOND
     1    1    2 1    
     2    1   67 1    
     3    1   68 1    
     4    1   69 1    
     5    2    3 2    
     6    2    4 am   BACKBONE|DICT|INTERRES
     7    4    5 1    
     8    4   70 1    
     9    5    6 1    
    10    5   65 1    
    11    5   71 1    
    12    6    7 1    
    13    6   72 1    
    14    6   73 1    
    15    7    8 1    
    16    8    9 1    
    17    8   74 1    
    18    8   75 1    
    19    9   10 ar   
    20    9   14 ar   
    21   10   11 ar   
    22   10   76 1    
    23   11   12 ar   
    24   11   48 1    
    25   12   13 ar   
    26   12   77 1    
    27   13   14 ar   
    28   13   15 1    
    29   14   78 1    
    30   15   16 1    
    31   15   79 1    
    32   15   80 1    
    33   16   17 1    
    34   17   18 1    
    35   17   81 1    
    36   17   82 1    
    37   18   19 1    
    38   18   22 1    
    39   18   83 1    
    40   19   20 am   BACKBONE|DICT|INTERRES
    41   19   21 2    
    42   20   84 1    
    43   20   85 1    
    44   22   23 am   BACKBONE|DICT|INTERRES
    45   22   86 1    
    46   23   24 2    
    47   23   25 1    
    48   25   26 1    
    49   25   27 1    
    50   25   87 1    
    51   26   88 1    
    52   26   89 1    
    53   26   90 1    
    54   27   28 am   BACKBONE|DICT|INTERRES
    55   27   91 1    
    56   28   29 2    
    57   28   30 1    
    58   30   31 1    
    59   30   32 1    
    60   30   92 1    
    61   31   93 1    
    62   31   94 1    
    63   31   95 1    
    64   32   33 am   BACKBONE|DICT|INTERRES
    65   32   96 1    
    66   33   34 2    
    67   33   35 1    
    68   35   36 1    
    69   35   37 1    
    70   35   97 1    
    71   36   98 1    
    72   36   99 1    
    73   36  100 1    
    74   37   38 am   BACKBONE|DICT|INTERRES
    75   37  101 1    
    76   38   39 2    
    77   38   40 1    
    78   40   41 1    
    79   40   42 1    
    80   40  102 1    
    81   41  103 1    
    82   41  104 1    
    83   41  105 1    
    84   42   43 am   BACKBONE|DICT|INTERRES
    85   42  106 1    
    86   43   44 2    
    87   43   45 1    
    88   45   46 1    
    89   45   49 1    
    90   45  107 1    
    91   46   47 1    
    92   46  108 1    
    93   46  109 1    
    94   47   48 1    
    95   48  110 1    
    96   48  111 1    
    97   49   50 am   BACKBONE|DICT|INTERRES
    98   49  112 1    
    99   50   51 2    
   100   50   52 1    
   101   52   53 1    
   102   52   54 1    
   103   52  113 1    
   104   53  114 1    
   105   53  115 1    
   106   53  116 1    
   107   54   55 am   BACKBONE|DICT|INTERRES
   108   54  117 1    
   109   55   56 2    
   110   55   57 1    
   111   57   58 1    
   112   57   59 1    
   113   57  118 1    
   114   58  119 1    
   115   58  120 1    
   116   58  121 1    
   117   59   60 am   BACKBONE|DICT|INTERRES
   118   59  122 1    
   119   60   61 2    
   120   60   62 1    
   121   62   63 1    
   122   62   64 1    
   123   62  123 1    
   124   63  124 1    
   125   63  125 1    
   126   63  126 1    
   127   64   65 am   BACKBONE|DICT|INTERRES
   128   64  127 1    
   129   65   66 2    
@<TRIPOS>SUBSTRUCTURE
     1 UNK         1 GROUP             0       ****    0 ROOT    
