@<TRIPOS>MOLECULE
3R134
127   129    1
SMALL
USER_CHARGES


@<TRIPOS>ATOM
      1 CA         38.2872  -42.0671  -52.9748 C.3       0 UNK        -0.1968 
      2 C          37.7321  -43.4770  -53.1169 C.2       0 UNK         0.4852 
      3 O          38.2688  -44.4080  -52.5139 O.2       0 UNK        -0.5359 
      4 N          36.6691  -43.6414  -53.9153 N.am      1 UNK        -0.4300 
      5 CA         35.9599  -44.9078  -54.1134 C.3       1 UNK         0.0863 
      6 C6         35.0915  -44.8558  -55.3961 C.3       11 UNK        -0.0953 
      7 S7         34.4856  -46.5018  -55.9080 S.3       11 UNK        -0.2369 
      8 C8         32.8885  -46.1076  -56.7014 C.3       11 UNK         0.0226 
      9 C9         31.9087  -45.3289  -55.8254 C.ar      11 UNK        -0.0699 
     10 C10        31.7853  -45.5844  -54.4546 C.ar      11 UNK        -0.0804 
     11 C11        30.8780  -44.8612  -53.6732 C.ar      11 UNK        -0.0871 
     12 C12        30.0915  -43.8749  -54.2714 C.ar      11 UNK        -0.1008 
     13 C13        30.1838  -43.6260  -55.6427 C.ar      11 UNK        -0.0735 
     14 C14        31.0992  -44.3499  -56.4111 C.ar      11 UNK        -0.0945 
     15 C15        29.2924  -42.5757  -56.2913 C.3       11 UNK         0.0169 
     16 S16        27.7338  -43.2912  -56.9080 S.3       11 UNK        -0.2669 
     17 C17        26.9521  -43.8272  -55.3466 C.3       11 UNK        -0.0850 
     18 CA         25.4497  -44.2090  -55.4498 C.3       10 UNK         0.0855 
     19 C          24.4387  -43.0247  -55.5078 C.2       10 UNK         0.5543 
     20 N          24.8809  -41.8042  -55.7801 N.am      10 UNK        -0.7343 
     21 O          23.2528  -43.2071  -55.2398 O.2       10 UNK        -0.5027 
     22 N          25.2221  -45.3306  -56.3768 N.am      10 UNK        -0.4495 
     23 C          24.6284  -45.3448  -57.5797 C.2       10 UNK         0.4903 
     24 O          24.1332  -44.3694  -58.1468 O.2       10 UNK        -0.4860 
     25 CA         24.6144  -46.7210  -58.2682 C.3       9 UNK         0.0227 
     26 CB         23.8145  -46.7448  -59.5886 C.3       9 UNK        -0.1964 
     27 N          25.9736  -47.2362  -58.4565 N.am      9 UNK        -0.4231 
     28 C          26.9563  -46.7189  -59.2114 C.2       9 UNK         0.5014 
     29 O          26.8284  -45.7321  -59.9372 O.2       9 UNK        -0.5270 
     30 CA         28.3278  -47.4205  -59.1555 C.3       8 UNK         0.0284 
     31 CB         29.3172  -46.5848  -58.3288 C.3       8 UNK        -0.1977 
     32 N          28.2777  -48.7754  -58.6010 N.am      8 UNK        -0.4342 
     33 C          27.7157  -49.8371  -59.1941 C.2       8 UNK         0.5039 
     34 O          27.2403  -49.8202  -60.3298 O.2       8 UNK        -0.5547 
     35 CA         27.6325  -51.1228  -58.3558 C.3       7 UNK         0.0281 
     36 CB         28.9344  -51.9341  -58.4631 C.3       7 UNK        -0.1963 
     37 N          27.3355  -50.8436  -56.9470 N.am      7 UNK        -0.4444 
     38 C          26.1446  -50.4334  -56.4868 C.2       7 UNK         0.5104 
     39 O          25.1548  -50.2686  -57.1989 O.2       7 UNK        -0.5100 
     40 CA         26.0472  -50.1278  -54.9823 C.3       6 UNK         0.0396 
     41 CB         25.7786  -51.4139  -54.1855 C.3       6 UNK        -0.1801 
     42 N          27.2467  -49.4696  -54.4603 N.am      6 UNK        -0.4747 
     43 C          27.5989  -48.2043  -54.7336 C.2       6 UNK         0.5012 
     44 O          26.9201  -47.4422  -55.4226 O.2       6 UNK        -0.5003 
     45 CA         28.9527  -47.7281  -54.1668 C.3       5 UNK         0.0782 
     46 C46        28.7699  -47.1298  -52.7432 C.3       11 UNK        -0.0868 
     47 S47        30.3383  -46.8805  -51.8307 S.3       11 UNK        -0.2515 
     48 C48        30.7374  -45.1390  -52.1833 C.3       11 UNK         0.0199 
     49 N          29.9824  -48.7727  -54.1956 N.am      5 UNK        -0.4607 
     50 C          30.4223  -49.4436  -55.2663 C.2       4 UNK         0.5031 
     51 O          29.9428  -49.3016  -56.3900 O.2       4 UNK        -0.5119 
     52 CA         31.5814  -50.4407  -55.0629 C.3       4 UNK         0.0263 
     53 CB         32.6775  -50.2365  -56.1224 C.3       4 UNK        -0.1967 
     54 N          32.1966  -50.3738  -53.7332 N.am      4 UNK        -0.4237 
     55 C          31.6940  -50.8732  -52.5983 C.2       3 UNK         0.4908 
     56 O          30.6316  -51.4923  -52.5443 O.2       3 UNK        -0.5102 
     57 CA         32.4727  -50.6002  -51.2965 C.3       3 UNK         0.0241 
     58 CB         33.5761  -51.6547  -51.0818 C.3       3 UNK        -0.1971 
     59 N          32.9987  -49.2293  -51.1581 N.am      3 UNK        -0.4139 
     60 C          33.9503  -48.6184  -51.8787 C.2       2 UNK         0.5016 
     61 O          34.5383  -49.1414  -52.8306 O.2       2 UNK        -0.5319 
     62 CA         34.2985  -47.1791  -51.4778 C.3       2 UNK         0.0286 
     63 CB         35.1314  -47.1428  -50.1835 C.3       2 UNK        -0.1963 
     64 N          35.0558  -46.5770  -52.5697 N.am      2 UNK        -0.4790 
     65 C          35.1389  -45.2748  -52.8558 C.2       1 UNK         0.5024 
     66 O          34.5912  -44.3909  -52.1919 O.2       1 UNK        -0.4888 
     67 H67        38.2438  -41.7506  -51.9330 H         1 UNK         0.0892 
     68 H68        37.7285  -41.3461  -53.5714 H         1 UNK         0.0892 
     69 H69        39.3278  -42.0391  -53.2969 H         1 UNK         0.0892 
     70 H70        36.2529  -42.8339  -54.3563 H         1 UNK         0.3107 
     71 H71        36.7201  -45.6796  -54.2564 H         1 UNK         0.0773 
     72 H72        35.6792  -44.4627  -56.2271 H         1 UNK         0.0680 
     73 H73        34.2597  -44.1624  -55.2641 H         1 UNK         0.0680 
     74 H74        33.0967  -45.5548  -57.6187 H         1 UNK         0.0650 
     75 H75        32.4130  -47.0412  -57.0036 H         1 UNK         0.0650 
     76 H76        32.3896  -46.3520  -53.9925 H         1 UNK         0.1397 
     77 H77        29.3919  -43.3089  -53.6720 H         1 UNK         0.1363 
     78 H78        31.1728  -44.1546  -57.4721 H         1 UNK         0.1355 
     79 H79        29.8183  -42.1084  -57.1253 H         1 UNK         0.0707 
     80 H80        29.0722  -41.7739  -55.5848 H         1 UNK         0.0707 
     81 H81        27.0951  -43.0600  -54.5838 H         1 UNK         0.1034 
     82 H82        27.5055  -44.6978  -54.9922 H         1 UNK         0.1034 
     83 H83        25.2228  -44.6563  -54.4809 H         1 UNK         0.0482 
     84 H84        25.8470  -41.6620  -56.0324 H         1 UNK         0.3460 
     85 H85        24.2321  -41.0333  -55.7979 H         1 UNK         0.3460 
     86 H86        25.6436  -46.2016  -56.0654 H         1 UNK         0.2989 
     87 H87        24.1224  -47.4094  -57.5792 H         1 UNK         0.0559 
     88 H88        23.8085  -47.7417  -60.0294 H         1 UNK         0.0848 
     89 H89        24.2211  -46.0539  -60.3275 H         1 UNK         0.0848 
     90 H90        22.7761  -46.4589  -59.4173 H         1 UNK         0.0848 
     91 H91        26.2114  -48.0379  -57.8888 H         1 UNK         0.3144 
     92 H92        28.7039  -47.4882  -60.1782 H         1 UNK         0.0727 
     93 H93        30.3092  -47.0357  -58.3209 H         1 UNK         0.0790 
     94 H94        28.9876  -46.4778  -57.2946 H         1 UNK         0.0790 
     95 H95        29.4185  -45.5800  -58.7409 H         1 UNK         0.0790 
     96 H96        28.7340  -48.9159  -57.7001 H         1 UNK         0.3215 
     97 H97        26.8199  -51.7305  -58.7607 H         1 UNK         0.0863 
     98 H98        28.8635  -52.8731  -57.9140 H         1 UNK         0.0808 
     99 H99        29.7929  -51.3833  -58.0777 H         1 UNK         0.0808 
    100 H100       29.1504  -52.1837  -59.5028 H         1 UNK         0.0808 
    101 H101       28.1099  -50.8911  -56.3010 H         1 UNK         0.3118 
    102 H102       25.1990  -49.4557  -54.8339 H         1 UNK         0.0546 
    103 H103       25.6274  -51.2005  -53.1273 H         1 UNK         0.0828 
    104 H104       26.6012  -52.1251  -54.2706 H         1 UNK         0.0828 
    105 H105       24.8778  -51.9136  -54.5449 H         1 UNK         0.0828 
    106 H106       27.8653  -50.0243  -53.8850 H         1 UNK         0.3005 
    107 H107       29.2998  -46.9336  -54.8300 H         1 UNK         0.1257 
    108 H108       28.1580  -47.7918  -52.1270 H         1 UNK         0.0775 
    109 H109       28.2268  -46.1843  -52.7957 H         1 UNK         0.0775 
    110 H110       29.9683  -44.5070  -51.7365 H         1 UNK         0.0840 
    111 H111       31.6729  -44.8779  -51.6870 H         1 UNK         0.0840 
    112 H112       30.4361  -48.9480  -53.3116 H         1 UNK         0.2987 
    113 H113       31.1626  -51.4399  -55.1977 H         1 UNK         0.0785 
    114 H114       33.1440  -49.2556  -56.0315 H         1 UNK         0.0798 
    115 H115       32.2742  -50.3153  -57.1330 H         1 UNK         0.0798 
    116 H116       33.4615  -50.9883  -56.0305 H         1 UNK         0.0798 
    117 H117       33.0887  -49.8867  -53.6605 H         1 UNK         0.3079 
    118 H118       31.7547  -50.7161  -50.4827 H         1 UNK         0.0794 
    119 H119       34.3335  -51.6221  -51.8656 H         1 UNK         0.0786 
    120 H120       33.1563  -52.6616  -51.0812 H         1 UNK         0.0786 
    121 H121       34.0784  -51.5131  -50.1249 H         1 UNK         0.0786 
    122 H122       32.5607  -48.6901  -50.4233 H         1 UNK         0.3032 
    123 H123       33.3689  -46.6252  -51.3348 H         1 UNK         0.1094 
    124 H124       36.0658  -47.6951  -50.2921 H         1 UNK         0.0794 
    125 H125       35.3801  -46.1198  -49.9002 H         1 UNK         0.0794 
    126 H126       34.5855  -47.5835  -49.3486 H         1 UNK         0.0794 
    127 H127       35.4596  -47.2585  -53.2031 H         1 UNK         0.3016 
@<TRIPOS>BOND
     1    1    2 1    
     2    1   67 1    
     3    1   68 1    
     4    1   69 1    
     5    2    3 2    
     6    2    4 am   BACKBONE|DICT|INTERRES
     7    4    5 1    
     8    4   70 1    
     9    5    6 1    
    10    5   65 1    
    11    5   71 1    
    12    6    7 1    
    13    6   72 1    
    14    6   73 1    
    15    7    8 1    
    16    8    9 1    
    17    8   74 1    
    18    8   75 1    
    19    9   10 ar   
    20    9   14 ar   
    21   10   11 ar   
    22   10   76 1    
    23   11   12 ar   
    24   11   48 1    
    25   12   13 ar   
    26   12   77 1    
    27   13   14 ar   
    28   13   15 1    
    29   14   78 1    
    30   15   16 1    
    31   15   79 1    
    32   15   80 1    
    33   16   17 1    
    34   17   18 1    
    35   17   81 1    
    36   17   82 1    
    37   18   19 1    
    38   18   22 1    
    39   18   83 1    
    40   19   20 am   BACKBONE|DICT|INTERRES
    41   19   21 2    
    42   20   84 1    
    43   20   85 1    
    44   22   23 am   BACKBONE|DICT|INTERRES
    45   22   86 1    
    46   23   24 2    
    47   23   25 1    
    48   25   26 1    
    49   25   27 1    
    50   25   87 1    
    51   26   88 1    
    52   26   89 1    
    53   26   90 1    
    54   27   28 am   BACKBONE|DICT|INTERRES
    55   27   91 1    
    56   28   29 2    
    57   28   30 1    
    58   30   31 1    
    59   30   32 1    
    60   30   92 1    
    61   31   93 1    
    62   31   94 1    
    63   31   95 1    
    64   32   33 am   BACKBONE|DICT|INTERRES
    65   32   96 1    
    66   33   34 2    
    67   33   35 1    
    68   35   36 1    
    69   35   37 1    
    70   35   97 1    
    71   36   98 1    
    72   36   99 1    
    73   36  100 1    
    74   37   38 am   BACKBONE|DICT|INTERRES
    75   37  101 1    
    76   38   39 2    
    77   38   40 1    
    78   40   41 1    
    79   40   42 1    
    80   40  102 1    
    81   41  103 1    
    82   41  104 1    
    83   41  105 1    
    84   42   43 am   BACKBONE|DICT|INTERRES
    85   42  106 1    
    86   43   44 2    
    87   43   45 1    
    88   45   46 1    
    89   45   49 1    
    90   45  107 1    
    91   46   47 1    
    92   46  108 1    
    93   46  109 1    
    94   47   48 1    
    95   48  110 1    
    96   48  111 1    
    97   49   50 am   BACKBONE|DICT|INTERRES
    98   49  112 1    
    99   50   51 2    
   100   50   52 1    
   101   52   53 1    
   102   52   54 1    
   103   52  113 1    
   104   53  114 1    
   105   53  115 1    
   106   53  116 1    
   107   54   55 am   BACKBONE|DICT|INTERRES
   108   54  117 1    
   109   55   56 2    
   110   55   57 1    
   111   57   58 1    
   112   57   59 1    
   113   57  118 1    
   114   58  119 1    
   115   58  120 1    
   116   58  121 1    
   117   59   60 am   BACKBONE|DICT|INTERRES
   118   59  122 1    
   119   60   61 2    
   120   60   62 1    
   121   62   63 1    
   122   62   64 1    
   123   62  123 1    
   124   63  124 1    
   125   63  125 1    
   126   63  126 1    
   127   64   65 am   BACKBONE|DICT|INTERRES
   128   64  127 1    
   129   65   66 2    
@<TRIPOS>SUBSTRUCTURE
     1 UNK         1 GROUP             0       ****    0 ROOT    
