@<TRIPOS>MOLECULE
3R134
127   129    1
SMALL
USER_CHARGES


@<TRIPOS>ATOM
      1 CA         37.7504  -43.5006  -52.5042 C.3       0 UNK        -0.1968 
      2 C          36.3289  -43.6693  -51.9879 C.2       0 UNK         0.4852 
      3 O          36.1279  -43.7288  -50.7742 O.2       0 UNK        -0.5359 
      4 N          35.3519  -43.7489  -52.9038 N.am      1 UNK        -0.4300 
      5 CA         33.9118  -43.8975  -52.6395 C.3       1 UNK         0.0863 
      6 C6         33.2693  -42.6386  -51.9934 C.3       11 UNK        -0.0953 
      7 S7         33.2788  -41.2320  -53.1565 S.3       11 UNK        -0.2369 
      8 C8         31.5681  -41.2577  -53.7892 C.3       11 UNK         0.0226 
      9 C9         31.2271  -42.5667  -54.4912 C.ar      11 UNK        -0.0699 
     10 C10        30.4912  -43.5505  -53.8224 C.ar      11 UNK        -0.0804 
     11 C11        30.1840  -44.7581  -54.4537 C.ar      11 UNK        -0.0871 
     12 C12        30.6196  -44.9833  -55.7607 C.ar      11 UNK        -0.1008 
     13 C13        31.3273  -43.9963  -56.4523 C.ar      11 UNK        -0.0735 
     14 C14        31.6365  -42.7920  -55.8099 C.ar      11 UNK        -0.0945 
     15 C15        31.7174  -44.2222  -57.9061 C.3       11 UNK         0.0169 
     16 S16        30.2564  -44.4754  -58.9689 S.3       11 UNK        -0.2669 
     17 C17        29.3805  -42.8827  -58.7881 C.3       11 UNK        -0.0850 
     18 CA         28.2684  -42.8984  -57.7029 C.3       10 UNK         0.0855 
     19 C          27.6163  -41.4922  -57.5992 C.2       10 UNK         0.5543 
     20 N          28.0951  -40.6525  -56.6916 N.am      10 UNK        -0.7343 
     21 O          26.7205  -41.1439  -58.3662 O.2       10 UNK        -0.5027 
     22 N          27.2977  -43.9815  -57.9294 N.am      10 UNK        -0.4495 
     23 C          26.2504  -44.2693  -57.1432 C.2       10 UNK         0.4903 
     24 O          25.9894  -43.6847  -56.0914 O.2       10 UNK        -0.4860 
     25 CA         25.3373  -45.4166  -57.6069 C.3       9 UNK         0.0227 
     26 CB         24.3269  -44.9144  -58.6518 C.3       9 UNK        -0.1964 
     27 N          26.0879  -46.5510  -58.1517 N.am      9 UNK        -0.4231 
     28 C          26.7581  -47.4366  -57.4033 C.2       9 UNK         0.5014 
     29 O          26.8039  -47.4072  -56.1722 O.2       9 UNK        -0.5270 
     30 CA         27.5297  -48.5280  -58.1594 C.3       8 UNK         0.0284 
     31 CB         29.0431  -48.2920  -58.0406 C.3       8 UNK        -0.1977 
     32 N          27.2065  -49.8631  -57.6536 N.am      8 UNK        -0.4342 
     33 C          26.0503  -50.5023  -57.8810 C.2       8 UNK         0.5039 
     34 O          25.1283  -50.0246  -58.5440 O.2       8 UNK        -0.5547 
     35 CA         25.8917  -51.9145  -57.2963 C.3       7 UNK         0.0281 
     36 CB         26.6444  -52.9415  -58.1593 C.3       7 UNK        -0.1963 
     37 N          26.3825  -51.9897  -55.9200 N.am      7 UNK        -0.4444 
     38 C          25.6423  -52.3137  -54.8494 C.2       7 UNK         0.5104 
     39 O          24.4496  -52.6161  -54.9042 O.2       7 UNK        -0.5100 
     40 CA         26.3457  -52.3065  -53.4753 C.3       6 UNK         0.0396 
     41 CB         26.7917  -53.7273  -53.0952 C.3       6 UNK        -0.1801 
     42 N          27.5047  -51.4120  -53.4327 N.am      6 UNK        -0.4747 
     43 C          27.4331  -50.0751  -53.5050 C.2       6 UNK         0.5012 
     44 O          26.3743  -49.4553  -53.4032 O.2       6 UNK        -0.5003 
     45 CA         28.7406  -49.2963  -53.7745 C.3       5 UNK         0.0782 
     46 C46        29.0670  -48.3262  -52.6145 C.3       11 UNK        -0.0868 
     47 S47        30.3746  -47.1509  -53.0902 S.3       11 UNK        -0.2515 
     48 C48        29.3446  -45.8064  -53.7469 C.3       11 UNK         0.0199 
     49 N          29.9023  -50.1302  -54.1218 N.am      5 UNK        -0.4607 
     50 C          30.0244  -50.9013  -55.2093 C.2       4 UNK         0.5031 
     51 O          29.1091  -51.0910  -56.0128 O.2       4 UNK        -0.5119 
     52 CA         31.3952  -51.5720  -55.4105 C.3       4 UNK         0.0263 
     53 CB         31.4847  -52.3591  -56.7357 C.3       4 UNK        -0.1967 
     54 N          32.5051  -50.6165  -55.2875 N.am      4 UNK        -0.4237 
     55 C          32.7285  -49.5316  -56.0440 C.2       3 UNK         0.4908 
     56 O          32.0084  -49.1785  -56.9777 O.2       3 UNK        -0.5102 
     57 CA         33.9727  -48.7006  -55.6845 C.3       3 UNK         0.0241 
     58 CB         34.2918  -47.6281  -56.7436 C.3       3 UNK        -0.1971 
     59 N          33.8341  -48.0410  -54.3864 N.am      3 UNK        -0.4139 
     60 C          34.0041  -48.6153  -53.1869 C.2       2 UNK         0.5016 
     61 O          34.2118  -49.8217  -53.0413 O.2       2 UNK        -0.5319 
     62 CA         33.9631  -47.6863  -51.9577 C.3       2 UNK         0.0286 
     63 CB         34.9648  -48.1119  -50.8681 C.3       2 UNK        -0.1963 
     64 N          34.2322  -46.3003  -52.3510 N.am      2 UNK        -0.4790 
     65 C          33.5708  -45.2204  -51.9160 C.2       1 UNK         0.5024 
     66 O          32.7242  -45.2513  -51.0214 O.2       1 UNK        -0.4888 
     67 H67        37.7890  -43.4612  -53.5927 H         1 UNK         0.0892 
     68 H68        38.1823  -42.5782  -52.1170 H         1 UNK         0.0892 
     69 H69        38.3710  -44.3328  -52.1730 H         1 UNK         0.0892 
     70 H70        35.5982  -43.6747  -53.8812 H         1 UNK         0.3107 
     71 H71        33.4553  -44.0209  -53.6224 H         1 UNK         0.0773 
     72 H72        33.8022  -42.3514  -51.0862 H         1 UNK         0.0680 
     73 H73        32.2399  -42.8230  -51.6846 H         1 UNK         0.0680 
     74 H74        30.8783  -41.0728  -52.9642 H         1 UNK         0.0650 
     75 H75        31.4388  -40.4271  -54.4846 H         1 UNK         0.0650 
     76 H76        30.1561  -43.3769  -52.8090 H         1 UNK         0.1397 
     77 H77        30.3729  -45.9130  -56.2561 H         1 UNK         0.1363 
     78 H78        32.1901  -42.0255  -56.3349 H         1 UNK         0.1355 
     79 H79        32.3018  -43.3852  -58.2915 H         1 UNK         0.0707 
     80 H80        32.3574  -45.1022  -57.9727 H         1 UNK         0.0707 
     81 H81        30.1129  -42.1023  -58.5720 H         1 UNK         0.1034 
     82 H82        28.9536  -42.6267  -59.7598 H         1 UNK         0.1034 
     83 H83        28.7310  -43.1103  -56.7389 H         1 UNK         0.0482 
     84 H84        28.8330  -40.9318  -56.0645 H         1 UNK         0.3460 
     85 H85        27.6980  -39.7288  -56.6199 H         1 UNK         0.3460 
     86 H86        27.4382  -44.5236  -58.7676 H         1 UNK         0.2989 
     87 H87        24.7732  -45.7646  -56.7386 H         1 UNK         0.0559 
     88 H88        24.8189  -44.5640  -59.5600 H         1 UNK         0.0848 
     89 H89        23.7425  -44.0816  -58.2579 H         1 UNK         0.0848 
     90 H90        23.6223  -45.6979  -58.9314 H         1 UNK         0.0848 
     91 H91        26.0919  -46.6589  -59.1560 H         1 UNK         0.3144 
     92 H92        27.2632  -48.4923  -59.2179 H         1 UNK         0.0727 
     93 H93        29.3738  -48.2997  -57.0013 H         1 UNK         0.0790 
     94 H94        29.3237  -47.3266  -58.4620 H         1 UNK         0.0790 
     95 H95        29.6102  -49.0555  -58.5735 H         1 UNK         0.0790 
     96 H96        27.9238  -50.3164  -57.0901 H         1 UNK         0.3215 
     97 H97        24.8279  -52.1593  -57.3338 H         1 UNK         0.0863 
     98 H98        26.4723  -53.9572  -57.8029 H         1 UNK         0.0808 
     99 H99        27.7208  -52.7638  -58.1547 H         1 UNK         0.0808 
    100 H100       26.3096  -52.9009  -59.1968 H         1 UNK         0.0808 
    101 H101       27.3573  -51.7395  -55.7777 H         1 UNK         0.3118 
    102 H102       25.6215  -51.9650  -52.7326 H         1 UNK         0.0546 
    103 H103       27.5249  -54.1237  -53.7989 H         1 UNK         0.0828 
    104 H104       25.9432  -54.4130  -53.0894 H         1 UNK         0.0828 
    105 H105       27.2325  -53.7527  -52.0985 H         1 UNK         0.0828 
    106 H106       28.4160  -51.8408  -53.5039 H         1 UNK         0.3005 
    107 H107       28.5220  -48.6938  -54.6583 H         1 UNK         0.1257 
    108 H108       29.3950  -48.8781  -51.7319 H         1 UNK         0.0775 
    109 H109       28.1851  -47.7604  -52.3067 H         1 UNK         0.0775 
    110 H110       28.6125  -46.2107  -54.4480 H         1 UNK         0.0840 
    111 H111       28.7737  -45.3575  -52.9326 H         1 UNK         0.0840 
    112 H112       30.7059  -50.0247  -53.5202 H         1 UNK         0.2987 
    113 H113       31.5101  -52.2876  -54.5951 H         1 UNK         0.0785 
    114 H114       30.7268  -53.1426  -56.7756 H         1 UNK         0.0798 
    115 H115       32.4556  -52.8418  -56.8463 H         1 UNK         0.0798 
    116 H116       31.3288  -51.7156  -57.6024 H         1 UNK         0.0798 
    117 H117       33.1388  -50.7622  -54.5065 H         1 UNK         0.3079 
    118 H118       34.8215  -49.3869  -55.6421 H         1 UNK         0.0794 
    119 H119       34.4150  -48.0768  -57.7303 H         1 UNK         0.0786 
    120 H120       35.2179  -47.1021  -56.5110 H         1 UNK         0.0786 
    121 H121       33.4946  -46.8880  -56.8188 H         1 UNK         0.0786 
    122 H122       33.5668  -47.0682  -54.4090 H         1 UNK         0.3032 
    123 H123       32.9531  -47.7656  -51.5490 H         1 UNK         0.1094 
    124 H124       34.9101  -47.4519  -50.0022 H         1 UNK         0.0794 
    125 H125       34.7579  -49.1233  -50.5157 H         1 UNK         0.0794 
    126 H126       35.9908  -48.0960  -51.2374 H         1 UNK         0.0794 
    127 H127       34.9536  -46.1700  -53.0472 H         1 UNK         0.3016 
@<TRIPOS>BOND
     1    1    2 1    
     2    1   67 1    
     3    1   68 1    
     4    1   69 1    
     5    2    3 2    
     6    2    4 am   BACKBONE|DICT|INTERRES
     7    4    5 1    
     8    4   70 1    
     9    5    6 1    
    10    5   65 1    
    11    5   71 1    
    12    6    7 1    
    13    6   72 1    
    14    6   73 1    
    15    7    8 1    
    16    8    9 1    
    17    8   74 1    
    18    8   75 1    
    19    9   10 ar   
    20    9   14 ar   
    21   10   11 ar   
    22   10   76 1    
    23   11   12 ar   
    24   11   48 1    
    25   12   13 ar   
    26   12   77 1    
    27   13   14 ar   
    28   13   15 1    
    29   14   78 1    
    30   15   16 1    
    31   15   79 1    
    32   15   80 1    
    33   16   17 1    
    34   17   18 1    
    35   17   81 1    
    36   17   82 1    
    37   18   19 1    
    38   18   22 1    
    39   18   83 1    
    40   19   20 am   BACKBONE|DICT|INTERRES
    41   19   21 2    
    42   20   84 1    
    43   20   85 1    
    44   22   23 am   BACKBONE|DICT|INTERRES
    45   22   86 1    
    46   23   24 2    
    47   23   25 1    
    48   25   26 1    
    49   25   27 1    
    50   25   87 1    
    51   26   88 1    
    52   26   89 1    
    53   26   90 1    
    54   27   28 am   BACKBONE|DICT|INTERRES
    55   27   91 1    
    56   28   29 2    
    57   28   30 1    
    58   30   31 1    
    59   30   32 1    
    60   30   92 1    
    61   31   93 1    
    62   31   94 1    
    63   31   95 1    
    64   32   33 am   BACKBONE|DICT|INTERRES
    65   32   96 1    
    66   33   34 2    
    67   33   35 1    
    68   35   36 1    
    69   35   37 1    
    70   35   97 1    
    71   36   98 1    
    72   36   99 1    
    73   36  100 1    
    74   37   38 am   BACKBONE|DICT|INTERRES
    75   37  101 1    
    76   38   39 2    
    77   38   40 1    
    78   40   41 1    
    79   40   42 1    
    80   40  102 1    
    81   41  103 1    
    82   41  104 1    
    83   41  105 1    
    84   42   43 am   BACKBONE|DICT|INTERRES
    85   42  106 1    
    86   43   44 2    
    87   43   45 1    
    88   45   46 1    
    89   45   49 1    
    90   45  107 1    
    91   46   47 1    
    92   46  108 1    
    93   46  109 1    
    94   47   48 1    
    95   48  110 1    
    96   48  111 1    
    97   49   50 am   BACKBONE|DICT|INTERRES
    98   49  112 1    
    99   50   51 2    
   100   50   52 1    
   101   52   53 1    
   102   52   54 1    
   103   52  113 1    
   104   53  114 1    
   105   53  115 1    
   106   53  116 1    
   107   54   55 am   BACKBONE|DICT|INTERRES
   108   54  117 1    
   109   55   56 2    
   110   55   57 1    
   111   57   58 1    
   112   57   59 1    
   113   57  118 1    
   114   58  119 1    
   115   58  120 1    
   116   58  121 1    
   117   59   60 am   BACKBONE|DICT|INTERRES
   118   59  122 1    
   119   60   61 2    
   120   60   62 1    
   121   62   63 1    
   122   62   64 1    
   123   62  123 1    
   124   63  124 1    
   125   63  125 1    
   126   63  126 1    
   127   64   65 am   BACKBONE|DICT|INTERRES
   128   64  127 1    
   129   65   66 2    
@<TRIPOS>SUBSTRUCTURE
     1 UNK         1 GROUP             0       ****    0 ROOT    
