@<TRIPOS>MOLECULE
3R134
127   129    1
SMALL
USER_CHARGES


@<TRIPOS>ATOM
      1 CA         37.3816  -46.2124  -54.1148 C.3       0 UNK        -0.1968 
      2 C          36.0272  -45.5987  -53.7914 C.2       0 UNK         0.4852 
      3 O          35.7565  -44.4687  -54.1995 O.2       0 UNK        -0.5359 
      4 N          35.1821  -46.3352  -53.0622 N.am      1 UNK        -0.4300 
      5 CA         33.8167  -45.9527  -52.7194 C.3       1 UNK         0.0863 
      6 C6         33.7550  -44.8715  -51.6016 C.3       11 UNK        -0.0953 
      7 S7         32.0700  -44.3813  -51.0863 S.3       11 UNK        -0.2369 
      8 C8         31.7928  -42.8436  -52.0245 C.3       11 UNK         0.0226 
      9 C9         31.2855  -43.1369  -53.4276 C.ar      11 UNK        -0.0699 
     10 C10        32.1874  -43.3440  -54.4726 C.ar      11 UNK        -0.0804 
     11 C11        31.7308  -43.6918  -55.7461 C.ar      11 UNK        -0.0871 
     12 C12        30.3571  -43.7805  -55.9868 C.ar      11 UNK        -0.1008 
     13 C13        29.4424  -43.5377  -54.9575 C.ar      11 UNK        -0.0735 
     14 C14        29.9129  -43.2228  -53.6785 C.ar      11 UNK        -0.0945 
     15 C15        27.9477  -43.6634  -55.2077 C.3       11 UNK         0.0169 
     16 S16        27.2552  -42.1685  -55.9796 S.3       11 UNK        -0.2669 
     17 C17        27.1950  -42.6519  -57.7411 C.3       11 UNK        -0.0850 
     18 CA         25.7966  -43.1887  -58.1521 C.3       10 UNK         0.0855 
     19 C          25.6737  -43.3636  -59.6952 C.2       10 UNK         0.5543 
     20 N          25.2534  -44.5117  -60.2150 N.am      10 UNK        -0.7343 
     21 O          25.9559  -42.4291  -60.4409 O.2       10 UNK        -0.5027 
     22 N          25.4451  -44.3970  -57.3905 N.am      10 UNK        -0.4495 
     23 C          24.2131  -44.7369  -56.9963 C.2       10 UNK         0.4903 
     24 O          23.2164  -44.0346  -57.1738 O.2       10 UNK        -0.4860 
     25 CA         24.0846  -46.1026  -56.2886 C.3       9 UNK         0.0227 
     26 CB         22.6404  -46.6465  -56.2998 C.3       9 UNK        -0.1964 
     27 N          25.0222  -47.1168  -56.7948 N.am      9 UNK        -0.4231 
     28 C          25.1264  -47.5606  -58.0605 C.2       9 UNK         0.5014 
     29 O          24.4379  -47.1331  -58.9882 O.2       9 UNK        -0.5270 
     30 CA         26.1974  -48.6232  -58.3733 C.3       8 UNK         0.0284 
     31 CB         27.2351  -48.0666  -59.3642 C.3       8 UNK        -0.1977 
     32 N          26.8858  -49.1156  -57.1773 N.am      8 UNK        -0.4342 
     33 C          26.4049  -50.0719  -56.3675 C.2       8 UNK         0.5039 
     34 O          25.3588  -50.6831  -56.5874 O.2       8 UNK        -0.5547 
     35 CA         27.2001  -50.3997  -55.0876 C.3       7 UNK         0.0281 
     36 CB         27.9894  -51.7075  -55.2646 C.3       7 UNK        -0.1963 
     37 N          28.1228  -49.3444  -54.6625 N.am      7 UNK        -0.4444 
     38 C          27.7772  -48.1065  -54.2811 C.2       7 UNK         0.5104 
     39 O          26.6151  -47.7045  -54.2202 O.2       7 UNK        -0.5100 
     40 CA         28.9380  -47.1352  -54.0022 C.3       6 UNK         0.0396 
     41 CB         29.3285  -47.1693  -52.5190 C.3       6 UNK        -0.1801 
     42 N          30.1196  -47.3904  -54.8390 N.am      6 UNK        -0.4747 
     43 C          30.1186  -47.3226  -56.1808 C.2       6 UNK         0.5012 
     44 O          29.1227  -46.9922  -56.8262 O.2       6 UNK        -0.5003 
     45 CA         31.3678  -47.7781  -56.9541 C.3       5 UNK         0.0782 
     46 C46        32.0888  -46.6274  -57.7099 C.3       11 UNK        -0.0868 
     47 S47        33.3301  -45.7088  -56.7331 S.3       11 UNK        -0.2515 
     48 C48        32.7341  -43.9925  -56.8454 C.3       11 UNK         0.0199 
     49 N          32.2637  -48.6320  -56.1653 N.am      5 UNK        -0.4607 
     50 C          33.0508  -49.5704  -56.7044 C.2       4 UNK         0.5031 
     51 O          33.0718  -49.8423  -57.9056 O.2       4 UNK        -0.5119 
     52 CA         33.9765  -50.3392  -55.7489 C.3       4 UNK         0.0263 
     53 CB         35.2099  -49.4892  -55.4012 C.3       4 UNK        -0.1967 
     54 N          33.3217  -50.7722  -54.5135 N.am      4 UNK        -0.4237 
     55 C          32.2962  -51.6279  -54.4167 C.2       3 UNK         0.4908 
     56 O          31.7470  -52.1474  -55.3882 O.2       3 UNK        -0.5102 
     57 CA         31.7849  -51.9760  -53.0024 C.3       3 UNK         0.0241 
     58 CB         32.5240  -53.2053  -52.4381 C.3       3 UNK        -0.1971 
     59 N          31.7863  -50.8592  -52.0426 N.am      3 UNK        -0.4139 
     60 C          32.8310  -50.1818  -51.5449 C.2       2 UNK         0.5016 
     61 O          34.0114  -50.4383  -51.7939 O.2       2 UNK        -0.5319 
     62 CA         32.4993  -48.9562  -50.6781 C.3       2 UNK         0.0286 
     63 CB         32.9301  -49.1910  -49.2216 C.3       2 UNK        -0.1963 
     64 N          33.1358  -47.7322  -51.1784 N.am      2 UNK        -0.4790 
     65 C          33.0596  -47.2542  -52.4304 C.2       1 UNK         0.5024 
     66 O          32.4548  -47.8102  -53.3510 O.2       1 UNK        -0.4888 
     67 H67        38.1814  -45.5840  -53.7241 H         1 UNK         0.0892 
     68 H68        37.5066  -46.2926  -55.1943 H         1 UNK         0.0892 
     69 H69        37.4926  -47.2086  -53.6867 H         1 UNK         0.0892 
     70 H70        35.4541  -47.2613  -52.7602 H         1 UNK         0.3107 
     71 H71        33.3565  -45.5453  -53.6185 H         1 UNK         0.0773 
     72 H72        34.2870  -45.2149  -50.7133 H         1 UNK         0.0680 
     73 H73        34.2906  -43.9787  -51.9258 H         1 UNK         0.0680 
     74 H74        31.0606  -42.2377  -51.4888 H         1 UNK         0.0650 
     75 H75        32.7071  -42.2495  -52.0603 H         1 UNK         0.0650 
     76 H76        33.2510  -43.2784  -54.2852 H         1 UNK         0.1397 
     77 H77        30.0008  -44.0571  -56.9688 H         1 UNK         0.1363 
     78 H78        29.2108  -43.0605  -52.8721 H         1 UNK         0.1355 
     79 H79        27.4233  -43.8381  -54.2670 H         1 UNK         0.0707 
     80 H80        27.7511  -44.5405  -55.8249 H         1 UNK         0.0707 
     81 H81        27.9723  -43.3840  -57.9629 H         1 UNK         0.1034 
     82 H82        27.4482  -41.7639  -58.3234 H         1 UNK         0.1034 
     83 H83        25.0738  -42.4101  -57.9008 H         1 UNK         0.0482 
     84 H84        25.1779  -44.5941  -61.2162 H         1 UNK         0.3460 
     85 H85        24.9794  -45.2915  -59.6280 H         1 UNK         0.3460 
     86 H86        26.1937  -45.0530  -57.2299 H         1 UNK         0.2989 
     87 H87        24.3630  -45.9291  -55.2481 H         1 UNK         0.0559 
     88 H88        22.2717  -46.7936  -57.3155 H         1 UNK         0.0848 
     89 H89        21.9571  -45.9568  -55.8028 H         1 UNK         0.0848 
     90 H90        22.5717  -47.6003  -55.7767 H         1 UNK         0.0848 
     91 H91        25.6419  -47.5119  -56.0953 H         1 UNK         0.3144 
     92 H92        25.6900  -49.4605  -58.8572 H         1 UNK         0.0727 
     93 H93        28.0213  -48.7929  -59.5708 H         1 UNK         0.0790 
     94 H94        27.7052  -47.1555  -58.9940 H         1 UNK         0.0790 
     95 H95        26.7667  -47.8191  -60.3178 H         1 UNK         0.0790 
     96 H96        27.7370  -48.6291  -56.9200 H         1 UNK         0.3215 
     97 H97        26.4715  -50.5432  -54.2866 H         1 UNK         0.0863 
     98 H98        28.4680  -52.0127  -54.3341 H         1 UNK         0.0808 
     99 H99        28.7648  -51.6135  -56.0263 H         1 UNK         0.0808 
    100 H100       27.3318  -52.5232  -55.5687 H         1 UNK         0.0808 
    101 H101       29.1076  -49.5616  -54.7012 H         1 UNK         0.3118 
    102 H102       28.5809  -46.1326  -54.2277 H         1 UNK         0.0546 
    103 H103       28.4666  -46.9644  -51.8825 H         1 UNK         0.0828 
    104 H104       30.0809  -46.4141  -52.2928 H         1 UNK         0.0828 
    105 H105       29.7248  -48.1422  -52.2311 H         1 UNK         0.0828 
    106 H106       30.9810  -47.6071  -54.3439 H         1 UNK         0.3005 
    107 H107       30.9409  -48.4205  -57.7287 H         1 UNK         0.1257 
    108 H108       31.3655  -45.9377  -58.1483 H         1 UNK         0.0775 
    109 H109       32.6230  -47.0511  -58.5615 H         1 UNK         0.0775 
    110 H110       33.5896  -43.3223  -56.7483 H         1 UNK         0.0840 
    111 H111       32.3096  -43.7970  -57.8312 H         1 UNK         0.0840 
    112 H112       32.3393  -48.4386  -55.1722 H         1 UNK         0.2987 
    113 H113       34.3161  -51.2372  -56.2692 H         1 UNK         0.0785 
    114 H114       34.9320  -48.5789  -54.8699 H         1 UNK         0.0798 
    115 H115       35.7430  -49.1877  -56.3040 H         1 UNK         0.0798 
    116 H116       35.9130  -50.0424  -54.7784 H         1 UNK         0.0798 
    117 H117       33.7172  -50.4380  -53.6379 H         1 UNK         0.3079 
    118 H118       30.7368  -52.2560  -53.1189 H         1 UNK         0.0794 
    119 H119       33.5908  -53.0194  -52.3103 H         1 UNK         0.0786 
    120 H120       32.4242  -54.0599  -53.1088 H         1 UNK         0.0786 
    121 H121       32.1174  -53.5033  -51.4717 H         1 UNK         0.0786 
    122 H122       30.8641  -50.5416  -51.7790 H         1 UNK         0.3032 
    123 H123       31.4210  -48.7905  -50.6894 H         1 UNK         0.1094 
    124 H124       32.6430  -48.3564  -48.5815 H         1 UNK         0.0794 
    125 H125       32.4589  -50.0866  -48.8140 H         1 UNK         0.0794 
    126 H126       34.0096  -49.3243  -49.1370 H         1 UNK         0.0794 
    127 H127       33.6701  -47.2052  -50.5034 H         1 UNK         0.3016 
@<TRIPOS>BOND
     1    1    2 1    
     2    1   67 1    
     3    1   68 1    
     4    1   69 1    
     5    2    3 2    
     6    2    4 am   BACKBONE|DICT|INTERRES
     7    4    5 1    
     8    4   70 1    
     9    5    6 1    
    10    5   65 1    
    11    5   71 1    
    12    6    7 1    
    13    6   72 1    
    14    6   73 1    
    15    7    8 1    
    16    8    9 1    
    17    8   74 1    
    18    8   75 1    
    19    9   10 ar   
    20    9   14 ar   
    21   10   11 ar   
    22   10   76 1    
    23   11   12 ar   
    24   11   48 1    
    25   12   13 ar   
    26   12   77 1    
    27   13   14 ar   
    28   13   15 1    
    29   14   78 1    
    30   15   16 1    
    31   15   79 1    
    32   15   80 1    
    33   16   17 1    
    34   17   18 1    
    35   17   81 1    
    36   17   82 1    
    37   18   19 1    
    38   18   22 1    
    39   18   83 1    
    40   19   20 am   BACKBONE|DICT|INTERRES
    41   19   21 2    
    42   20   84 1    
    43   20   85 1    
    44   22   23 am   BACKBONE|DICT|INTERRES
    45   22   86 1    
    46   23   24 2    
    47   23   25 1    
    48   25   26 1    
    49   25   27 1    
    50   25   87 1    
    51   26   88 1    
    52   26   89 1    
    53   26   90 1    
    54   27   28 am   BACKBONE|DICT|INTERRES
    55   27   91 1    
    56   28   29 2    
    57   28   30 1    
    58   30   31 1    
    59   30   32 1    
    60   30   92 1    
    61   31   93 1    
    62   31   94 1    
    63   31   95 1    
    64   32   33 am   BACKBONE|DICT|INTERRES
    65   32   96 1    
    66   33   34 2    
    67   33   35 1    
    68   35   36 1    
    69   35   37 1    
    70   35   97 1    
    71   36   98 1    
    72   36   99 1    
    73   36  100 1    
    74   37   38 am   BACKBONE|DICT|INTERRES
    75   37  101 1    
    76   38   39 2    
    77   38   40 1    
    78   40   41 1    
    79   40   42 1    
    80   40  102 1    
    81   41  103 1    
    82   41  104 1    
    83   41  105 1    
    84   42   43 am   BACKBONE|DICT|INTERRES
    85   42  106 1    
    86   43   44 2    
    87   43   45 1    
    88   45   46 1    
    89   45   49 1    
    90   45  107 1    
    91   46   47 1    
    92   46  108 1    
    93   46  109 1    
    94   47   48 1    
    95   48  110 1    
    96   48  111 1    
    97   49   50 am   BACKBONE|DICT|INTERRES
    98   49  112 1    
    99   50   51 2    
   100   50   52 1    
   101   52   53 1    
   102   52   54 1    
   103   52  113 1    
   104   53  114 1    
   105   53  115 1    
   106   53  116 1    
   107   54   55 am   BACKBONE|DICT|INTERRES
   108   54  117 1    
   109   55   56 2    
   110   55   57 1    
   111   57   58 1    
   112   57   59 1    
   113   57  118 1    
   114   58  119 1    
   115   58  120 1    
   116   58  121 1    
   117   59   60 am   BACKBONE|DICT|INTERRES
   118   59  122 1    
   119   60   61 2    
   120   60   62 1    
   121   62   63 1    
   122   62   64 1    
   123   62  123 1    
   124   63  124 1    
   125   63  125 1    
   126   63  126 1    
   127   64   65 am   BACKBONE|DICT|INTERRES
   128   64  127 1    
   129   65   66 2    
@<TRIPOS>SUBSTRUCTURE
     1 UNK         1 GROUP             0       ****    0 ROOT    
