@<TRIPOS>MOLECULE
3R134
127   129    1
SMALL
USER_CHARGES


@<TRIPOS>ATOM
      1 CA         29.7389  -46.4434  -55.1390 C.3       0 UNK        -0.1968 
      2 C          30.0991  -46.0393  -53.7189 C.2       0 UNK         0.4852 
      3 O          29.5750  -46.6320  -52.7773 O.2       0 UNK        -0.5359 
      4 N          30.9773  -45.0395  -53.5455 N.am      1 UNK        -0.4300 
      5 CA         31.4537  -44.5735  -52.2308 C.3       1 UNK         0.0863 
      6 C6         32.3062  -43.2840  -52.3101 C.3       11 UNK        -0.0953 
      7 S7         31.3835  -41.8569  -52.9656 S.3       11 UNK        -0.2369 
      8 C8         32.3048  -41.4914  -54.4905 C.3       11 UNK         0.0226 
      9 C9         31.9864  -42.5020  -55.5788 C.ar      11 UNK        -0.0699 
     10 C10        32.8457  -43.5764  -55.8300 C.ar      11 UNK        -0.0804 
     11 C11        32.5331  -44.5143  -56.8179 C.ar      11 UNK        -0.0871 
     12 C12        31.3623  -44.3588  -57.5669 C.ar      11 UNK        -0.1008 
     13 C13        30.4958  -43.2887  -57.3233 C.ar      11 UNK        -0.0735 
     14 C14        30.8193  -42.3590  -56.3329 C.ar      11 UNK        -0.0945 
     15 C15        29.2192  -43.1320  -58.1378 C.3       11 UNK         0.0169 
     16 S16        27.7912  -43.9333  -57.3370 S.3       11 UNK        -0.2669 
     17 C17        27.3298  -42.7240  -56.0448 C.3       11 UNK        -0.0850 
     18 CA         27.7094  -43.2001  -54.6123 C.3       10 UNK         0.0855 
     19 C          27.5741  -42.0789  -53.5364 C.2       10 UNK         0.5543 
     20 N          27.3463  -42.4117  -52.2714 N.am      10 UNK        -0.7343 
     21 O          27.7012  -40.8957  -53.8413 O.2       10 UNK        -0.5027 
     22 N          27.0733  -44.4838  -54.2575 N.am      10 UNK        -0.4495 
     23 C          25.7671  -44.6982  -54.0560 C.2       10 UNK         0.4903 
     24 O          24.9051  -43.8181  -54.0796 O.2       10 UNK        -0.4860 
     25 CA         25.3787  -46.1688  -53.8123 C.3       9 UNK         0.0227 
     26 CB         23.9653  -46.3269  -53.2113 C.3       9 UNK        -0.1964 
     27 N          25.5314  -46.9776  -55.0309 N.am      9 UNK        -0.4231 
     28 C          24.8962  -46.8189  -56.2051 C.2       9 UNK         0.5014 
     29 O          24.0245  -45.9727  -56.4079 O.2       9 UNK        -0.5270 
     30 CA         25.2848  -47.7620  -57.3603 C.3       8 UNK         0.0284 
     31 CB         25.6582  -46.9689  -58.6261 C.3       8 UNK        -0.1977 
     32 N          26.4006  -48.6541  -57.0348 N.am      8 UNK        -0.4342 
     33 C          26.2938  -49.9421  -56.6836 C.2       8 UNK         0.5039 
     34 O          25.2157  -50.5051  -56.4878 O.2       8 UNK        -0.5547 
     35 CA         27.6109  -50.7297  -56.5040 C.3       7 UNK         0.0281 
     36 CB         27.4853  -52.2030  -56.9462 C.3       7 UNK        -0.1963 
     37 N          28.7886  -50.0949  -57.1191 N.am      7 UNK        -0.4444 
     38 C          28.9967  -49.8467  -58.4233 C.2       7 UNK         0.5104 
     39 O          28.2027  -50.1572  -59.3109 O.2       7 UNK        -0.5100 
     40 CA         30.2768  -49.0955  -58.8204 C.3       6 UNK         0.0396 
     41 CB         29.9857  -47.5951  -59.0031 C.3       6 UNK        -0.1801 
     42 N          31.3906  -49.2899  -57.8865 N.am      6 UNK        -0.4747 
     43 C          32.6869  -49.1873  -58.2243 C.2       6 UNK         0.5012 
     44 O          33.0741  -48.8616  -59.3476 O.2       6 UNK        -0.5003 
     45 CA         33.7410  -49.5140  -57.1387 C.3       5 UNK         0.0782 
     46 C46        34.4402  -48.2475  -56.5779 C.3       11 UNK        -0.0868 
     47 S47        33.3265  -46.9944  -55.8433 S.3       11 UNK        -0.2515 
     48 C48        33.4737  -45.6774  -57.0948 C.3       11 UNK         0.0199 
     49 N          33.2166  -50.3743  -56.0738 N.am      5 UNK        -0.4607 
     50 C          32.8447  -51.6507  -56.2461 C.2       4 UNK         0.5031 
     51 O          33.0208  -52.2659  -57.2982 O.2       4 UNK        -0.5119 
     52 CA         32.1403  -52.3726  -55.0800 C.3       4 UNK         0.0263 
     53 CB         33.0068  -53.5346  -54.5653 C.3       4 UNK        -0.1967 
     54 N          31.7520  -51.5396  -53.9366 N.am      4 UNK        -0.4237 
     55 C          30.9395  -50.4754  -53.9430 C.2       3 UNK         0.4908 
     56 O          30.4923  -49.9537  -54.9658 O.2       3 UNK        -0.5102 
     57 CA         30.5951  -49.8645  -52.5777 C.3       3 UNK         0.0241 
     58 CB         30.4061  -50.9114  -51.4572 C.3       3 UNK        -0.1971 
     59 N          31.5594  -48.8296  -52.2004 N.am      3 UNK        -0.4139 
     60 C          32.8751  -48.9656  -51.9643 C.2       2 UNK         0.5016 
     61 O          33.4583  -50.0506  -51.9569 O.2       2 UNK        -0.5319 
     62 CA         33.6856  -47.6770  -51.7194 C.3       2 UNK         0.0286 
     63 CB         35.0751  -47.7430  -52.3790 C.3       2 UNK        -0.1963 
     64 N          32.9827  -46.4937  -52.2213 N.am      2 UNK        -0.4790 
     65 C          32.2399  -45.6648  -51.4747 C.2       1 UNK         0.5024 
     66 O          32.1342  -45.7541  -50.2514 O.2       1 UNK        -0.4888 
     67 H67        28.7474  -46.8923  -55.1735 H         1 UNK         0.0892 
     68 H68        29.7410  -45.5846  -55.8042 H         1 UNK         0.0892 
     69 H69        30.4481  -47.1791  -55.5144 H         1 UNK         0.0892 
     70 H70        31.3626  -44.5613  -54.3504 H         1 UNK         0.3107 
     71 H71        30.5683  -44.3515  -51.6305 H         1 UNK         0.0773 
     72 H72        33.2086  -43.4525  -52.8994 H         1 UNK         0.0680 
     73 H73        32.6521  -42.9984  -51.3145 H         1 UNK         0.0680 
     74 H74        33.3755  -41.4626  -54.2821 H         1 UNK         0.0650 
     75 H75        32.0346  -40.4910  -54.8317 H         1 UNK         0.0650 
     76 H76        33.7565  -43.6871  -55.2571 H         1 UNK         0.1397 
     77 H77        31.1212  -45.0715  -58.3411 H         1 UNK         0.1363 
     78 H78        30.1586  -41.5254  -56.1385 H         1 UNK         0.1355 
     79 H79        29.0055  -42.0770  -58.3159 H         1 UNK         0.0707 
     80 H80        29.3565  -43.5792  -59.1235 H         1 UNK         0.0707 
     81 H81        26.2555  -42.5452  -56.1096 H         1 UNK         0.1034 
     82 H82        27.7974  -41.7664  -56.2760 H         1 UNK         0.1034 
     83 H83        28.7786  -43.4081  -54.6264 H         1 UNK         0.0482 
     84 H84        27.2688  -41.6855  -51.5772 H         1 UNK         0.3460 
     85 H85        27.2414  -43.3775  -52.0073 H         1 UNK         0.3460 
     86 H86        27.6975  -45.2710  -54.1816 H         1 UNK         0.2989 
     87 H87        26.0860  -46.5682  -53.0832 H         1 UNK         0.0559 
     88 H88        23.8824  -45.7847  -52.2686 H         1 UNK         0.0848 
     89 H89        23.7365  -47.3724  -53.0054 H         1 UNK         0.0848 
     90 H90        23.1907  -45.9397  -53.8740 H         1 UNK         0.0848 
     91 H91        26.2091  -47.7238  -54.9790 H         1 UNK         0.3144 
     92 H92        24.3965  -48.3538  -57.5911 H         1 UNK         0.0727 
     93 H93        25.8573  -47.6366  -59.4647 H         1 UNK         0.0790 
     94 H94        26.5455  -46.3554  -58.4718 H         1 UNK         0.0790 
     95 H95        24.8497  -46.3032  -58.9309 H         1 UNK         0.0790 
     96 H96        27.3282  -48.2838  -57.1774 H         1 UNK         0.3215 
     97 H97        27.8044  -50.7315  -55.4301 H         1 UNK         0.0863 
     98 H98        28.4180  -52.7445  -56.7880 H         1 UNK         0.0808 
     99 H99        27.2204  -52.2892  -58.0002 H         1 UNK         0.0808 
    100 H100       26.7126  -52.7194  -56.3754 H         1 UNK         0.0808 
    101 H101       29.4983  -49.8305  -56.4385 H         1 UNK         0.3118 
    102 H102       30.5705  -49.5040  -59.7900 H         1 UNK         0.0546 
    103 H103       29.7707  -47.1064  -58.0531 H         1 UNK         0.0828 
    104 H104       29.1257  -47.4356  -59.6554 H         1 UNK         0.0828 
    105 H105       30.8320  -47.0865  -59.4636 H         1 UNK         0.0828 
    106 H106       31.1699  -49.5757  -56.9401 H         1 UNK         0.3005 
    107 H107       34.5124  -50.0950  -57.6502 H         1 UNK         0.1257 
    108 H108       35.1659  -48.5395  -55.8177 H         1 UNK         0.0775 
    109 H109       35.0340  -47.7827  -57.3670 H         1 UNK         0.0775 
    110 H110       34.5029  -45.3156  -57.1187 H         1 UNK         0.0840 
    111 H111       33.2730  -46.0957  -58.0827 H         1 UNK         0.0840 
    112 H112       33.0252  -49.9305  -55.1876 H         1 UNK         0.2987 
    113 H113       31.2200  -52.7918  -55.4918 H         1 UNK         0.0785 
    114 H114       32.4747  -54.1292  -53.8224 H         1 UNK         0.0798 
    115 H115       33.9306  -53.1747  -54.1102 H         1 UNK         0.0798 
    116 H116       33.2840  -54.2102  -55.3759 H         1 UNK         0.0798 
    117 H117       32.1438  -51.8046  -53.0429 H         1 UNK         0.3079 
    118 H118       29.6376  -49.3576  -52.7068 H         1 UNK         0.0794 
    119 H119       29.6839  -51.6733  -51.7538 H         1 UNK         0.0786 
    120 H120       30.0226  -50.4429  -50.5507 H         1 UNK         0.0786 
    121 H121       31.3310  -51.4236  -51.1925 H         1 UNK         0.0786 
    122 H122       31.1744  -47.8917  -52.1965 H         1 UNK         0.3032 
    123 H123       33.8308  -47.5982  -50.6396 H         1 UNK         0.1094 
    124 H124       35.0046  -47.8982  -53.4551 H         1 UNK         0.0794 
    125 H125       35.6390  -46.8259  -52.2086 H         1 UNK         0.0794 
    126 H126       35.6662  -48.5635  -51.9700 H         1 UNK         0.0794 
    127 H127       33.0003  -46.3552  -53.2231 H         1 UNK         0.3016 
@<TRIPOS>BOND
     1    1    2 1    
     2    1   67 1    
     3    1   68 1    
     4    1   69 1    
     5    2    3 2    
     6    2    4 am   BACKBONE|DICT|INTERRES
     7    4    5 1    
     8    4   70 1    
     9    5    6 1    
    10    5   65 1    
    11    5   71 1    
    12    6    7 1    
    13    6   72 1    
    14    6   73 1    
    15    7    8 1    
    16    8    9 1    
    17    8   74 1    
    18    8   75 1    
    19    9   10 ar   
    20    9   14 ar   
    21   10   11 ar   
    22   10   76 1    
    23   11   12 ar   
    24   11   48 1    
    25   12   13 ar   
    26   12   77 1    
    27   13   14 ar   
    28   13   15 1    
    29   14   78 1    
    30   15   16 1    
    31   15   79 1    
    32   15   80 1    
    33   16   17 1    
    34   17   18 1    
    35   17   81 1    
    36   17   82 1    
    37   18   19 1    
    38   18   22 1    
    39   18   83 1    
    40   19   20 am   BACKBONE|DICT|INTERRES
    41   19   21 2    
    42   20   84 1    
    43   20   85 1    
    44   22   23 am   BACKBONE|DICT|INTERRES
    45   22   86 1    
    46   23   24 2    
    47   23   25 1    
    48   25   26 1    
    49   25   27 1    
    50   25   87 1    
    51   26   88 1    
    52   26   89 1    
    53   26   90 1    
    54   27   28 am   BACKBONE|DICT|INTERRES
    55   27   91 1    
    56   28   29 2    
    57   28   30 1    
    58   30   31 1    
    59   30   32 1    
    60   30   92 1    
    61   31   93 1    
    62   31   94 1    
    63   31   95 1    
    64   32   33 am   BACKBONE|DICT|INTERRES
    65   32   96 1    
    66   33   34 2    
    67   33   35 1    
    68   35   36 1    
    69   35   37 1    
    70   35   97 1    
    71   36   98 1    
    72   36   99 1    
    73   36  100 1    
    74   37   38 am   BACKBONE|DICT|INTERRES
    75   37  101 1    
    76   38   39 2    
    77   38   40 1    
    78   40   41 1    
    79   40   42 1    
    80   40  102 1    
    81   41  103 1    
    82   41  104 1    
    83   41  105 1    
    84   42   43 am   BACKBONE|DICT|INTERRES
    85   42  106 1    
    86   43   44 2    
    87   43   45 1    
    88   45   46 1    
    89   45   49 1    
    90   45  107 1    
    91   46   47 1    
    92   46  108 1    
    93   46  109 1    
    94   47   48 1    
    95   48  110 1    
    96   48  111 1    
    97   49   50 am   BACKBONE|DICT|INTERRES
    98   49  112 1    
    99   50   51 2    
   100   50   52 1    
   101   52   53 1    
   102   52   54 1    
   103   52  113 1    
   104   53  114 1    
   105   53  115 1    
   106   53  116 1    
   107   54   55 am   BACKBONE|DICT|INTERRES
   108   54  117 1    
   109   55   56 2    
   110   55   57 1    
   111   57   58 1    
   112   57   59 1    
   113   57  118 1    
   114   58  119 1    
   115   58  120 1    
   116   58  121 1    
   117   59   60 am   BACKBONE|DICT|INTERRES
   118   59  122 1    
   119   60   61 2    
   120   60   62 1    
   121   62   63 1    
   122   62   64 1    
   123   62  123 1    
   124   63  124 1    
   125   63  125 1    
   126   63  126 1    
   127   64   65 am   BACKBONE|DICT|INTERRES
   128   64  127 1    
   129   65   66 2    
@<TRIPOS>SUBSTRUCTURE
     1 UNK         1 GROUP             0       ****    0 ROOT    
