@<TRIPOS>MOLECULE
3R134
127   129    1
SMALL
USER_CHARGES


@<TRIPOS>ATOM
      1 CA         37.6005  -47.1508  -55.1831 C.3       0 UNK        -0.1968 
      2 C          36.1811  -47.0679  -54.6448 C.2       0 UNK         0.4852 
      3 O          35.4637  -48.0687  -54.6627 O.2       0 UNK        -0.5359 
      4 N          35.7741  -45.8898  -54.1510 N.am      1 UNK        -0.4300 
      5 CA         34.4316  -45.5797  -53.6338 C.3       1 UNK         0.0863 
      6 C6         34.3194  -44.1014  -53.1978 C.3       11 UNK        -0.0953 
      7 S7         34.3803  -43.0012  -54.6511 S.3       11 UNK        -0.2369 
      8 C8         32.8011  -42.1015  -54.5289 C.3       11 UNK         0.0226 
      9 C9         31.5775  -43.0098  -54.5814 C.ar      11 UNK        -0.0699 
     10 C10        30.8075  -43.2130  -53.4328 C.ar      11 UNK        -0.0804 
     11 C11        29.6439  -43.9866  -53.4743 C.ar      11 UNK        -0.0871 
     12 C12        29.2409  -44.5415  -54.6953 C.ar      11 UNK        -0.1008 
     13 C13        30.0132  -44.3696  -55.8493 C.ar      11 UNK        -0.0735 
     14 C14        31.1860  -43.6081  -55.7822 C.ar      11 UNK        -0.0945 
     15 C15        29.5840  -45.0246  -57.1585 C.3       11 UNK         0.0169 
     16 S16        29.5290  -43.8617  -58.5627 S.3       11 UNK        -0.2669 
     17 C17        28.1812  -42.7197  -58.0830 C.3       11 UNK        -0.0850 
     18 CA         26.9491  -42.7515  -59.0287 C.3       10 UNK         0.0855 
     19 C          27.2611  -42.1630  -60.4357 C.2       10 UNK         0.5543 
     20 N          27.3573  -40.8444  -60.5430 N.am      10 UNK        -0.7343 
     21 O          27.4399  -42.8806  -61.4186 O.2       10 UNK        -0.5027 
     22 N          26.3432  -44.0882  -59.0614 N.am      10 UNK        -0.4495 
     23 C          25.1434  -44.3933  -59.5737 C.2       10 UNK         0.4903 
     24 O          24.3683  -43.5693  -60.0602 O.2       10 UNK        -0.4860 
     25 CA         24.7237  -45.8732  -59.5020 C.3       9 UNK         0.0227 
     26 CB         25.1549  -46.6187  -60.7750 C.3       9 UNK        -0.1964 
     27 N          25.2789  -46.5540  -58.3291 N.am      9 UNK        -0.4231 
     28 C          24.9146  -46.3308  -57.0616 C.2       9 UNK         0.5014 
     29 O          23.9645  -45.6101  -56.7493 O.2       9 UNK        -0.5270 
     30 CA         25.7709  -47.0010  -55.9642 C.3       8 UNK         0.0284 
     31 CB         25.2754  -46.6479  -54.5494 C.3       8 UNK        -0.1977 
     32 N          25.8894  -48.4602  -56.0749 N.am      8 UNK        -0.4342 
     33 C          26.5290  -49.1442  -57.0344 C.2       8 UNK         0.5039 
     34 O          27.0511  -48.6178  -58.0199 O.2       8 UNK        -0.5547 
     35 CA         26.6457  -50.6583  -56.8126 C.3       7 UNK         0.0281 
     36 CB         27.2656  -51.3973  -58.0133 C.3       7 UNK        -0.1963 
     37 N          27.4841  -50.8628  -55.6355 N.am      7 UNK        -0.4444 
     38 C          27.1951  -51.6520  -54.5918 C.2       7 UNK         0.5104 
     39 O          26.2057  -52.3833  -54.5424 O.2       7 UNK        -0.5100 
     40 CA         28.1564  -51.6090  -53.3840 C.3       6 UNK         0.0396 
     41 CB         29.1103  -52.8124  -53.4187 C.3       6 UNK        -0.1801 
     42 N          28.9333  -50.3652  -53.3149 N.am      6 UNK        -0.4747 
     43 C          28.3922  -49.1592  -53.0707 C.2       6 UNK         0.5012 
     44 O          27.2305  -49.0262  -52.6864 O.2       6 UNK        -0.5003 
     45 CA         29.2388  -47.8940  -53.3619 C.3       5 UNK         0.0782 
     46 C46        29.3881  -46.9699  -52.1236 C.3       11 UNK        -0.0868 
     47 S47        28.0045  -45.7833  -52.0005 S.3       11 UNK        -0.2515 
     48 C48        28.8315  -44.1645  -52.1903 C.3       11 UNK         0.0199 
     49 N          30.5238  -48.1677  -54.0203 N.am      5 UNK        -0.4607 
     50 C          30.6358  -48.6293  -55.2750 C.2       4 UNK         0.5031 
     51 O          29.6658  -48.8641  -55.9934 O.2       4 UNK        -0.5119 
     52 CA         32.0418  -48.9435  -55.8090 C.3       4 UNK         0.0263 
     53 CB         32.6074  -47.7369  -56.5731 C.3       4 UNK        -0.1967 
     54 N          32.9944  -49.3887  -54.7857 N.am      4 UNK        -0.4237 
     55 C          32.8531  -50.4956  -54.0388 C.2       3 UNK         0.4908 
     56 O          31.8505  -51.2086  -54.0604 O.2       3 UNK        -0.5102 
     57 CA         34.0164  -50.8719  -53.1107 C.3       3 UNK         0.0241 
     58 CB         35.1640  -51.5118  -53.9098 C.3       3 UNK        -0.1971 
     59 N          34.5111  -49.6972  -52.3963 N.am      3 UNK        -0.4139 
     60 C          34.1481  -49.3547  -51.1524 C.2       2 UNK         0.5016 
     61 O          33.4401  -50.0530  -50.4257 O.2       2 UNK        -0.5319 
     62 CA         34.6433  -47.9935  -50.6243 C.3       2 UNK         0.0286 
     63 CB         35.9203  -48.1735  -49.7878 C.3       2 UNK        -0.1963 
     64 N          34.8924  -47.0011  -51.6754 N.am      2 UNK        -0.4790 
     65 C          33.9584  -46.5249  -52.5123 C.2       1 UNK         0.5024 
     66 O          32.7728  -46.8504  -52.4632 O.2       1 UNK        -0.4888 
     67 H67        37.5843  -47.4386  -56.2339 H         1 UNK         0.0892 
     68 H68        38.1258  -46.1996  -55.0990 H         1 UNK         0.0892 
     69 H69        38.1660  -47.9022  -54.6327 H         1 UNK         0.0892 
     70 H70        36.4112  -45.1061  -54.1735 H         1 UNK         0.3107 
     71 H71        33.7366  -45.7326  -54.4586 H         1 UNK         0.0773 
     72 H72        35.1288  -43.8338  -52.5163 H         1 UNK         0.0680 
     73 H73        33.3951  -43.9214  -52.6474 H         1 UNK         0.0680 
     74 H74        32.7459  -41.3842  -55.3488 H         1 UNK         0.0650 
     75 H75        32.8042  -41.5106  -53.6116 H         1 UNK         0.0650 
     76 H76        31.1096  -42.7528  -52.5018 H         1 UNK         0.1397 
     77 H77        28.3265  -45.1143  -54.7452 H         1 UNK         0.1363 
     78 H78        31.7845  -43.4624  -56.6711 H         1 UNK         0.1355 
     79 H79        28.6091  -45.5016  -57.0588 H         1 UNK         0.0707 
     80 H80        30.2887  -45.8222  -57.3941 H         1 UNK         0.0707 
     81 H81        27.8591  -42.9461  -57.0655 H         1 UNK         0.1034 
     82 H82        28.5944  -41.7109  -58.0297 H         1 UNK         0.1034 
     83 H83        26.1950  -42.0963  -58.5876 H         1 UNK         0.0482 
     84 H84        27.5686  -40.4414  -61.4426 H         1 UNK         0.3460 
     85 H85        27.2153  -40.2424  -59.7469 H         1 UNK         0.3460 
     86 H86        26.9290  -44.8407  -58.7350 H         1 UNK         0.2989 
     87 H87        23.6344  -45.9105  -59.4350 H         1 UNK         0.0559 
     88 H88        26.2397  -46.6288  -60.8900 H         1 UNK         0.0848 
     89 H89        24.7373  -46.1449  -61.6645 H         1 UNK         0.0848 
     90 H90        24.8091  -47.6525  -60.7661 H         1 UNK         0.0848 
     91 H91        26.0356  -47.2233  -58.4780 H         1 UNK         0.3144 
     92 H92        26.7763  -46.5908  -56.0650 H         1 UNK         0.0727 
     93 H93        25.9291  -47.0573  -53.7819 H         1 UNK         0.0790 
     94 H94        24.2690  -47.0270  -54.3677 H         1 UNK         0.0790 
     95 H95        25.2508  -45.5676  -54.3991 H         1 UNK         0.0790 
     96 H96        25.4931  -48.9892  -55.3107 H         1 UNK         0.3215 
     97 H97        25.6378  -51.0452  -56.6470 H         1 UNK         0.0863 
     98 H98        28.2778  -51.0479  -58.2219 H         1 UNK         0.0808 
     99 H99        26.6724  -51.2425  -58.9153 H         1 UNK         0.0808 
    100 H100       27.3126  -52.4715  -57.8345 H         1 UNK         0.0808 
    101 H101       28.3062  -50.2652  -55.5896 H         1 UNK         0.3118 
    102 H102       27.5529  -51.6817  -52.4768 H         1 UNK         0.0546 
    103 H103       29.7910  -52.8071  -52.5673 H         1 UNK         0.0828 
    104 H104       29.7110  -52.8244  -54.3289 H         1 UNK         0.0828 
    105 H105       28.5547  -53.7505  -53.3846 H         1 UNK         0.0828 
    106 H106       29.9028  -50.4213  -53.6097 H         1 UNK         0.3005 
    107 H107       28.6550  -47.3519  -54.1082 H         1 UNK         0.1257 
    108 H108       30.3091  -46.3919  -52.1842 H         1 UNK         0.0775 
    109 H109       29.4631  -47.5422  -51.1972 H         1 UNK         0.0775 
    110 H110       28.0721  -43.3826  -52.1527 H         1 UNK         0.0840 
    111 H111       29.4697  -44.0130  -51.3181 H         1 UNK         0.0840 
    112 H112       31.3629  -47.9671  -53.4858 H         1 UNK         0.2987 
    113 H113       31.9403  -49.7681  -56.5178 H         1 UNK         0.0785 
    114 H114       33.6391  -47.9014  -56.8843 H         1 UNK         0.0798 
    115 H115       32.0248  -47.5493  -57.4756 H         1 UNK         0.0798 
    116 H116       32.5714  -46.8273  -55.9761 H         1 UNK         0.0798 
    117 H117       33.8711  -48.8717  -54.7264 H         1 UNK         0.3079 
    118 H118       33.6494  -51.6162  -52.4006 H         1 UNK         0.0794 
    119 H119       35.9720  -51.8313  -53.2515 H         1 UNK         0.0786 
    120 H120       35.5846  -50.8239  -54.6444 H         1 UNK         0.0786 
    121 H121       34.8177  -52.3943  -54.4496 H         1 UNK         0.0786 
    122 H122       35.0596  -49.0399  -52.9410 H         1 UNK         0.3032 
    123 H123       33.8585  -47.5980  -49.9752 H         1 UNK         0.1094 
    124 H124       36.7494  -48.5454  -50.3910 H         1 UNK         0.0794 
    125 H125       36.2311  -47.2345  -49.3293 H         1 UNK         0.0794 
    126 H126       35.7594  -48.8882  -48.9793 H         1 UNK         0.0794 
    127 H127       35.8460  -46.6911  -51.7965 H         1 UNK         0.3016 
@<TRIPOS>BOND
     1    1    2 1    
     2    1   67 1    
     3    1   68 1    
     4    1   69 1    
     5    2    3 2    
     6    2    4 am   BACKBONE|DICT|INTERRES
     7    4    5 1    
     8    4   70 1    
     9    5    6 1    
    10    5   65 1    
    11    5   71 1    
    12    6    7 1    
    13    6   72 1    
    14    6   73 1    
    15    7    8 1    
    16    8    9 1    
    17    8   74 1    
    18    8   75 1    
    19    9   10 ar   
    20    9   14 ar   
    21   10   11 ar   
    22   10   76 1    
    23   11   12 ar   
    24   11   48 1    
    25   12   13 ar   
    26   12   77 1    
    27   13   14 ar   
    28   13   15 1    
    29   14   78 1    
    30   15   16 1    
    31   15   79 1    
    32   15   80 1    
    33   16   17 1    
    34   17   18 1    
    35   17   81 1    
    36   17   82 1    
    37   18   19 1    
    38   18   22 1    
    39   18   83 1    
    40   19   20 am   BACKBONE|DICT|INTERRES
    41   19   21 2    
    42   20   84 1    
    43   20   85 1    
    44   22   23 am   BACKBONE|DICT|INTERRES
    45   22   86 1    
    46   23   24 2    
    47   23   25 1    
    48   25   26 1    
    49   25   27 1    
    50   25   87 1    
    51   26   88 1    
    52   26   89 1    
    53   26   90 1    
    54   27   28 am   BACKBONE|DICT|INTERRES
    55   27   91 1    
    56   28   29 2    
    57   28   30 1    
    58   30   31 1    
    59   30   32 1    
    60   30   92 1    
    61   31   93 1    
    62   31   94 1    
    63   31   95 1    
    64   32   33 am   BACKBONE|DICT|INTERRES
    65   32   96 1    
    66   33   34 2    
    67   33   35 1    
    68   35   36 1    
    69   35   37 1    
    70   35   97 1    
    71   36   98 1    
    72   36   99 1    
    73   36  100 1    
    74   37   38 am   BACKBONE|DICT|INTERRES
    75   37  101 1    
    76   38   39 2    
    77   38   40 1    
    78   40   41 1    
    79   40   42 1    
    80   40  102 1    
    81   41  103 1    
    82   41  104 1    
    83   41  105 1    
    84   42   43 am   BACKBONE|DICT|INTERRES
    85   42  106 1    
    86   43   44 2    
    87   43   45 1    
    88   45   46 1    
    89   45   49 1    
    90   45  107 1    
    91   46   47 1    
    92   46  108 1    
    93   46  109 1    
    94   47   48 1    
    95   48  110 1    
    96   48  111 1    
    97   49   50 am   BACKBONE|DICT|INTERRES
    98   49  112 1    
    99   50   51 2    
   100   50   52 1    
   101   52   53 1    
   102   52   54 1    
   103   52  113 1    
   104   53  114 1    
   105   53  115 1    
   106   53  116 1    
   107   54   55 am   BACKBONE|DICT|INTERRES
   108   54  117 1    
   109   55   56 2    
   110   55   57 1    
   111   57   58 1    
   112   57   59 1    
   113   57  118 1    
   114   58  119 1    
   115   58  120 1    
   116   58  121 1    
   117   59   60 am   BACKBONE|DICT|INTERRES
   118   59  122 1    
   119   60   61 2    
   120   60   62 1    
   121   62   63 1    
   122   62   64 1    
   123   62  123 1    
   124   63  124 1    
   125   63  125 1    
   126   63  126 1    
   127   64   65 am   BACKBONE|DICT|INTERRES
   128   64  127 1    
   129   65   66 2    
@<TRIPOS>SUBSTRUCTURE
     1 UNK         1 GROUP             0       ****    0 ROOT    
