@<TRIPOS>MOLECULE
3R134
127   129    1
SMALL
USER_CHARGES


@<TRIPOS>ATOM
      1 CA         32.5953  -46.8060  -49.8779 C.3       0 UNK        -0.1968 
      2 C          33.9041  -46.9381  -50.6423 C.2       0 UNK         0.4852 
      3 O          34.8829  -47.4486  -50.0957 O.2       0 UNK        -0.5359 
      4 N          33.9292  -46.4757  -51.8985 N.am      1 UNK        -0.4300 
      5 CA         35.0740  -46.5804  -52.8118 C.3       1 UNK         0.0863 
      6 C6         35.0737  -45.4727  -53.8989 C.3       11 UNK        -0.0953 
      7 S7         33.4523  -45.1783  -54.6898 S.3       11 UNK        -0.2369 
      8 C8         33.2903  -43.3832  -54.4428 C.3       11 UNK         0.0226 
      9 C9         31.9295  -42.8746  -54.8898 C.ar      11 UNK        -0.0699 
     10 C10        30.8923  -42.7481  -53.9624 C.ar      11 UNK        -0.0804 
     11 C11        29.6361  -42.2833  -54.3621 C.ar      11 UNK        -0.0871 
     12 C12        29.4378  -41.8972  -55.6913 C.ar      11 UNK        -0.1008 
     13 C13        30.4656  -42.0188  -56.6304 C.ar      11 UNK        -0.0735 
     14 C14        31.7094  -42.5145  -56.2231 C.ar      11 UNK        -0.0945 
     15 C15        30.2454  -41.5877  -58.0757 C.3       11 UNK         0.0169 
     16 S16        29.2454  -42.7845  -59.0229 S.3       11 UNK        -0.2669 
     17 C17        27.5364  -42.2244  -58.7049 C.3       11 UNK        -0.0850 
     18 CA         26.7173  -43.1972  -57.8151 C.3       10 UNK         0.0855 
     19 C          25.3625  -42.5416  -57.4144 C.2       10 UNK         0.5543 
     20 N          24.2223  -43.0179  -57.8992 N.am      10 UNK        -0.7343 
     21 O          25.3526  -41.5806  -56.6495 O.2       10 UNK        -0.5027 
     22 N          26.6176  -44.5439  -58.4091 N.am      10 UNK        -0.4495 
     23 C          26.1930  -45.6337  -57.7545 C.2       10 UNK         0.4903 
     24 O          25.8164  -45.6140  -56.5810 O.2       10 UNK        -0.4860 
     25 CA         26.1560  -46.9638  -58.5290 C.3       9 UNK         0.0227 
     26 CB         27.0754  -47.0112  -59.7665 C.3       9 UNK        -0.1964 
     27 N          26.5115  -48.0451  -57.6130 N.am      9 UNK        -0.4231 
     28 C          25.9058  -49.2332  -57.5214 C.2       9 UNK         0.5014 
     29 O          24.9884  -49.5930  -58.2635 O.2       9 UNK        -0.5270 
     30 CA         26.4055  -50.1660  -56.3973 C.3       8 UNK         0.0284 
     31 CB         25.7400  -51.5589  -56.4216 C.3       8 UNK        -0.1977 
     32 N          27.8673  -50.2930  -56.3553 N.am      8 UNK        -0.4342 
     33 C          28.6793  -50.7366  -57.3257 C.2       8 UNK         0.5039 
     34 O          28.2970  -51.1490  -58.4229 O.2       8 UNK        -0.5547 
     35 CA         30.1824  -50.6910  -56.9933 C.3       7 UNK         0.0281 
     36 CB         31.0624  -51.4541  -58.0073 C.3       7 UNK        -0.1963 
     37 N          30.6471  -49.3128  -56.8051 N.am      7 UNK        -0.4444 
     38 C          30.6753  -48.3350  -57.7216 C.2       7 UNK         0.5104 
     39 O          30.3710  -48.4851  -58.9056 O.2       7 UNK        -0.5100 
     40 CA         31.1386  -46.9515  -57.2205 C.3       6 UNK         0.0396 
     41 CB         30.7623  -45.8147  -58.1871 C.3       6 UNK        -0.1801 
     42 N          30.7090  -46.5922  -55.8619 N.am      6 UNK        -0.4747 
     43 C          29.4689  -46.6353  -55.3522 C.2       6 UNK         0.5012 
     44 O          28.5123  -47.1801  -55.9006 O.2       6 UNK        -0.5003 
     45 CA         29.2587  -45.9609  -53.9861 C.3       5 UNK         0.0782 
     46 C46        28.0745  -44.9627  -54.0332 C.3       11 UNK        -0.0868 
     47 S47        28.1083  -43.8340  -52.5985 S.3       11 UNK        -0.2515 
     48 C48        28.4809  -42.2186  -53.3692 C.3       11 UNK         0.0199 
     49 N          29.0493  -46.9741  -52.9557 N.am      5 UNK        -0.4607 
     50 C          29.9746  -47.8256  -52.5054 C.2       4 UNK         0.5031 
     51 O          31.1578  -47.7985  -52.8580 O.2       4 UNK        -0.5119 
     52 CA         29.5122  -48.8691  -51.4676 C.3       4 UNK         0.0263 
     53 CB         27.9774  -48.9872  -51.3104 C.3       4 UNK        -0.1967 
     54 N          30.1151  -50.1750  -51.7383 N.am      4 UNK        -0.4237 
     55 C          29.9466  -50.9316  -52.8311 C.2       3 UNK         0.4908 
     56 O          29.1549  -50.6791  -53.7424 O.2       3 UNK        -0.5102 
     57 CA         30.9157  -52.1203  -52.9606 C.3       3 UNK         0.0241 
     58 CB         30.3259  -53.2891  -53.7719 C.3       3 UNK        -0.1971 
     59 N          32.1589  -51.6520  -53.5790 N.am      3 UNK        -0.4139 
     60 C          33.0617  -50.8857  -52.9498 C.2       2 UNK         0.5016 
     61 O          33.0350  -50.6723  -51.7346 O.2       2 UNK        -0.5319 
     62 CA         34.1416  -50.1988  -53.7969 C.3       2 UNK         0.0286 
     63 CB         33.9666  -50.3415  -55.3239 C.3       2 UNK        -0.1963 
     64 N          34.1479  -48.7867  -53.4211 N.am      2 UNK        -0.4790 
     65 C          35.2253  -47.9931  -53.4178 C.2       1 UNK         0.5024 
     66 O          36.3254  -48.3447  -53.8475 O.2       1 UNK        -0.4888 
     67 H67        32.2010  -47.7944  -49.6444 H         1 UNK         0.0892 
     68 H68        31.8423  -46.2638  -50.4496 H         1 UNK         0.0892 
     69 H69        32.7581  -46.2725  -48.9418 H         1 UNK         0.0892 
     70 H70        33.0868  -46.0986  -52.3106 H         1 UNK         0.3107 
     71 H71        35.9781  -46.4273  -52.2181 H         1 UNK         0.0773 
     72 H72        35.8075  -45.6835  -54.6794 H         1 UNK         0.0680 
     73 H73        35.4126  -44.5431  -53.4397 H         1 UNK         0.0680 
     74 H74        33.4467  -43.1464  -53.3891 H         1 UNK         0.0650 
     75 H75        34.0798  -42.8713  -54.9952 H         1 UNK         0.0650 
     76 H76        31.0534  -43.0335  -52.9315 H         1 UNK         0.1397 
     77 H77        28.4767  -41.5108  -55.9995 H         1 UNK         0.1363 
     78 H78        32.5124  -42.6118  -56.9411 H         1 UNK         0.1355 
     79 H79        31.2070  -41.4805  -58.5799 H         1 UNK         0.0707 
     80 H80        29.7865  -40.5987  -58.1051 H         1 UNK         0.0707 
     81 H81        27.0406  -42.0946  -59.6686 H         1 UNK         0.1034 
     82 H82        27.5670  -41.2285  -58.2593 H         1 UNK         0.1034 
     83 H83        27.2650  -43.3217  -56.8811 H         1 UNK         0.0482 
     84 H84        24.2236  -43.8084  -58.5232 H         1 UNK         0.3460 
     85 H85        23.3520  -42.5866  -57.6307 H         1 UNK         0.3460 
     86 H86        26.9170  -44.6304  -59.3687 H         1 UNK         0.2989 
     87 H87        25.1243  -47.0916  -58.8620 H         1 UNK         0.0559 
     88 H88        27.0334  -47.9902  -60.2446 H         1 UNK         0.0848 
     89 H89        28.1167  -46.8241  -59.5053 H         1 UNK         0.0848 
     90 H90        26.7786  -46.2805  -60.5192 H         1 UNK         0.0848 
     91 H91        27.2319  -47.8043  -56.9285 H         1 UNK         0.3144 
     92 H92        26.1205  -49.6854  -55.4601 H         1 UNK         0.0727 
     93 H93        26.0831  -52.1760  -55.5912 H         1 UNK         0.0790 
     94 H94        25.9536  -52.0933  -57.3479 H         1 UNK         0.0790 
     95 H95        24.6559  -51.4755  -56.3367 H         1 UNK         0.0790 
     96 H96        28.2988  -50.0322  -55.4727 H         1 UNK         0.3215 
     97 H97        30.3077  -51.1830  -56.0323 H         1 UNK         0.0863 
     98 H98        32.1148  -51.4209  -57.7266 H         1 UNK         0.0808 
     99 H99        30.9722  -51.0495  -59.0156 H         1 UNK         0.0808 
    100 H100       30.7715  -52.5040  -58.0560 H         1 UNK         0.0808 
    101 H101       30.8634  -49.0449  -55.8551 H         1 UNK         0.3118 
    102 H102       32.2278  -47.0029  -57.1878 H         1 UNK         0.0546 
    103 H103       29.6835  -45.6677  -58.2267 H         1 UNK         0.0828 
    104 H104       31.1079  -46.0142  -59.2020 H         1 UNK         0.0828 
    105 H105       31.2135  -44.8731  -57.8769 H         1 UNK         0.0828 
    106 H106       31.4383  -46.1797  -55.2925 H         1 UNK         0.3005 
    107 H107       30.1688  -45.4117  -53.7390 H         1 UNK         0.1257 
    108 H108       28.0877  -44.3798  -54.9545 H         1 UNK         0.0775 
    109 H109       27.1198  -45.4922  -54.0427 H         1 UNK         0.0775 
    110 H110       27.5748  -41.8532  -53.8556 H         1 UNK         0.0840 
    111 H111       28.7207  -41.4978  -52.5866 H         1 UNK         0.0840 
    112 H112       28.1027  -47.0708  -52.6209 H         1 UNK         0.2987 
    113 H113       29.9167  -48.5404  -50.5097 H         1 UNK         0.0785 
    114 H114       27.7180  -49.7687  -50.5960 H         1 UNK         0.0798 
    115 H115       27.4826  -49.2279  -52.2523 H         1 UNK         0.0798 
    116 H116       27.5436  -48.0606  -50.9324 H         1 UNK         0.0798 
    117 H117       30.8951  -50.4197  -51.1395 H         1 UNK         0.3079 
    118 H118       31.1349  -52.4975  -51.9590 H         1 UNK         0.0794 
    119 H119       29.3984  -53.6417  -53.3189 H         1 UNK         0.0786 
    120 H120       31.0127  -54.1352  -53.7983 H         1 UNK         0.0786 
    121 H121       30.0961  -53.0172  -54.8004 H         1 UNK         0.0786 
    122 H122       32.2495  -51.7825  -54.5752 H         1 UNK         0.3032 
    123 H123       35.0917  -50.6548  -53.5093 H         1 UNK         0.1094 
    124 H124       33.9761  -51.3869  -55.6344 H         1 UNK         0.0794 
    125 H125       33.0373  -49.8910  -55.6676 H         1 UNK         0.0794 
    126 H126       34.7811  -49.8501  -55.8566 H         1 UNK         0.0794 
    127 H127       33.2833  -48.4394  -53.0175 H         1 UNK         0.3016 
@<TRIPOS>BOND
     1    1    2 1    
     2    1   67 1    
     3    1   68 1    
     4    1   69 1    
     5    2    3 2    
     6    2    4 am   BACKBONE|DICT|INTERRES
     7    4    5 1    
     8    4   70 1    
     9    5    6 1    
    10    5   65 1    
    11    5   71 1    
    12    6    7 1    
    13    6   72 1    
    14    6   73 1    
    15    7    8 1    
    16    8    9 1    
    17    8   74 1    
    18    8   75 1    
    19    9   10 ar   
    20    9   14 ar   
    21   10   11 ar   
    22   10   76 1    
    23   11   12 ar   
    24   11   48 1    
    25   12   13 ar   
    26   12   77 1    
    27   13   14 ar   
    28   13   15 1    
    29   14   78 1    
    30   15   16 1    
    31   15   79 1    
    32   15   80 1    
    33   16   17 1    
    34   17   18 1    
    35   17   81 1    
    36   17   82 1    
    37   18   19 1    
    38   18   22 1    
    39   18   83 1    
    40   19   20 am   BACKBONE|DICT|INTERRES
    41   19   21 2    
    42   20   84 1    
    43   20   85 1    
    44   22   23 am   BACKBONE|DICT|INTERRES
    45   22   86 1    
    46   23   24 2    
    47   23   25 1    
    48   25   26 1    
    49   25   27 1    
    50   25   87 1    
    51   26   88 1    
    52   26   89 1    
    53   26   90 1    
    54   27   28 am   BACKBONE|DICT|INTERRES
    55   27   91 1    
    56   28   29 2    
    57   28   30 1    
    58   30   31 1    
    59   30   32 1    
    60   30   92 1    
    61   31   93 1    
    62   31   94 1    
    63   31   95 1    
    64   32   33 am   BACKBONE|DICT|INTERRES
    65   32   96 1    
    66   33   34 2    
    67   33   35 1    
    68   35   36 1    
    69   35   37 1    
    70   35   97 1    
    71   36   98 1    
    72   36   99 1    
    73   36  100 1    
    74   37   38 am   BACKBONE|DICT|INTERRES
    75   37  101 1    
    76   38   39 2    
    77   38   40 1    
    78   40   41 1    
    79   40   42 1    
    80   40  102 1    
    81   41  103 1    
    82   41  104 1    
    83   41  105 1    
    84   42   43 am   BACKBONE|DICT|INTERRES
    85   42  106 1    
    86   43   44 2    
    87   43   45 1    
    88   45   46 1    
    89   45   49 1    
    90   45  107 1    
    91   46   47 1    
    92   46  108 1    
    93   46  109 1    
    94   47   48 1    
    95   48  110 1    
    96   48  111 1    
    97   49   50 am   BACKBONE|DICT|INTERRES
    98   49  112 1    
    99   50   51 2    
   100   50   52 1    
   101   52   53 1    
   102   52   54 1    
   103   52  113 1    
   104   53  114 1    
   105   53  115 1    
   106   53  116 1    
   107   54   55 am   BACKBONE|DICT|INTERRES
   108   54  117 1    
   109   55   56 2    
   110   55   57 1    
   111   57   58 1    
   112   57   59 1    
   113   57  118 1    
   114   58  119 1    
   115   58  120 1    
   116   58  121 1    
   117   59   60 am   BACKBONE|DICT|INTERRES
   118   59  122 1    
   119   60   61 2    
   120   60   62 1    
   121   62   63 1    
   122   62   64 1    
   123   62  123 1    
   124   63  124 1    
   125   63  125 1    
   126   63  126 1    
   127   64   65 am   BACKBONE|DICT|INTERRES
   128   64  127 1    
   129   65   66 2    
@<TRIPOS>SUBSTRUCTURE
     1 UNK         1 GROUP             0       ****    0 ROOT    
