@<TRIPOS>MOLECULE
3R134
127   129    1
SMALL
USER_CHARGES


@<TRIPOS>ATOM
      1 CA         34.7370  -46.8427  -48.8820 C.3       0 UNK        -0.1968 
      2 C          34.4982  -46.1416  -50.2106 C.2       0 UNK         0.4852 
      3 O          33.4954  -46.4169  -50.8710 O.2       0 UNK        -0.5359 
      4 N          35.4146  -45.2475  -50.6107 N.am      1 UNK        -0.4300 
      5 CA         35.3986  -44.4954  -51.8707 C.3       1 UNK         0.0863 
      6 C6         34.2228  -43.4809  -51.9366 C.3       11 UNK        -0.0953 
      7 S7         34.5277  -42.1418  -53.1346 S.3       11 UNK        -0.2369 
      8 C8         32.8513  -41.4693  -53.3549 C.3       11 UNK         0.0226 
      9 C9         32.0000  -42.3656  -54.2407 C.ar      11 UNK        -0.0699 
     10 C10        31.0763  -43.2496  -53.6764 C.ar      11 UNK        -0.0804 
     11 C11        30.3108  -44.0878  -54.4910 C.ar      11 UNK        -0.0871 
     12 C12        30.4697  -44.0355  -55.8788 C.ar      11 UNK        -0.1008 
     13 C13        31.3651  -43.1309  -56.4558 C.ar      11 UNK        -0.0735 
     14 C14        32.1316  -42.3025  -55.6309 C.ar      11 UNK        -0.0945 
     15 C15        31.5142  -43.0492  -57.9672 C.3       11 UNK         0.0169 
     16 S16        30.2314  -41.9868  -58.7085 S.3       11 UNK        -0.2669 
     17 C17        28.8613  -43.1641  -58.9766 C.3       11 UNK        -0.0850 
     18 CA         27.7484  -43.0833  -57.8973 C.3       10 UNK         0.0855 
     19 C          26.7746  -41.8993  -58.1494 C.2       10 UNK         0.5543 
     20 N          27.0219  -40.7489  -57.5388 N.am      10 UNK        -0.7343 
     21 O          25.8207  -42.0063  -58.9183 O.2       10 UNK        -0.5027 
     22 N          27.0530  -44.3719  -57.8110 N.am      10 UNK        -0.4495 
     23 C          26.1959  -44.7568  -56.8620 C.2       10 UNK         0.4903 
     24 O          25.9417  -44.0907  -55.8586 O.2       10 UNK        -0.4860 
     25 CA         25.5141  -46.1284  -57.0492 C.3       9 UNK         0.0227 
     26 CB         24.2838  -46.0106  -57.9694 C.3       9 UNK        -0.1964 
     27 N          26.4062  -47.2204  -57.4798 N.am      9 UNK        -0.4231 
     28 C          27.0845  -47.3493  -58.6324 C.2       9 UNK         0.5014 
     29 O          27.0345  -46.5324  -59.5535 O.2       9 UNK        -0.5270 
     30 CA         28.0177  -48.5611  -58.7828 C.3       8 UNK         0.0284 
     31 CB         29.4422  -48.1952  -58.3306 C.3       8 UNK        -0.1977 
     32 N          27.5742  -49.7634  -58.0739 N.am      8 UNK        -0.4342 
     33 C          26.5388  -50.5290  -58.4480 C.2       8 UNK         0.5039 
     34 O          25.7809  -50.2499  -59.3777 O.2       8 UNK        -0.5547 
     35 CA         26.3240  -51.8380  -57.6734 C.3       7 UNK         0.0281 
     36 CB         27.3385  -52.9026  -58.1250 C.3       7 UNK        -0.1963 
     37 N          26.4551  -51.6265  -56.2327 N.am      7 UNK        -0.4444 
     38 C          25.4294  -51.5521  -55.3733 C.2       7 UNK         0.5104 
     39 O          24.2527  -51.7325  -55.6885 O.2       7 UNK        -0.5100 
     40 CA         25.7654  -51.2080  -53.9076 C.3       6 UNK         0.0396 
     41 CB         25.8845  -52.4914  -53.0706 C.3       6 UNK        -0.1801 
     42 N          26.9892  -50.4149  -53.7516 N.am      6 UNK        -0.4747 
     43 C          27.1706  -49.1852  -54.2550 C.2       6 UNK         0.5012 
     44 O          26.2993  -48.5593  -54.8572 O.2       6 UNK        -0.5003 
     45 CA         28.5758  -48.5680  -54.1405 C.3       5 UNK         0.0782 
     46 C46        28.6574  -47.5769  -52.9583 C.3       11 UNK        -0.0868 
     47 S47        30.1071  -46.4897  -53.1399 S.3       11 UNK        -0.2515 
     48 C48        29.2982  -45.0350  -53.8733 C.3       11 UNK         0.0199 
     49 N          29.6604  -49.5554  -54.0951 N.am      5 UNK        -0.4607 
     50 C          29.9464  -50.4657  -55.0338 C.2       4 UNK         0.5031 
     51 O          29.2390  -50.6448  -56.0268 O.2       4 UNK        -0.5119 
     52 CA         31.2212  -51.3117  -54.8363 C.3       4 UNK         0.0263 
     53 CB         31.7534  -51.8661  -56.1705 C.3       4 UNK        -0.1967 
     54 N          32.2994  -50.5746  -54.1689 N.am      4 UNK        -0.4237 
     55 C          32.4106  -50.3470  -52.8553 C.2       3 UNK         0.4908 
     56 O          31.5887  -50.7463  -52.0306 O.2       3 UNK        -0.5102 
     57 CA         33.6011  -49.4977  -52.3782 C.3       3 UNK         0.0241 
     58 CB         34.8942  -50.3322  -52.3042 C.3       3 UNK        -0.1971 
     59 N          33.8029  -48.2484  -53.1274 N.am      3 UNK        -0.4139 
     60 C          34.1740  -48.0761  -54.4069 C.2       2 UNK         0.5016 
     61 O          34.3752  -49.0052  -55.1908 O.2       2 UNK        -0.5319 
     62 CA         34.3330  -46.6315  -54.9196 C.3       2 UNK         0.0286 
     63 CB         33.1658  -46.2650  -55.8481 C.3       2 UNK        -0.1963 
     64 N          34.4314  -45.6339  -53.8491 N.am      2 UNK        -0.4790 
     65 C          35.5074  -45.4711  -53.0655 C.2       1 UNK         0.5024 
     66 O          36.5611  -46.0893  -53.2294 O.2       1 UNK        -0.4888 
     67 H67        33.9009  -46.6603  -48.2075 H         1 UNK         0.0892 
     68 H68        35.6481  -46.4963  -48.3946 H         1 UNK         0.0892 
     69 H69        34.8219  -47.9179  -49.0370 H         1 UNK         0.0892 
     70 H70        36.2307  -45.0941  -50.0345 H         1 UNK         0.3107 
     71 H71        36.3273  -43.9220  -51.8695 H         1 UNK         0.0773 
     72 H72        33.2729  -43.9762  -52.1360 H         1 UNK         0.0680 
     73 H73        34.1000  -43.0025  -50.9637 H         1 UNK         0.0680 
     74 H74        32.3827  -41.3253  -52.3800 H         1 UNK         0.0650 
     75 H75        32.9267  -40.4790  -53.8065 H         1 UNK         0.0650 
     76 H76        30.9564  -43.2939  -52.6024 H         1 UNK         0.1397 
     77 H77        29.8843  -44.6869  -56.5128 H         1 UNK         0.1363 
     78 H78        32.8360  -41.6090  -56.0696 H         1 UNK         0.1355 
     79 H79        31.4934  -44.0474  -58.4065 H         1 UNK         0.0707 
     80 H80        32.4915  -42.6350  -58.2200 H         1 UNK         0.0707 
     81 H81        29.2815  -44.1704  -59.0111 H         1 UNK         0.1034 
     82 H82        28.4476  -43.0002  -59.9738 H         1 UNK         0.1034 
     83 H83        28.2134  -42.9236  -56.9238 H         1 UNK         0.0482 
     84 H84        27.8216  -40.6480  -56.9331 H         1 UNK         0.3460 
     85 H85        26.4102  -39.9641  -57.6992 H         1 UNK         0.3460 
     86 H86        27.1443  -44.9922  -58.6126 H         1 UNK         0.2989 
     87 H87        25.1493  -46.4257  -56.0649 H         1 UNK         0.0559 
     88 H88        24.5548  -45.7006  -58.9790 H         1 UNK         0.0848 
     89 H89        23.5801  -45.2717  -57.5839 H         1 UNK         0.0848 
     90 H90        23.7513  -46.9590  -58.0416 H         1 UNK         0.0848 
     91 H91        26.5238  -47.9458  -56.7799 H         1 UNK         0.3144 
     92 H92        28.0592  -48.8039  -59.8469 H         1 UNK         0.0727 
     93 H93        30.1354  -49.0203  -58.4963 H         1 UNK         0.0790 
     94 H94        29.4815  -47.9351  -57.2734 H         1 UNK         0.0790 
     95 H95        29.8212  -47.3382  -58.8894 H         1 UNK         0.0790 
     96 H96        28.1777  -50.0928  -57.3208 H         1 UNK         0.3215 
     97 H97        25.3239  -52.2057  -57.9138 H         1 UNK         0.0863 
     98 H98        27.1562  -53.8560  -57.6288 H         1 UNK         0.0808 
     99 H99        28.3658  -52.6056  -57.9096 H         1 UNK         0.0808 
    100 H100       27.2674  -53.0781  -59.1993 H         1 UNK         0.0808 
    101 H101       27.3894  -51.4333  -55.8886 H         1 UNK         0.3118 
    102 H102       24.9360  -50.6180  -53.5122 H         1 UNK         0.0546 
    103 H103       24.9758  -53.0906  -53.1443 H         1 UNK         0.0828 
    104 H104       26.0354  -52.2657  -52.0149 H         1 UNK         0.0828 
    105 H105       26.7139  -53.1164  -53.4041 H         1 UNK         0.0828 
    106 H106       27.7647  -50.8557  -53.2775 H         1 UNK         0.3005 
    107 H107       28.7123  -47.9997  -55.0620 H         1 UNK         0.1257 
    108 H108       28.7306  -48.1104  -52.0088 H         1 UNK         0.0775 
    109 H109       27.7587  -46.9597  -52.8883 H         1 UNK         0.0775 
    110 H110       28.5785  -45.3558  -54.6286 H         1 UNK         0.0840 
    111 H111       28.7238  -44.5139  -53.1058 H         1 UNK         0.0840 
    112 H112       30.2722  -49.5059  -53.2909 H         1 UNK         0.2987 
    113 H113       30.9413  -52.1605  -54.2092 H         1 UNK         0.0785 
    114 H114       32.0150  -51.0639  -56.8620 H         1 UNK         0.0798 
    115 H115       31.0088  -52.4931  -56.6632 H         1 UNK         0.0798 
    116 H116       32.6405  -52.4813  -56.0192 H         1 UNK         0.0798 
    117 H117       33.0125  -50.1565  -54.7647 H         1 UNK         0.3079 
    118 H118       33.3637  -49.1834  -51.3605 H         1 UNK         0.0794 
    119 H119       35.2037  -50.6987  -53.2834 H         1 UNK         0.0786 
    120 H120       34.7580  -51.2030  -51.6615 H         1 UNK         0.0786 
    121 H121       35.7166  -49.7488  -51.8899 H         1 UNK         0.0786 
    122 H122       33.6341  -47.4105  -52.5755 H         1 UNK         0.3032 
    123 H123       35.2553  -46.5997  -55.5043 H         1 UNK         0.1094 
    124 H124       33.2971  -45.2699  -56.2724 H         1 UNK         0.0794 
    125 H125       33.0921  -46.9642  -56.6822 H         1 UNK         0.0794 
    126 H126       32.2118  -46.2867  -55.3217 H         1 UNK         0.0794 
    127 H127       33.6021  -45.0900  -53.6539 H         1 UNK         0.3016 
@<TRIPOS>BOND
     1    1    2 1    
     2    1   67 1    
     3    1   68 1    
     4    1   69 1    
     5    2    3 2    
     6    2    4 am   BACKBONE|DICT|INTERRES
     7    4    5 1    
     8    4   70 1    
     9    5    6 1    
    10    5   65 1    
    11    5   71 1    
    12    6    7 1    
    13    6   72 1    
    14    6   73 1    
    15    7    8 1    
    16    8    9 1    
    17    8   74 1    
    18    8   75 1    
    19    9   10 ar   
    20    9   14 ar   
    21   10   11 ar   
    22   10   76 1    
    23   11   12 ar   
    24   11   48 1    
    25   12   13 ar   
    26   12   77 1    
    27   13   14 ar   
    28   13   15 1    
    29   14   78 1    
    30   15   16 1    
    31   15   79 1    
    32   15   80 1    
    33   16   17 1    
    34   17   18 1    
    35   17   81 1    
    36   17   82 1    
    37   18   19 1    
    38   18   22 1    
    39   18   83 1    
    40   19   20 am   BACKBONE|DICT|INTERRES
    41   19   21 2    
    42   20   84 1    
    43   20   85 1    
    44   22   23 am   BACKBONE|DICT|INTERRES
    45   22   86 1    
    46   23   24 2    
    47   23   25 1    
    48   25   26 1    
    49   25   27 1    
    50   25   87 1    
    51   26   88 1    
    52   26   89 1    
    53   26   90 1    
    54   27   28 am   BACKBONE|DICT|INTERRES
    55   27   91 1    
    56   28   29 2    
    57   28   30 1    
    58   30   31 1    
    59   30   32 1    
    60   30   92 1    
    61   31   93 1    
    62   31   94 1    
    63   31   95 1    
    64   32   33 am   BACKBONE|DICT|INTERRES
    65   32   96 1    
    66   33   34 2    
    67   33   35 1    
    68   35   36 1    
    69   35   37 1    
    70   35   97 1    
    71   36   98 1    
    72   36   99 1    
    73   36  100 1    
    74   37   38 am   BACKBONE|DICT|INTERRES
    75   37  101 1    
    76   38   39 2    
    77   38   40 1    
    78   40   41 1    
    79   40   42 1    
    80   40  102 1    
    81   41  103 1    
    82   41  104 1    
    83   41  105 1    
    84   42   43 am   BACKBONE|DICT|INTERRES
    85   42  106 1    
    86   43   44 2    
    87   43   45 1    
    88   45   46 1    
    89   45   49 1    
    90   45  107 1    
    91   46   47 1    
    92   46  108 1    
    93   46  109 1    
    94   47   48 1    
    95   48  110 1    
    96   48  111 1    
    97   49   50 am   BACKBONE|DICT|INTERRES
    98   49  112 1    
    99   50   51 2    
   100   50   52 1    
   101   52   53 1    
   102   52   54 1    
   103   52  113 1    
   104   53  114 1    
   105   53  115 1    
   106   53  116 1    
   107   54   55 am   BACKBONE|DICT|INTERRES
   108   54  117 1    
   109   55   56 2    
   110   55   57 1    
   111   57   58 1    
   112   57   59 1    
   113   57  118 1    
   114   58  119 1    
   115   58  120 1    
   116   58  121 1    
   117   59   60 am   BACKBONE|DICT|INTERRES
   118   59  122 1    
   119   60   61 2    
   120   60   62 1    
   121   62   63 1    
   122   62   64 1    
   123   62  123 1    
   124   63  124 1    
   125   63  125 1    
   126   63  126 1    
   127   64   65 am   BACKBONE|DICT|INTERRES
   128   64  127 1    
   129   65   66 2    
@<TRIPOS>SUBSTRUCTURE
     1 UNK         1 GROUP             0       ****    0 ROOT    
