@<TRIPOS>MOLECULE
3R134
127   129    1
SMALL
USER_CHARGES


@<TRIPOS>ATOM
      1 CA         36.3994  -44.4794  -46.9933 C.3       0 UNK        -0.1968 
      2 C          35.4568  -45.0395  -48.0482 C.2       0 UNK         0.4852 
      3 O          34.5223  -45.7683  -47.7091 O.2       0 UNK        -0.5359 
      4 N          35.6926  -44.7085  -49.3249 N.am      1 UNK        -0.4300 
      5 CA         34.8681  -45.1162  -50.4639 C.3       1 UNK         0.0863 
      6 C6         35.6853  -45.1087  -51.7820 C.3       11 UNK        -0.0953 
      7 S7         34.8317  -45.9836  -53.1382 S.3       11 UNK        -0.2369 
      8 C8         34.6187  -44.6364  -54.3401 C.3       11 UNK         0.0226 
      9 C9         33.7909  -45.0693  -55.5415 C.ar      11 UNK        -0.0699 
     10 C10        34.3768  -45.8103  -56.5728 C.ar      11 UNK        -0.0804 
     11 C11        33.6349  -46.1680  -57.7039 C.ar      11 UNK        -0.0871 
     12 C12        32.2950  -45.7768  -57.7982 C.ar      11 UNK        -0.1008 
     13 C13        31.7029  -45.0220  -56.7801 C.ar      11 UNK        -0.0735 
     14 C14        32.4516  -44.6829  -55.6489 C.ar      11 UNK        -0.0945 
     15 C15        30.2775  -44.5116  -56.9284 C.3       11 UNK         0.0169 
     16 S16        29.0834  -45.5616  -56.0537 S.3       11 UNK        -0.2669 
     17 C17        27.5630  -44.5799  -56.2884 C.3       11 UNK        -0.0850 
     18 CA         26.4042  -45.0124  -55.3511 C.3       10 UNK         0.0855 
     19 C          25.1702  -44.0772  -55.5223 C.2       10 UNK         0.5543 
     20 N          23.9982  -44.5680  -55.9113 N.am      10 UNK        -0.7343 
     21 O          25.2777  -42.8762  -55.2866 O.2       10 UNK        -0.5027 
     22 N          26.0910  -46.4423  -55.4894 N.am      10 UNK        -0.4495 
     23 C          25.4966  -47.1852  -54.5453 C.2       10 UNK         0.4903 
     24 O          25.2281  -46.7632  -53.4194 O.2       10 UNK        -0.4860 
     25 CA         25.1439  -48.6435  -54.9136 C.3       9 UNK         0.0227 
     26 CB         23.9775  -49.2015  -54.0704 C.3       9 UNK        -0.1964 
     27 N          24.8880  -48.8486  -56.3454 N.am      9 UNK        -0.4231 
     28 C          23.9734  -48.2264  -57.1065 C.2       9 UNK         0.5014 
     29 O          23.1606  -47.4072  -56.6721 O.2       9 UNK        -0.5270 
     30 CA         24.0228  -48.5434  -58.6167 C.3       8 UNK         0.0284 
     31 CB         23.2720  -47.4956  -59.4659 C.3       8 UNK        -0.1977 
     32 N          25.3914  -48.7262  -59.1265 N.am      8 UNK        -0.4342 
     33 C          26.4144  -47.8635  -59.0336 C.2       8 UNK         0.5039 
     34 O          26.3408  -46.7779  -58.4587 O.2       8 UNK        -0.5547 
     35 CA         27.7515  -48.3244  -59.6391 C.3       7 UNK         0.0281 
     36 CB         28.8215  -47.2167  -59.6418 C.3       7 UNK        -0.1963 
     37 N          28.2877  -49.4867  -58.9304 N.am      7 UNK        -0.4444 
     38 C          27.8874  -50.7552  -59.1011 C.2       7 UNK         0.5104 
     39 O          26.9414  -51.0702  -59.8262 O.2       7 UNK        -0.5100 
     40 CA         28.6633  -51.8453  -58.3293 C.3       6 UNK         0.0396 
     41 CB         28.6249  -53.2151  -59.0388 C.3       6 UNK        -0.1801 
     42 N          30.0438  -51.4544  -58.0113 N.am      6 UNK        -0.4747 
     43 C          31.0159  -51.1144  -58.8745 C.2       6 UNK         0.5012 
     44 O          30.9081  -51.2301  -60.0962 O.2       6 UNK        -0.5003 
     45 CA         32.3206  -50.5302  -58.2846 C.3       5 UNK         0.0782 
     46 C46        32.8145  -49.3017  -59.1008 C.3       11 UNK        -0.0868 
     47 S47        34.4461  -48.7016  -58.5430 S.3       11 UNK        -0.2515 
     48 C48        34.3081  -46.9125  -58.8500 C.3       11 UNK         0.0199 
     49 N          32.2639  -50.2615  -56.8376 N.am      5 UNK        -0.4607 
     50 C          31.5275  -49.3297  -56.2166 C.2       4 UNK         0.5031 
     51 O          30.6241  -48.6905  -56.7617 O.2       4 UNK        -0.5119 
     52 CA         31.8556  -49.0986  -54.7344 C.3       4 UNK         0.0263 
     53 CB         33.3779  -48.9538  -54.5065 C.3       4 UNK        -0.1967 
     54 N          31.1393  -47.9150  -54.2601 N.am      4 UNK        -0.4237 
     55 C          31.0123  -47.5460  -52.9812 C.2       3 UNK         0.4908 
     56 O          31.4946  -48.1679  -52.0298 O.2       3 UNK        -0.5102 
     57 CA         30.1857  -46.2876  -52.6990 C.3       3 UNK         0.0241 
     58 CB         28.6923  -46.6358  -52.5575 C.3       3 UNK        -0.1971 
     59 N          30.6916  -45.6890  -51.4707 N.am      3 UNK        -0.4139 
     60 C          30.4750  -44.4419  -51.0379 C.2       2 UNK         0.5016 
     61 O          29.7367  -43.6314  -51.5983 O.2       2 UNK        -0.5319 
     62 CA         31.2437  -44.0211  -49.7722 C.3       2 UNK         0.0286 
     63 CB         30.4660  -44.4130  -48.5055 C.3       2 UNK        -0.1963 
     64 N          32.5855  -44.6111  -49.7254 N.am      2 UNK        -0.4790 
     65 C          33.5946  -44.2468  -50.5279 C.2       1 UNK         0.5024 
     66 O          33.5486  -43.2667  -51.2734 O.2       1 UNK        -0.4888 
     67 H67        36.8761  -45.2928  -46.4469 H         1 UNK         0.0892 
     68 H68        37.1824  -43.8611  -47.4319 H         1 UNK         0.0892 
     69 H69        35.8444  -43.8693  -46.2811 H         1 UNK         0.0892 
     70 H70        36.4575  -44.0846  -49.5406 H         1 UNK         0.3107 
     71 H71        34.5517  -46.1483  -50.2938 H         1 UNK         0.0773 
     72 H72        35.9460  -44.0923  -52.0833 H         1 UNK         0.0680 
     73 H73        36.6347  -45.6235  -51.6268 H         1 UNK         0.0680 
     74 H74        34.1483  -43.7840  -53.8483 H         1 UNK         0.0650 
     75 H75        35.5999  -44.2958  -54.6741 H         1 UNK         0.0650 
     76 H76        35.4165  -46.0989  -56.4995 H         1 UNK         0.1397 
     77 H77        31.7191  -46.0342  -58.6764 H         1 UNK         0.1363 
     78 H78        31.9977  -44.0930  -54.8642 H         1 UNK         0.1355 
     79 H79        30.0001  -44.4580  -57.9824 H         1 UNK         0.0707 
     80 H80        30.2165  -43.4929  -56.5422 H         1 UNK         0.0707 
     81 H81        27.2605  -44.6492  -57.3343 H         1 UNK         0.1034 
     82 H82        27.8065  -43.5301  -56.1143 H         1 UNK         0.1034 
     83 H83        26.7513  -44.8521  -54.3288 H         1 UNK         0.0482 
     84 H84        23.8850  -45.5559  -56.1098 H         1 UNK         0.3460 
     85 H85        23.2128  -43.9452  -56.0111 H         1 UNK         0.3460 
     86 H86        26.2420  -46.8251  -56.4170 H         1 UNK         0.2989 
     87 H87        26.0315  -49.2323  -54.6782 H         1 UNK         0.0559 
     88 H88        23.7566  -50.2362  -54.3321 H         1 UNK         0.0848 
     89 H89        23.0659  -48.6187  -54.2071 H         1 UNK         0.0848 
     90 H90        24.2174  -49.1836  -53.0065 H         1 UNK         0.0848 
     91 H91        25.5183  -49.4839  -56.8136 H         1 UNK         0.3144 
     92 H92        23.5144  -49.5003  -58.7432 H         1 UNK         0.0727 
     93 H93        23.2993  -47.7496  -60.5254 H         1 UNK         0.0790 
     94 H94        23.7015  -46.4999  -59.3482 H         1 UNK         0.0790 
     95 H95        22.2224  -47.4338  -59.1759 H         1 UNK         0.0790 
     96 H96        25.5934  -49.6228  -59.5624 H         1 UNK         0.3215 
     97 H97        27.5586  -48.5992  -60.6785 H         1 UNK         0.0863 
     98 H98        29.7204  -47.5361  -60.1691 H         1 UNK         0.0808 
     99 H99        29.1125  -46.9394  -58.6289 H         1 UNK         0.0808 
    100 H100       28.4560  -46.3160  -60.1366 H         1 UNK         0.0808 
    101 H101       29.0429  -49.3046  -58.2785 H         1 UNK         0.3118 
    102 H102       28.1522  -51.9561  -57.3721 H         1 UNK         0.0546 
    103 H103       29.0502  -53.1656  -60.0415 H         1 UNK         0.0828 
    104 H104       27.6002  -53.5745  -59.1404 H         1 UNK         0.0828 
    105 H105       29.1759  -53.9692  -58.4771 H         1 UNK         0.0828 
    106 H106       30.2419  -51.3130  -57.0304 H         1 UNK         0.3005 
    107 H107       33.0608  -51.3221  -58.4112 H         1 UNK         0.1257 
    108 H108       32.9084  -49.5493  -60.1598 H         1 UNK         0.0775 
    109 H109       32.0866  -48.4910  -59.0431 H         1 UNK         0.0775 
    110 H110       35.3115  -46.5096  -58.9961 H         1 UNK         0.0840 
    111 H111       33.7798  -46.7394  -59.7890 H         1 UNK         0.0840 
    112 H112       32.9547  -50.7550  -56.2905 H         1 UNK         0.2987 
    113 H113       31.4894  -49.9638  -54.1785 H         1 UNK         0.0785 
    114 H114       33.6178  -48.7582  -53.4622 H         1 UNK         0.0798 
    115 H115       33.7903  -48.1384  -55.1003 H         1 UNK         0.0798 
    116 H116       33.9186  -49.8603  -54.7779 H         1 UNK         0.0798 
    117 H117       30.6807  -47.3878  -54.9973 H         1 UNK         0.3079 
    118 H118       30.3348  -45.5753  -53.5110 H         1 UNK         0.0794 
    119 H119       28.0847  -45.7438  -52.4063 H         1 UNK         0.0786 
    120 H120       28.5131  -47.3099  -51.7193 H         1 UNK         0.0786 
    121 H121       28.3218  -47.1276  -53.4572 H         1 UNK         0.0786 
    122 H122       31.3267  -46.2891  -50.9589 H         1 UNK         0.3032 
    123 H123       31.3434  -42.9332  -49.7917 H         1 UNK         0.1094 
    124 H124       29.4693  -43.9694  -48.5086 H         1 UNK         0.0794 
    125 H125       30.3418  -45.4935  -48.4230 H         1 UNK         0.0794 
    126 H126       30.9725  -44.0634  -47.6056 H         1 UNK         0.0794 
    127 H127       32.7461  -45.3635  -49.0659 H         1 UNK         0.3016 
@<TRIPOS>BOND
     1    1    2 1    
     2    1   67 1    
     3    1   68 1    
     4    1   69 1    
     5    2    3 2    
     6    2    4 am   BACKBONE|DICT|INTERRES
     7    4    5 1    
     8    4   70 1    
     9    5    6 1    
    10    5   65 1    
    11    5   71 1    
    12    6    7 1    
    13    6   72 1    
    14    6   73 1    
    15    7    8 1    
    16    8    9 1    
    17    8   74 1    
    18    8   75 1    
    19    9   10 ar   
    20    9   14 ar   
    21   10   11 ar   
    22   10   76 1    
    23   11   12 ar   
    24   11   48 1    
    25   12   13 ar   
    26   12   77 1    
    27   13   14 ar   
    28   13   15 1    
    29   14   78 1    
    30   15   16 1    
    31   15   79 1    
    32   15   80 1    
    33   16   17 1    
    34   17   18 1    
    35   17   81 1    
    36   17   82 1    
    37   18   19 1    
    38   18   22 1    
    39   18   83 1    
    40   19   20 am   BACKBONE|DICT|INTERRES
    41   19   21 2    
    42   20   84 1    
    43   20   85 1    
    44   22   23 am   BACKBONE|DICT|INTERRES
    45   22   86 1    
    46   23   24 2    
    47   23   25 1    
    48   25   26 1    
    49   25   27 1    
    50   25   87 1    
    51   26   88 1    
    52   26   89 1    
    53   26   90 1    
    54   27   28 am   BACKBONE|DICT|INTERRES
    55   27   91 1    
    56   28   29 2    
    57   28   30 1    
    58   30   31 1    
    59   30   32 1    
    60   30   92 1    
    61   31   93 1    
    62   31   94 1    
    63   31   95 1    
    64   32   33 am   BACKBONE|DICT|INTERRES
    65   32   96 1    
    66   33   34 2    
    67   33   35 1    
    68   35   36 1    
    69   35   37 1    
    70   35   97 1    
    71   36   98 1    
    72   36   99 1    
    73   36  100 1    
    74   37   38 am   BACKBONE|DICT|INTERRES
    75   37  101 1    
    76   38   39 2    
    77   38   40 1    
    78   40   41 1    
    79   40   42 1    
    80   40  102 1    
    81   41  103 1    
    82   41  104 1    
    83   41  105 1    
    84   42   43 am   BACKBONE|DICT|INTERRES
    85   42  106 1    
    86   43   44 2    
    87   43   45 1    
    88   45   46 1    
    89   45   49 1    
    90   45  107 1    
    91   46   47 1    
    92   46  108 1    
    93   46  109 1    
    94   47   48 1    
    95   48  110 1    
    96   48  111 1    
    97   49   50 am   BACKBONE|DICT|INTERRES
    98   49  112 1    
    99   50   51 2    
   100   50   52 1    
   101   52   53 1    
   102   52   54 1    
   103   52  113 1    
   104   53  114 1    
   105   53  115 1    
   106   53  116 1    
   107   54   55 am   BACKBONE|DICT|INTERRES
   108   54  117 1    
   109   55   56 2    
   110   55   57 1    
   111   57   58 1    
   112   57   59 1    
   113   57  118 1    
   114   58  119 1    
   115   58  120 1    
   116   58  121 1    
   117   59   60 am   BACKBONE|DICT|INTERRES
   118   59  122 1    
   119   60   61 2    
   120   60   62 1    
   121   62   63 1    
   122   62   64 1    
   123   62  123 1    
   124   63  124 1    
   125   63  125 1    
   126   63  126 1    
   127   64   65 am   BACKBONE|DICT|INTERRES
   128   64  127 1    
   129   65   66 2    
@<TRIPOS>SUBSTRUCTURE
     1 UNK         1 GROUP             0       ****    0 ROOT    
