@<TRIPOS>MOLECULE
3R134
127   129    1
SMALL
USER_CHARGES


@<TRIPOS>ATOM
      1 CA         31.4694  -45.2970  -51.7582 C.3       0 UNK        -0.1968 
      2 C          32.0854  -44.7588  -50.4666 C.2       0 UNK         0.4852 
      3 O          31.3332  -44.3490  -49.5838 O.2       0 UNK        -0.5359 
      4 N          33.4160  -44.7118  -50.2874 N.am      1 UNK        -0.4300 
      5 CA         34.5037  -45.1851  -51.1558 C.3       1 UNK         0.0863 
      6 C6         34.5973  -44.4494  -52.5216 C.3       11 UNK        -0.0953 
      7 S7         34.9495  -42.6637  -52.3780 S.3       11 UNK        -0.2369 
      8 C8         33.3249  -41.8767  -52.6683 C.3       11 UNK         0.0226 
      9 C9         32.6365  -42.1646  -54.0065 C.ar      11 UNK        -0.0699 
     10 C10        33.2366  -42.8930  -55.0442 C.ar      11 UNK        -0.0804 
     11 C11        32.5135  -43.2231  -56.1920 C.ar      11 UNK        -0.0871 
     12 C12        31.2232  -42.7197  -56.3598 C.ar      11 UNK        -0.1008 
     13 C13        30.6094  -41.9848  -55.3435 C.ar      11 UNK        -0.0735 
     14 C14        31.3220  -41.7141  -54.1717 C.ar      11 UNK        -0.0945 
     15 C15        29.1647  -41.5245  -55.4892 C.3       11 UNK         0.0169 
     16 S16        28.0044  -42.9340  -55.4701 S.3       11 UNK        -0.2669 
     17 C17        28.0228  -43.4523  -57.2226 C.3       11 UNK        -0.0850 
     18 CA         26.6059  -43.7914  -57.7488 C.3       10 UNK         0.0855 
     19 C          26.5529  -43.7688  -59.3078 C.2       10 UNK         0.5543 
     20 N          26.1044  -44.8131  -59.9936 N.am      10 UNK        -0.7343 
     21 O          26.9202  -42.7658  -59.9147 O.2       10 UNK        -0.5027 
     22 N          26.1033  -45.0302  -57.1362 N.am      10 UNK        -0.4495 
     23 C          24.8097  -45.3506  -57.0155 C.2       10 UNK         0.4903 
     24 O          23.8842  -44.5893  -57.3033 O.2       10 UNK        -0.4860 
     25 CA         24.5135  -46.7788  -56.5183 C.3       9 UNK         0.0227 
     26 CB         23.0379  -47.1896  -56.7047 C.3       9 UNK        -0.1964 
     27 N          25.4072  -47.7807  -57.1144 N.am      9 UNK        -0.4231 
     28 C          25.5928  -48.0341  -58.4209 C.2       9 UNK         0.5014 
     29 O          24.9918  -47.4448  -59.3199 O.2       9 UNK        -0.5270 
     30 CA         26.6497  -49.0846  -58.8147 C.3       8 UNK         0.0284 
     31 CB         27.8503  -48.4002  -59.4902 C.3       8 UNK        -0.1977 
     32 N          27.1293  -49.8924  -57.6912 N.am      8 UNK        -0.4342 
     33 C          26.4105  -50.8374  -57.0699 C.2       8 UNK         0.5039 
     34 O          25.2945  -51.2039  -57.4398 O.2       8 UNK        -0.5547 
     35 CA         27.0179  -51.4422  -55.7939 C.3       7 UNK         0.0281 
     36 CB         27.9309  -52.6280  -56.1434 C.3       7 UNK        -0.1963 
     37 N          27.7581  -50.4646  -54.9875 N.am      7 UNK        -0.4444 
     38 C          27.2222  -49.3797  -54.4083 C.2       7 UNK         0.5104 
     39 O          26.0286  -49.0898  -54.4759 O.2       7 UNK        -0.5100 
     40 CA         28.1816  -48.4275  -53.6750 C.3       6 UNK         0.0396 
     41 CB         28.5709  -48.9830  -52.2962 C.3       6 UNK        -0.1801 
     42 N          29.3868  -48.1428  -54.4533 N.am      6 UNK        -0.4747 
     43 C          29.4107  -47.4557  -55.6062 C.2       6 UNK         0.5012 
     44 O          28.4179  -46.9429  -56.1287 O.2       6 UNK        -0.5003 
     45 CA         30.7822  -47.3576  -56.3046 C.3       5 UNK         0.0782 
     46 C46        31.6021  -46.1947  -55.6967 C.3       11 UNK        -0.0868 
     47 S47        33.2155  -45.9045  -56.5152 S.3       11 UNK        -0.2515 
     48 C48        33.0772  -44.2114  -57.2045 C.3       11 UNK         0.0199 
     49 N          31.4957  -48.6386  -56.2466 N.am      5 UNK        -0.4607 
     50 C          31.0964  -49.7567  -56.8697 C.2       4 UNK         0.5031 
     51 O          30.0911  -49.8233  -57.5760 O.2       4 UNK        -0.5119 
     52 CA         31.9333  -51.0254  -56.6328 C.3       4 UNK         0.0263 
     53 CB         33.1681  -51.0355  -57.5477 C.3       4 UNK        -0.1967 
     54 N          32.3537  -51.1842  -55.2385 N.am      4 UNK        -0.4237 
     55 C          31.5176  -51.3340  -54.2002 C.2       3 UNK         0.4908 
     56 O          30.2964  -51.4069  -54.3132 O.2       3 UNK        -0.5102 
     57 CA         32.1344  -51.3680  -52.7916 C.3       3 UNK         0.0241 
     58 CB         32.3905  -52.8184  -52.3528 C.3       3 UNK        -0.1971 
     59 N          33.3713  -50.5911  -52.6665 N.am      3 UNK        -0.4139 
     60 C          33.4718  -49.2732  -52.8856 C.2       2 UNK         0.5016 
     61 O          32.5295  -48.5590  -53.2408 O.2       2 UNK        -0.5319 
     62 CA         34.8841  -48.6821  -52.7630 C.3       2 UNK         0.0286 
     63 CB         35.6508  -48.8759  -54.0824 C.3       2 UNK        -0.1963 
     64 N          34.8548  -47.2552  -52.4491 N.am      2 UNK        -0.4790 
     65 C          34.5103  -46.7283  -51.2666 C.2       1 UNK         0.5024 
     66 O          34.2287  -47.4095  -50.2779 O.2       1 UNK        -0.4888 
     67 H67        32.0116  -46.1457  -52.1662 H         1 UNK         0.0892 
     68 H68        30.4493  -45.6336  -51.5748 H         1 UNK         0.0892 
     69 H69        31.4249  -44.5132  -52.5136 H         1 UNK         0.0892 
     70 H70        33.7411  -44.3566  -49.3994 H         1 UNK         0.3107 
     71 H71        35.4206  -44.9526  -50.6119 H         1 UNK         0.0773 
     72 H72        33.7027  -44.6258  -53.1145 H         1 UNK         0.0680 
     73 H73        35.4268  -44.8396  -53.1131 H         1 UNK         0.0680 
     74 H74        33.4582  -40.7979  -52.5790 H         1 UNK         0.0650 
     75 H75        32.6587  -42.1685  -51.8559 H         1 UNK         0.0650 
     76 H76        34.2431  -43.2716  -54.9470 H         1 UNK         0.1397 
     77 H77        30.6762  -42.9598  -57.2583 H         1 UNK         0.1363 
     78 H78        30.8444  -41.1632  -53.3727 H         1 UNK         0.1355 
     79 H79        28.8983  -40.8555  -54.6695 H         1 UNK         0.0707 
     80 H80        29.0478  -40.9389  -56.4019 H         1 UNK         0.0707 
     81 H81        28.4608  -42.6475  -57.8149 H         1 UNK         0.1034 
     82 H82        28.6882  -44.3102  -57.3352 H         1 UNK         0.1034 
     83 H83        25.9445  -42.9797  -57.4395 H         1 UNK         0.0482 
     84 H84        26.0795  -44.7575  -60.9990 H         1 UNK         0.3460 
     85 H85        25.7462  -45.6425  -59.5328 H         1 UNK         0.3460 
     86 H86        26.8039  -45.7108  -56.8630 H         1 UNK         0.2989 
     87 H87        24.7250  -46.7787  -55.4481 H         1 UNK         0.0559 
     88 H88        22.3723  -46.5142  -56.1658 H         1 UNK         0.0848 
     89 H89        22.8563  -48.1945  -56.3235 H         1 UNK         0.0848 
     90 H90        22.7416  -47.1700  -57.7540 H         1 UNK         0.0848 
     91 H91        25.9484  -48.3160  -56.4452 H         1 UNK         0.3144 
     92 H92        26.1851  -49.7537  -59.5419 H         1 UNK         0.0727 
     93 H93        28.5780  -49.1320  -59.8416 H         1 UNK         0.0790 
     94 H94        28.3619  -47.7197  -58.8088 H         1 UNK         0.0790 
     95 H95        27.5353  -47.8174  -60.3569 H         1 UNK         0.0790 
     96 H96        28.0778  -49.7124  -57.3740 H         1 UNK         0.3215 
     97 H97        26.1932  -51.8148  -55.1826 H         1 UNK         0.0863 
     98 H98        28.2952  -53.1260  -55.2447 H         1 UNK         0.0808 
     99 H99        28.7973  -52.3111  -56.7249 H         1 UNK         0.0808 
    100 H100       27.3958  -53.3740  -56.7325 H         1 UNK         0.0808 
    101 H101       28.7458  -50.6641  -54.8309 H         1 UNK         0.3118 
    102 H102       27.6579  -47.4817  -53.5199 H         1 UNK         0.0546 
    103 H103       29.0940  -49.9360  -52.3732 H         1 UNK         0.0828 
    104 H104       27.6858  -49.1477  -51.6806 H         1 UNK         0.0828 
    105 H105       29.2165  -48.2897  -51.7567 H         1 UNK         0.0828 
    106 H106       30.2591  -48.5233  -54.1072 H         1 UNK         0.3005 
    107 H107       30.5919  -47.1294  -57.3558 H         1 UNK         0.1257 
    108 H108       31.8056  -46.3832  -54.6417 H         1 UNK         0.0775 
    109 H109       31.0010  -45.2875  -55.7170 H         1 UNK         0.0775 
    110 H110       34.0630  -43.8766  -57.5301 H         1 UNK         0.0840 
    111 H111       32.4549  -44.2473  -58.1000 H         1 UNK         0.0840 
    112 H112       32.3032  -48.6696  -55.6401 H         1 UNK         0.2987 
    113 H113       31.3099  -51.8842  -56.8908 H         1 UNK         0.0785 
    114 H114       32.8773  -50.9355  -58.5945 H         1 UNK         0.0798 
    115 H115       33.7228  -51.9695  -57.4559 H         1 UNK         0.0798 
    116 H116       33.8498  -50.2150  -57.3193 H         1 UNK         0.0798 
    117 H117       33.3443  -51.1436  -55.0518 H         1 UNK         0.3079 
    118 H118       31.4042  -50.9288  -52.1089 H         1 UNK         0.0794 
    119 H119       32.7343  -52.8663  -51.3193 H         1 UNK         0.0786 
    120 H120       33.1383  -53.3056  -52.9799 H         1 UNK         0.0786 
    121 H121       31.4767  -53.4114  -52.4151 H         1 UNK         0.0786 
    122 H122       34.1976  -51.1037  -52.3927 H         1 UNK         0.3032 
    123 H123       35.4144  -49.2003  -51.9605 H         1 UNK         0.1094 
    124 H124       35.1527  -48.3784  -54.9163 H         1 UNK         0.0794 
    125 H125       36.6641  -48.4795  -54.0140 H         1 UNK         0.0794 
    126 H126       35.7384  -49.9327  -54.3382 H         1 UNK         0.0794 
    127 H127       35.0375  -46.6299  -53.2199 H         1 UNK         0.3016 
@<TRIPOS>BOND
     1    1    2 1    
     2    1   67 1    
     3    1   68 1    
     4    1   69 1    
     5    2    3 2    
     6    2    4 am   BACKBONE|DICT|INTERRES
     7    4    5 1    
     8    4   70 1    
     9    5    6 1    
    10    5   65 1    
    11    5   71 1    
    12    6    7 1    
    13    6   72 1    
    14    6   73 1    
    15    7    8 1    
    16    8    9 1    
    17    8   74 1    
    18    8   75 1    
    19    9   10 ar   
    20    9   14 ar   
    21   10   11 ar   
    22   10   76 1    
    23   11   12 ar   
    24   11   48 1    
    25   12   13 ar   
    26   12   77 1    
    27   13   14 ar   
    28   13   15 1    
    29   14   78 1    
    30   15   16 1    
    31   15   79 1    
    32   15   80 1    
    33   16   17 1    
    34   17   18 1    
    35   17   81 1    
    36   17   82 1    
    37   18   19 1    
    38   18   22 1    
    39   18   83 1    
    40   19   20 am   BACKBONE|DICT|INTERRES
    41   19   21 2    
    42   20   84 1    
    43   20   85 1    
    44   22   23 am   BACKBONE|DICT|INTERRES
    45   22   86 1    
    46   23   24 2    
    47   23   25 1    
    48   25   26 1    
    49   25   27 1    
    50   25   87 1    
    51   26   88 1    
    52   26   89 1    
    53   26   90 1    
    54   27   28 am   BACKBONE|DICT|INTERRES
    55   27   91 1    
    56   28   29 2    
    57   28   30 1    
    58   30   31 1    
    59   30   32 1    
    60   30   92 1    
    61   31   93 1    
    62   31   94 1    
    63   31   95 1    
    64   32   33 am   BACKBONE|DICT|INTERRES
    65   32   96 1    
    66   33   34 2    
    67   33   35 1    
    68   35   36 1    
    69   35   37 1    
    70   35   97 1    
    71   36   98 1    
    72   36   99 1    
    73   36  100 1    
    74   37   38 am   BACKBONE|DICT|INTERRES
    75   37  101 1    
    76   38   39 2    
    77   38   40 1    
    78   40   41 1    
    79   40   42 1    
    80   40  102 1    
    81   41  103 1    
    82   41  104 1    
    83   41  105 1    
    84   42   43 am   BACKBONE|DICT|INTERRES
    85   42  106 1    
    86   43   44 2    
    87   43   45 1    
    88   45   46 1    
    89   45   49 1    
    90   45  107 1    
    91   46   47 1    
    92   46  108 1    
    93   46  109 1    
    94   47   48 1    
    95   48  110 1    
    96   48  111 1    
    97   49   50 am   BACKBONE|DICT|INTERRES
    98   49  112 1    
    99   50   51 2    
   100   50   52 1    
   101   52   53 1    
   102   52   54 1    
   103   52  113 1    
   104   53  114 1    
   105   53  115 1    
   106   53  116 1    
   107   54   55 am   BACKBONE|DICT|INTERRES
   108   54  117 1    
   109   55   56 2    
   110   55   57 1    
   111   57   58 1    
   112   57   59 1    
   113   57  118 1    
   114   58  119 1    
   115   58  120 1    
   116   58  121 1    
   117   59   60 am   BACKBONE|DICT|INTERRES
   118   59  122 1    
   119   60   61 2    
   120   60   62 1    
   121   62   63 1    
   122   62   64 1    
   123   62  123 1    
   124   63  124 1    
   125   63  125 1    
   126   63  126 1    
   127   64   65 am   BACKBONE|DICT|INTERRES
   128   64  127 1    
   129   65   66 2    
@<TRIPOS>SUBSTRUCTURE
     1 UNK         1 GROUP             0       ****    0 ROOT    
