@<TRIPOS>MOLECULE
3R134
127   129    1
SMALL
USER_CHARGES


@<TRIPOS>ATOM
      1 CA         29.6028  -49.1967  -51.3800 C.3       0 UNK        -0.1968 
      2 C          30.5132  -48.3560  -50.4967 C.2       0 UNK         0.4852 
      3 O          30.1327  -48.0166  -49.3751 O.2       0 UNK        -0.5359 
      4 N          31.7011  -48.0148  -51.0031 N.am      1 UNK        -0.4300 
      5 CA         32.7272  -47.2229  -50.3232 C.3       1 UNK         0.0863 
      6 C6         32.8296  -45.7831  -50.9096 C.3       11 UNK        -0.0953 
      7 S7         33.1199  -45.7306  -52.7138 S.3       11 UNK        -0.2369 
      8 C8         33.0207  -43.9458  -53.0654 C.3       11 UNK         0.0226 
      9 C9         32.3951  -43.6710  -54.4288 C.ar      11 UNK        -0.0699 
     10 C10        32.8716  -44.3147  -55.5747 C.ar      11 UNK        -0.0804 
     11 C11        32.2735  -44.0989  -56.8200 C.ar      11 UNK        -0.0871 
     12 C12        31.2076  -43.1991  -56.9216 C.ar      11 UNK        -0.1008 
     13 C13        30.7410  -42.5231  -55.7888 C.ar      11 UNK        -0.0735 
     14 C14        31.3334  -42.7688  -54.5464 C.ar      11 UNK        -0.0945 
     15 C15        29.6184  -41.5013  -55.9026 C.3       11 UNK         0.0169 
     16 S16        27.9965  -42.2220  -55.5064 S.3       11 UNK        -0.2669 
     17 C17        27.6678  -43.1698  -57.0275 C.3       11 UNK        -0.0850 
     18 CA         26.2082  -43.6914  -57.1014 C.3       10 UNK         0.0855 
     19 C          25.2412  -42.5611  -57.5591 C.2       10 UNK         0.5543 
     20 N          24.5063  -41.9554  -56.6366 N.am      10 UNK        -0.7343 
     21 O          25.1859  -42.2084  -58.7359 O.2       10 UNK        -0.5027 
     22 N          26.1519  -44.8962  -57.9422 N.am      10 UNK        -0.4495 
     23 C          25.0574  -45.5645  -58.3256 C.2       10 UNK         0.4903 
     24 O          23.9136  -45.3120  -57.9468 O.2       10 UNK        -0.4860 
     25 CA         25.2861  -46.7295  -59.2939 C.3       9 UNK         0.0227 
     26 CB         26.2142  -46.3612  -60.4692 C.3       9 UNK        -0.1964 
     27 N          25.8249  -47.8760  -58.5680 N.am      9 UNK        -0.4231 
     28 C          25.5044  -49.1516  -58.8203 C.2       9 UNK         0.5014 
     29 O          24.7334  -49.4989  -59.7167 O.2       9 UNK        -0.5270 
     30 CA         26.1474  -50.2387  -57.9410 C.3       8 UNK         0.0284 
     31 CB         27.3611  -50.8609  -58.6501 C.3       8 UNK        -0.1977 
     32 N          26.5471  -49.7771  -56.6096 N.am      8 UNK        -0.4342 
     33 C          25.6931  -49.4528  -55.6286 C.2       8 UNK         0.5039 
     34 O          24.4683  -49.4520  -55.7561 O.2       8 UNK        -0.5547 
     35 CA         26.3078  -49.0800  -54.2736 C.3       7 UNK         0.0281 
     36 CB         26.7056  -50.3488  -53.4999 C.3       7 UNK        -0.1963 
     37 N          27.4760  -48.2141  -54.4401 N.am      7 UNK        -0.4444 
     38 C          27.4349  -46.8752  -54.4073 C.2       7 UNK         0.5104 
     39 O          26.4133  -46.2255  -54.1849 O.2       7 UNK        -0.5100 
     40 CA         28.7573  -46.1276  -54.6594 C.3       6 UNK         0.0396 
     41 CB         29.4788  -45.8679  -53.3312 C.3       6 UNK        -0.1801 
     42 N          29.6633  -46.8161  -55.5846 N.am      6 UNK        -0.4747 
     43 C          29.3963  -47.0466  -56.8786 C.2       6 UNK         0.5012 
     44 O          28.3861  -46.6371  -57.4510 O.2       6 UNK        -0.5003 
     45 CA         30.3624  -47.9564  -57.6618 C.3       5 UNK         0.0782 
     46 C46        31.2939  -47.1593  -58.6127 C.3       11 UNK        -0.0868 
     47 S47        32.8700  -46.6128  -57.8717 S.3       11 UNK        -0.2515 
     48 C48        32.8211  -44.7989  -58.0568 C.3       11 UNK         0.0199 
     49 N          31.0734  -48.9471  -56.8394 N.am      5 UNK        -0.4607 
     50 C          30.4933  -49.8860  -56.0777 C.2       4 UNK         0.5031 
     51 O          29.2738  -49.9807  -55.9365 O.2       4 UNK        -0.5119 
     52 CA         31.4003  -50.8929  -55.3509 C.3       4 UNK         0.0263 
     53 CB         31.3152  -52.2663  -56.0357 C.3       4 UNK        -0.1967 
     54 N          32.8052  -50.4816  -55.2701 N.am      4 UNK        -0.4237 
     55 C          33.2771  -49.5660  -54.4155 C.2       3 UNK         0.4908 
     56 O          32.5701  -48.9476  -53.6130 O.2       3 UNK        -0.5102 
     57 CA         34.7883  -49.3001  -54.4830 C.3       3 UNK         0.0241 
     58 CB         35.1427  -48.4205  -55.6923 C.3       3 UNK        -0.1971 
     59 N          35.2001  -48.6090  -53.2685 N.am      3 UNK        -0.4139 
     60 C          36.2325  -48.9272  -52.4779 C.2       2 UNK         0.5016 
     61 O          37.0494  -49.8124  -52.7354 O.2       2 UNK        -0.5319 
     62 CA         36.3768  -48.1239  -51.1677 C.3       2 UNK         0.0286 
     63 CB         37.5092  -47.0914  -51.2901 C.3       2 UNK        -0.1963 
     64 N          35.1389  -47.4312  -50.7935 N.am      2 UNK        -0.4790 
     65 C          34.0318  -48.0440  -50.3518 C.2       1 UNK         0.5024 
     66 O          34.0096  -49.2303  -50.0161 O.2       1 UNK        -0.4888 
     67 H67        28.6742  -48.6591  -51.5677 H         1 UNK         0.0892 
     68 H68        30.0631  -49.4257  -52.3413 H         1 UNK         0.0892 
     69 H69        29.3613  -50.1375  -50.8862 H         1 UNK         0.0892 
     70 H70        31.9717  -48.3533  -51.9255 H         1 UNK         0.3107 
     71 H71        32.4784  -47.1262  -49.2645 H         1 UNK         0.0773 
     72 H72        31.8927  -45.2600  -50.7113 H         1 UNK         0.0680 
     73 H73        33.6003  -45.2030  -50.3990 H         1 UNK         0.0680 
     74 H74        34.0231  -43.5175  -53.0324 H         1 UNK         0.0650 
     75 H75        32.4443  -43.4546  -52.2801 H         1 UNK         0.0650 
     76 H76        33.7028  -45.0018  -55.4940 H         1 UNK         0.1397 
     77 H77        30.7524  -43.0091  -57.8839 H         1 UNK         0.1363 
     78 H78        30.9634  -42.2546  -53.6700 H         1 UNK         0.1355 
     79 H79        29.5958  -41.0621  -56.9012 H         1 UNK         0.0707 
     80 H80        29.8086  -40.6748  -55.2162 H         1 UNK         0.0707 
     81 H81        27.9141  -42.5658  -57.9033 H         1 UNK         0.1034 
     82 H82        28.3740  -43.9997  -57.0424 H         1 UNK         0.1034 
     83 H83        25.9063  -44.0234  -56.1059 H         1 UNK         0.0482 
     84 H84        23.8847  -41.2115  -56.9124 H         1 UNK         0.3460 
     85 H85        24.5687  -42.2245  -55.6671 H         1 UNK         0.3460 
     86 H86        27.0489  -45.2659  -58.2313 H         1 UNK         0.2989 
     87 H87        24.3070  -46.9818  -59.7073 H         1 UNK         0.0559 
     88 H88        27.2458  -46.2107  -60.1492 H         1 UNK         0.0848 
     89 H89        25.8823  -45.4446  -60.9588 H         1 UNK         0.0848 
     90 H90        26.2169  -47.1470  -61.2247 H         1 UNK         0.0848 
     91 H91        26.4739  -47.6669  -57.8179 H         1 UNK         0.3144 
     92 H92        25.4015  -51.0247  -57.8049 H         1 UNK         0.0727 
     93 H93        27.8038  -51.6605  -58.0555 H         1 UNK         0.0790 
     94 H94        28.1358  -50.1221  -58.8488 H         1 UNK         0.0790 
     95 H95        27.0717  -51.2927  -59.6092 H         1 UNK         0.0790 
     96 H96        27.5434  -49.8041  -56.3966 H         1 UNK         0.3215 
     97 H97        25.5410  -48.5624  -53.6925 H         1 UNK         0.0863 
     98 H98        27.0101  -50.1122  -52.4815 H         1 UNK         0.0808 
     99 H99        27.5253  -50.8832  -53.9817 H         1 UNK         0.0808 
    100 H100       25.8649  -51.0402  -53.4269 H         1 UNK         0.0808 
    101 H101       28.3436  -48.6679  -54.7024 H         1 UNK         0.3118 
    102 H102       28.5033  -45.1607  -55.0912 H         1 UNK         0.0546 
    103 H103       28.8021  -45.4519  -52.5835 H         1 UNK         0.0828 
    104 H104       30.2858  -45.1521  -53.4607 H         1 UNK         0.0828 
    105 H105       29.9075  -46.7797  -52.9210 H         1 UNK         0.0828 
    106 H106       30.5259  -47.1779  -55.2024 H         1 UNK         0.3005 
    107 H107       29.7066  -48.5395  -58.3099 H         1 UNK         0.1257 
    108 H108       30.7696  -46.3120  -59.0592 H         1 UNK         0.0775 
    109 H109       31.5597  -47.7993  -59.4555 H         1 UNK         0.0775 
    110 H110       33.8395  -44.4456  -58.2233 H         1 UNK         0.0840 
    111 H111       32.2600  -44.5265  -58.9517 H         1 UNK         0.0840 
    112 H112       32.0809  -48.9117  -56.8867 H         1 UNK         0.2987 
    113 H113       31.0123  -50.9973  -54.3353 H         1 UNK         0.0785 
    114 H114       30.2829  -52.6168  -56.0820 H         1 UNK         0.0798 
    115 H115       31.8848  -53.0184  -55.4894 H         1 UNK         0.0798 
    116 H116       31.6935  -52.2335  -57.0582 H         1 UNK         0.0798 
    117 H117       33.4486  -50.9433  -55.8978 H         1 UNK         0.3079 
    118 H118       35.3006  -50.2611  -54.5652 H         1 UNK         0.0794 
    119 H119       34.6613  -47.4440  -55.6290 H         1 UNK         0.0786 
    120 H120       34.8319  -48.8829  -56.6298 H         1 UNK         0.0786 
    121 H121       36.2183  -48.2549  -55.7560 H         1 UNK         0.0786 
    122 H122       34.5467  -47.9066  -52.9466 H         1 UNK         0.3032 
    123 H123       36.6352  -48.8316  -50.3765 H         1 UNK         0.1094 
    124 H124       37.3039  -46.3564  -52.0696 H         1 UNK         0.0794 
    125 H125       37.6610  -46.5554  -50.3530 H         1 UNK         0.0794 
    126 H126       38.4537  -47.5766  -51.5405 H         1 UNK         0.0794 
    127 H127       35.0695  -46.4568  -51.0541 H         1 UNK         0.3016 
@<TRIPOS>BOND
     1    1    2 1    
     2    1   67 1    
     3    1   68 1    
     4    1   69 1    
     5    2    3 2    
     6    2    4 am   BACKBONE|DICT|INTERRES
     7    4    5 1    
     8    4   70 1    
     9    5    6 1    
    10    5   65 1    
    11    5   71 1    
    12    6    7 1    
    13    6   72 1    
    14    6   73 1    
    15    7    8 1    
    16    8    9 1    
    17    8   74 1    
    18    8   75 1    
    19    9   10 ar   
    20    9   14 ar   
    21   10   11 ar   
    22   10   76 1    
    23   11   12 ar   
    24   11   48 1    
    25   12   13 ar   
    26   12   77 1    
    27   13   14 ar   
    28   13   15 1    
    29   14   78 1    
    30   15   16 1    
    31   15   79 1    
    32   15   80 1    
    33   16   17 1    
    34   17   18 1    
    35   17   81 1    
    36   17   82 1    
    37   18   19 1    
    38   18   22 1    
    39   18   83 1    
    40   19   20 am   BACKBONE|DICT|INTERRES
    41   19   21 2    
    42   20   84 1    
    43   20   85 1    
    44   22   23 am   BACKBONE|DICT|INTERRES
    45   22   86 1    
    46   23   24 2    
    47   23   25 1    
    48   25   26 1    
    49   25   27 1    
    50   25   87 1    
    51   26   88 1    
    52   26   89 1    
    53   26   90 1    
    54   27   28 am   BACKBONE|DICT|INTERRES
    55   27   91 1    
    56   28   29 2    
    57   28   30 1    
    58   30   31 1    
    59   30   32 1    
    60   30   92 1    
    61   31   93 1    
    62   31   94 1    
    63   31   95 1    
    64   32   33 am   BACKBONE|DICT|INTERRES
    65   32   96 1    
    66   33   34 2    
    67   33   35 1    
    68   35   36 1    
    69   35   37 1    
    70   35   97 1    
    71   36   98 1    
    72   36   99 1    
    73   36  100 1    
    74   37   38 am   BACKBONE|DICT|INTERRES
    75   37  101 1    
    76   38   39 2    
    77   38   40 1    
    78   40   41 1    
    79   40   42 1    
    80   40  102 1    
    81   41  103 1    
    82   41  104 1    
    83   41  105 1    
    84   42   43 am   BACKBONE|DICT|INTERRES
    85   42  106 1    
    86   43   44 2    
    87   43   45 1    
    88   45   46 1    
    89   45   49 1    
    90   45  107 1    
    91   46   47 1    
    92   46  108 1    
    93   46  109 1    
    94   47   48 1    
    95   48  110 1    
    96   48  111 1    
    97   49   50 am   BACKBONE|DICT|INTERRES
    98   49  112 1    
    99   50   51 2    
   100   50   52 1    
   101   52   53 1    
   102   52   54 1    
   103   52  113 1    
   104   53  114 1    
   105   53  115 1    
   106   53  116 1    
   107   54   55 am   BACKBONE|DICT|INTERRES
   108   54  117 1    
   109   55   56 2    
   110   55   57 1    
   111   57   58 1    
   112   57   59 1    
   113   57  118 1    
   114   58  119 1    
   115   58  120 1    
   116   58  121 1    
   117   59   60 am   BACKBONE|DICT|INTERRES
   118   59  122 1    
   119   60   61 2    
   120   60   62 1    
   121   62   63 1    
   122   62   64 1    
   123   62  123 1    
   124   63  124 1    
   125   63  125 1    
   126   63  126 1    
   127   64   65 am   BACKBONE|DICT|INTERRES
   128   64  127 1    
   129   65   66 2    
@<TRIPOS>SUBSTRUCTURE
     1 UNK         1 GROUP             0       ****    0 ROOT    
