@<TRIPOS>MOLECULE
3R134
127   129    1
SMALL
USER_CHARGES


@<TRIPOS>ATOM
      1 CA         35.3744  -44.2363  -47.5571 C.3       0 UNK        -0.1968 
      2 C          35.6471  -44.7594  -48.9599 C.2       0 UNK         0.4852 
      3 O          36.7613  -45.2054  -49.2403 O.2       0 UNK        -0.5359 
      4 N          34.6428  -44.6989  -49.8429 N.am      1 UNK        -0.4300 
      5 CA         34.6905  -45.2218  -51.2111 C.3       1 UNK         0.0863 
      6 C6         33.5975  -44.5954  -52.1143 C.3       11 UNK        -0.0953 
      7 S7         31.9101  -44.6098  -51.4098 S.3       11 UNK        -0.2369 
      8 C8         31.1530  -43.1953  -52.2741 C.3       11 UNK         0.0226 
      9 C9         30.7414  -43.5579  -53.6942 C.ar      11 UNK        -0.0699 
     10 C10        31.6943  -43.6086  -54.7154 C.ar      11 UNK        -0.0804 
     11 C11        31.3320  -43.9793  -56.0129 C.ar      11 UNK        -0.0871 
     12 C12        29.9909  -44.2583  -56.2948 C.ar      11 UNK        -0.1008 
     13 C13        29.0244  -44.1984  -55.2862 C.ar      11 UNK        -0.0735 
     14 C14        29.4061  -43.8483  -53.9877 C.ar      11 UNK        -0.0945 
     15 C15        27.5765  -44.5603  -55.5811 C.3       11 UNK         0.0169 
     16 S16        26.5708  -43.0890  -55.9552 S.3       11 UNK        -0.2669 
     17 C17        26.9616  -42.8152  -57.7184 C.3       11 UNK        -0.0850 
     18 CA         25.7294  -42.9541  -58.6524 C.3       10 UNK         0.0855 
     19 C          26.1369  -42.6333  -60.1216 C.2       10 UNK         0.5543 
     20 N          26.1342  -43.5926  -61.0392 N.am      10 UNK        -0.7343 
     21 O          26.4634  -41.4899  -60.4302 O.2       10 UNK        -0.5027 
     22 N          25.0289  -44.2367  -58.4558 N.am      10 UNK        -0.4495 
     23 C          23.8224  -44.5534  -58.9427 C.2       10 UNK         0.4903 
     24 O          23.1422  -43.7829  -59.6221 O.2       10 UNK        -0.4860 
     25 CA         23.2915  -45.9696  -58.6255 C.3       9 UNK         0.0227 
     26 CB         22.0669  -46.3460  -59.4816 C.3       9 UNK        -0.1964 
     27 N          24.3179  -47.0076  -58.7836 N.am      9 UNK        -0.4231 
     28 C          25.2556  -47.3072  -57.8768 C.2       9 UNK         0.5014 
     29 O          25.3630  -46.7227  -56.7974 O.2       9 UNK        -0.5270 
     30 CA         26.2823  -48.3756  -58.2837 C.3       8 UNK         0.0284 
     31 CB         27.3770  -47.7501  -59.1656 C.3       8 UNK        -0.1977 
     32 N          26.8999  -48.9989  -57.1099 N.am      8 UNK        -0.4342 
     33 C          26.2995  -49.9327  -56.3565 C.2       8 UNK         0.5039 
     34 O          25.1842  -50.3906  -56.6144 O.2       8 UNK        -0.5547 
     35 CA         27.0516  -50.4880  -55.1296 C.3       7 UNK         0.0281 
     36 CB         27.5760  -51.9034  -55.4243 C.3       7 UNK        -0.1963 
     37 N          28.1654  -49.6549  -54.6729 N.am      7 UNK        -0.4444 
     38 C          28.0374  -48.4704  -54.0600 C.2       7 UNK         0.5104 
     39 O          26.9552  -47.9842  -53.7321 O.2       7 UNK        -0.5100 
     40 CA         29.3308  -47.6831  -53.7741 C.3       6 UNK         0.0396 
     41 CB         29.8009  -47.9209  -52.3324 C.3       6 UNK        -0.1801 
     42 N          30.4371  -47.9532  -54.7011 N.am      6 UNK        -0.4747 
     43 C          30.3913  -47.7723  -56.0311 C.2       6 UNK         0.5012 
     44 O          29.3720  -47.4518  -56.6403 O.2       6 UNK        -0.5003 
     45 CA         31.6796  -48.0559  -56.8207 C.3       5 UNK         0.0782 
     46 C46        32.7014  -46.8915  -56.7327 C.3       11 UNK        -0.0868 
     47 S47        32.3816  -45.6380  -58.0232 S.3       11 UNK        -0.2515 
     48 C48        32.3978  -44.0642  -57.0997 C.3       11 UNK         0.0199 
     49 N          32.2465  -49.3365  -56.3960 N.am      5 UNK        -0.4607 
     50 C          31.9140  -50.5150  -56.9430 C.2       4 UNK         0.5031 
     51 O          31.1773  -50.6320  -57.9223 O.2       4 UNK        -0.5119 
     52 CA         32.4845  -51.7875  -56.2913 C.3       4 UNK         0.0263 
     53 CB         33.7965  -52.1994  -56.9782 C.3       4 UNK        -0.1967 
     54 N          32.7126  -51.6611  -54.8509 N.am      4 UNK        -0.4237 
     55 C          31.7557  -51.4445  -53.9371 C.2       3 UNK         0.4908 
     56 O          30.5577  -51.3557  -54.2022 O.2       3 UNK        -0.5102 
     57 CA         32.2237  -51.2444  -52.4862 C.3       3 UNK         0.0241 
     58 CB         32.3119  -52.5966  -51.7607 C.3       3 UNK        -0.1971 
     59 N          33.5029  -50.5353  -52.3608 N.am      3 UNK        -0.4139 
     60 C          33.7735  -49.3207  -52.8603 C.2       2 UNK         0.5016 
     61 O          32.9923  -48.6652  -53.5567 O.2       2 UNK        -0.5319 
     62 CA         35.1853  -48.7779  -52.5938 C.3       2 UNK         0.0286 
     63 CB         36.0953  -49.0627  -53.8000 C.3       2 UNK        -0.1963 
     64 N          35.1706  -47.3377  -52.3361 N.am      2 UNK        -0.4790 
     65 C          34.6482  -46.7641  -51.2433 C.2       1 UNK         0.5024 
     66 O          34.1543  -47.3977  -50.3060 O.2       1 UNK        -0.4888 
     67 H67        36.0619  -43.4252  -47.3184 H         1 UNK         0.0892 
     68 H68        34.3569  -43.8596  -47.4530 H         1 UNK         0.0892 
     69 H69        35.5176  -45.0316  -46.8262 H         1 UNK         0.0892 
     70 H70        33.7377  -44.3572  -49.5517 H         1 UNK         0.3107 
     71 H71        35.6566  -44.9300  -51.6298 H         1 UNK         0.0773 
     72 H72        33.5709  -45.0875  -53.0884 H         1 UNK         0.0680 
     73 H73        33.8736  -43.5592  -52.3144 H         1 UNK         0.0680 
     74 H74        30.2818  -42.8697  -51.7039 H         1 UNK         0.0650 
     75 H75        31.8396  -42.3476  -52.2843 H         1 UNK         0.0650 
     76 H76        32.7253  -43.3714  -54.4957 H         1 UNK         0.1397 
     77 H77        29.7071  -44.5551  -57.2947 H         1 UNK         0.1363 
     78 H78        28.6627  -43.8155  -53.2031 H         1 UNK         0.1355 
     79 H79        27.5260  -45.2722  -56.4057 H         1 UNK         0.0707 
     80 H80        27.1431  -45.0727  -54.7206 H         1 UNK         0.0707 
     81 H81        27.3912  -41.8150  -57.8044 H         1 UNK         0.1034 
     82 H82        27.7471  -43.5019  -58.0354 H         1 UNK         0.1034 
     83 H83        25.0201  -42.1748  -58.3672 H         1 UNK         0.0482 
     84 H84        25.8565  -44.5290  -60.7959 H         1 UNK         0.3460 
     85 H85        26.3975  -43.3717  -61.9865 H         1 UNK         0.3460 
     86 H86        25.4837  -44.9119  -57.8526 H         1 UNK         0.2989 
     87 H87        22.9674  -45.9555  -57.5827 H         1 UNK         0.0559 
     88 H88        22.3032  -46.3489  -60.5464 H         1 UNK         0.0848 
     89 H89        21.2500  -45.6389  -59.3308 H         1 UNK         0.0848 
     90 H90        21.6860  -47.3331  -59.2186 H         1 UNK         0.0848 
     91 H91        24.3225  -47.5021  -59.6648 H         1 UNK         0.3144 
     92 H92        25.7740  -49.1511  -58.8609 H         1 UNK         0.0727 
     93 H93        27.8425  -46.8891  -58.6842 H         1 UNK         0.0790 
     94 H94        26.9661  -47.4043  -60.1148 H         1 UNK         0.0790 
     95 H95        28.1631  -48.4694  -59.3965 H         1 UNK         0.0790 
     96 H96        27.7852  -48.6035  -56.8046 H         1 UNK         0.3215 
     97 H97        26.3272  -50.5570  -54.3153 H         1 UNK         0.0863 
     98 H98        28.0046  -52.3604  -54.5321 H         1 UNK         0.0808 
     99 H99        28.3449  -51.8943  -56.1983 H         1 UNK         0.0808 
    100 H100       26.7734  -52.5581  -55.7667 H         1 UNK         0.0808 
    101 H101       29.1007  -50.0217  -54.8181 H         1 UNK         0.3118 
    102 H102       29.0898  -46.6257  -53.8732 H         1 UNK         0.0546 
    103 H103       30.7250  -47.3837  -52.1175 H         1 UNK         0.0828 
    104 H104       29.9709  -48.9783  -52.1384 H         1 UNK         0.0828 
    105 H105       29.0513  -47.5767  -51.6189 H         1 UNK         0.0828 
    106 H106       31.3228  -48.2267  -54.2796 H         1 UNK         0.3005 
    107 H107       31.3834  -48.1553  -57.8682 H         1 UNK         0.1257 
    108 H108       32.7216  -46.4393  -55.7388 H         1 UNK         0.0775 
    109 H109       33.7116  -47.2654  -56.9061 H         1 UNK         0.0775 
    110 H110       33.3949  -43.9223  -56.6796 H         1 UNK         0.0840 
    111 H111       32.2433  -43.2450  -57.8031 H         1 UNK         0.0840 
    112 H112       32.8004  -49.3215  -55.5480 H         1 UNK         0.2987 
    113 H113       31.7533  -52.5851  -56.4404 H         1 UNK         0.0785 
    114 H114       34.5773  -51.4500  -56.8415 H         1 UNK         0.0798 
    115 H115       33.6512  -52.3260  -58.0521 H         1 UNK         0.0798 
    116 H116       34.1679  -53.1481  -56.5902 H         1 UNK         0.0798 
    117 H117       33.6691  -51.7189  -54.5342 H         1 UNK         0.3079 
    118 H118       31.4704  -50.6420  -51.9788 H         1 UNK         0.0794 
    119 H119       33.0806  -53.2392  -52.1919 H         1 UNK         0.0786 
    120 H120       31.3648  -53.1348  -51.8228 H         1 UNK         0.0786 
    121 H121       32.5373  -52.4658  -50.7021 H         1 UNK         0.0786 
    122 H122       34.2158  -51.0015  -51.8178 H         1 UNK         0.3032 
    123 H123       35.5995  -49.2751  -51.7134 H         1 UNK         0.1094 
    124 H124       37.1119  -48.7110  -53.6226 H         1 UNK         0.0794 
    125 H125       36.1568  -50.1331  -54.0015 H         1 UNK         0.0794 
    126 H126       35.7269  -48.5814  -54.7072 H         1 UNK         0.0794 
    127 H127       35.5250  -46.7475  -53.0746 H         1 UNK         0.3016 
@<TRIPOS>BOND
     1    1    2 1    
     2    1   67 1    
     3    1   68 1    
     4    1   69 1    
     5    2    3 2    
     6    2    4 am   BACKBONE|DICT|INTERRES
     7    4    5 1    
     8    4   70 1    
     9    5    6 1    
    10    5   65 1    
    11    5   71 1    
    12    6    7 1    
    13    6   72 1    
    14    6   73 1    
    15    7    8 1    
    16    8    9 1    
    17    8   74 1    
    18    8   75 1    
    19    9   10 ar   
    20    9   14 ar   
    21   10   11 ar   
    22   10   76 1    
    23   11   12 ar   
    24   11   48 1    
    25   12   13 ar   
    26   12   77 1    
    27   13   14 ar   
    28   13   15 1    
    29   14   78 1    
    30   15   16 1    
    31   15   79 1    
    32   15   80 1    
    33   16   17 1    
    34   17   18 1    
    35   17   81 1    
    36   17   82 1    
    37   18   19 1    
    38   18   22 1    
    39   18   83 1    
    40   19   20 am   BACKBONE|DICT|INTERRES
    41   19   21 2    
    42   20   84 1    
    43   20   85 1    
    44   22   23 am   BACKBONE|DICT|INTERRES
    45   22   86 1    
    46   23   24 2    
    47   23   25 1    
    48   25   26 1    
    49   25   27 1    
    50   25   87 1    
    51   26   88 1    
    52   26   89 1    
    53   26   90 1    
    54   27   28 am   BACKBONE|DICT|INTERRES
    55   27   91 1    
    56   28   29 2    
    57   28   30 1    
    58   30   31 1    
    59   30   32 1    
    60   30   92 1    
    61   31   93 1    
    62   31   94 1    
    63   31   95 1    
    64   32   33 am   BACKBONE|DICT|INTERRES
    65   32   96 1    
    66   33   34 2    
    67   33   35 1    
    68   35   36 1    
    69   35   37 1    
    70   35   97 1    
    71   36   98 1    
    72   36   99 1    
    73   36  100 1    
    74   37   38 am   BACKBONE|DICT|INTERRES
    75   37  101 1    
    76   38   39 2    
    77   38   40 1    
    78   40   41 1    
    79   40   42 1    
    80   40  102 1    
    81   41  103 1    
    82   41  104 1    
    83   41  105 1    
    84   42   43 am   BACKBONE|DICT|INTERRES
    85   42  106 1    
    86   43   44 2    
    87   43   45 1    
    88   45   46 1    
    89   45   49 1    
    90   45  107 1    
    91   46   47 1    
    92   46  108 1    
    93   46  109 1    
    94   47   48 1    
    95   48  110 1    
    96   48  111 1    
    97   49   50 am   BACKBONE|DICT|INTERRES
    98   49  112 1    
    99   50   51 2    
   100   50   52 1    
   101   52   53 1    
   102   52   54 1    
   103   52  113 1    
   104   53  114 1    
   105   53  115 1    
   106   53  116 1    
   107   54   55 am   BACKBONE|DICT|INTERRES
   108   54  117 1    
   109   55   56 2    
   110   55   57 1    
   111   57   58 1    
   112   57   59 1    
   113   57  118 1    
   114   58  119 1    
   115   58  120 1    
   116   58  121 1    
   117   59   60 am   BACKBONE|DICT|INTERRES
   118   59  122 1    
   119   60   61 2    
   120   60   62 1    
   121   62   63 1    
   122   62   64 1    
   123   62  123 1    
   124   63  124 1    
   125   63  125 1    
   126   63  126 1    
   127   64   65 am   BACKBONE|DICT|INTERRES
   128   64  127 1    
   129   65   66 2    
@<TRIPOS>SUBSTRUCTURE
     1 UNK         1 GROUP             0       ****    0 ROOT    
