@<TRIPOS>MOLECULE
3R134
127   129    1
SMALL
USER_CHARGES


@<TRIPOS>ATOM
      1 CA         29.9276  -45.9494  -54.7087 C.3       0 UNK        -0.1968 
      2 C          31.0956  -46.0603  -53.7494 C.2       0 UNK         0.4852 
      3 O          32.0785  -46.7339  -54.0621 O.2       0 UNK        -0.5359 
      4 N          30.9795  -45.4092  -52.5847 N.am      1 UNK        -0.4300 
      5 CA         32.0075  -45.3047  -51.5427 C.3       1 UNK         0.0863 
      6 C6         33.1883  -44.3885  -51.9745 C.3       11 UNK        -0.0953 
      7 S7         32.6227  -42.6958  -52.3585 S.3       11 UNK        -0.2369 
      8 C8         33.5668  -42.3026  -53.8632 C.3       11 UNK         0.0226 
      9 C9         32.8569  -42.7251  -55.1438 C.ar      11 UNK        -0.0699 
     10 C10        33.3380  -43.7961  -55.9030 C.ar      11 UNK        -0.0804 
     11 C11        32.7678  -44.1008  -57.1436 C.ar      11 UNK        -0.0871 
     12 C12        31.6791  -43.3507  -57.6038 C.ar      11 UNK        -0.1008 
     13 C13        31.1847  -42.2758  -56.8555 C.ar      11 UNK        -0.0735 
     14 C14        31.7796  -41.9734  -55.6245 C.ar      11 UNK        -0.0945 
     15 C15        30.1051  -41.3695  -57.4475 C.3       11 UNK         0.0169 
     16 S16        28.8090  -40.8665  -56.2626 S.3       11 UNK        -0.2669 
     17 C17        27.5297  -42.1439  -56.5121 C.3       11 UNK        -0.0850 
     18 CA         27.7102  -43.3645  -55.5737 C.3       10 UNK         0.0855 
     19 C          27.3385  -43.0610  -54.0943 C.2       10 UNK         0.5543 
     20 N          26.0604  -42.9527  -53.7608 N.am      10 UNK        -0.7343 
     21 O          28.2163  -42.9586  -53.2414 O.2       10 UNK        -0.5027 
     22 N          27.0855  -44.5898  -56.1033 N.am      10 UNK        -0.4495 
     23 C          25.7885  -44.7890  -56.3765 C.2       10 UNK         0.4903 
     24 O          24.9152  -43.9292  -56.2541 O.2       10 UNK        -0.4860 
     25 CA         25.3988  -46.1920  -56.8700 C.3       9 UNK         0.0227 
     26 CB         25.5355  -46.2683  -58.3973 C.3       9 UNK        -0.1964 
     27 N          26.1948  -47.2571  -56.2504 N.am      9 UNK        -0.4231 
     28 C          26.0553  -47.6646  -54.9806 C.2       9 UNK         0.5014 
     29 O          25.2235  -47.1949  -54.2016 O.2       9 UNK        -0.5270 
     30 CA         27.0148  -48.7753  -54.5078 C.3       8 UNK         0.0284 
     31 CB         26.7290  -49.2602  -53.0709 C.3       8 UNK        -0.1977 
     32 N          27.0863  -49.9099  -55.4353 N.am      8 UNK        -0.4342 
     33 C          26.0913  -50.7170  -55.8292 C.2       8 UNK         0.5039 
     34 O          24.9250  -50.6301  -55.4402 O.2       8 UNK        -0.5547 
     35 CA         26.4981  -51.8092  -56.8373 C.3       7 UNK         0.0281 
     36 CB         25.3067  -52.6476  -57.3503 C.3       7 UNK        -0.1963 
     37 N          27.2875  -51.2589  -57.9475 N.am      7 UNK        -0.4444 
     38 C          26.8847  -50.3669  -58.8660 C.2       7 UNK         0.5104 
     39 O          25.7359  -49.9317  -58.9527 O.2       7 UNK        -0.5100 
     40 CA         27.9738  -49.8714  -59.8410 C.3       6 UNK         0.0396 
     41 CB         27.5121  -48.6918  -60.7209 C.3       6 UNK        -0.1801 
     42 N          29.2458  -49.5478  -59.1795 N.am      6 UNK        -0.4747 
     43 C          29.4357  -48.6923  -58.1622 C.2       6 UNK         0.5012 
     44 O          28.5386  -48.0416  -57.6193 O.2       6 UNK        -0.5003 
     45 CA         30.8830  -48.5459  -57.6508 C.3       5 UNK         0.0782 
     46 C46        31.3970  -47.1227  -57.9806 C.3       11 UNK        -0.0868 
     47 S47        33.1151  -46.8581  -57.4466 S.3       11 UNK        -0.2515 
     48 C48        33.4053  -45.1625  -58.0332 C.3       11 UNK         0.0199 
     49 N          31.0200  -48.8619  -56.2213 N.am      5 UNK        -0.4607 
     50 C          30.5201  -49.9197  -55.5651 C.2       4 UNK         0.5031 
     51 O          29.8156  -50.7869  -56.0863 O.2       4 UNK        -0.5119 
     52 CA         30.8365  -49.9955  -54.0593 C.3       4 UNK         0.0263 
     53 CB         30.4848  -51.3608  -53.4318 C.3       4 UNK        -0.1967 
     54 N          32.2168  -49.6061  -53.7546 N.am      4 UNK        -0.4237 
     55 C          33.3482  -50.2068  -54.1547 C.2       3 UNK         0.4908 
     56 O          33.3855  -51.2424  -54.8201 O.2       3 UNK        -0.5102 
     57 CA         34.6732  -49.5338  -53.7523 C.3       3 UNK         0.0241 
     58 CB         35.2142  -48.6730  -54.9044 C.3       3 UNK        -0.1971 
     59 N          34.5569  -48.6992  -52.5546 N.am      3 UNK        -0.4139 
     60 C          34.4672  -49.1654  -51.3010 C.2       2 UNK         0.5016 
     61 O          34.5207  -50.3607  -51.0092 O.2       2 UNK        -0.5319 
     62 CA         34.2916  -48.1243  -50.1792 C.3       2 UNK         0.0286 
     63 CB         35.6379  -47.8424  -49.4922 C.3       2 UNK        -0.1963 
     64 N          33.7157  -46.8569  -50.6446 N.am      2 UNK        -0.4790 
     65 C          32.4372  -46.6973  -51.0166 C.2       1 UNK         0.5024 
     66 O          31.6048  -47.6054  -50.9507 O.2       1 UNK        -0.4888 
     67 H67        29.0415  -45.5629  -54.2084 H         1 UNK         0.0892 
     68 H68        30.2044  -45.2834  -55.5240 H         1 UNK         0.0892 
     69 H69        29.6741  -46.9159  -55.1314 H         1 UNK         0.0892 
     70 H70        30.1358  -44.8846  -52.3991 H         1 UNK         0.3107 
     71 H71        31.5181  -44.8269  -50.6926 H         1 UNK         0.0773 
     72 H72        33.7063  -44.8115  -52.8371 H         1 UNK         0.0680 
     73 H73        33.9282  -44.2906  -51.1788 H         1 UNK         0.0680 
     74 H74        33.7256  -41.2237  -53.8926 H         1 UNK         0.0650 
     75 H75        34.5614  -42.7467  -53.8010 H         1 UNK         0.0650 
     76 H76        34.1891  -44.3648  -55.5538 H         1 UNK         0.1397 
     77 H77        31.2551  -43.5665  -58.5750 H         1 UNK         0.1363 
     78 H78        31.4319  -41.1225  -55.0547 H         1 UNK         0.1355 
     79 H79        30.5960  -40.4653  -57.8096 H         1 UNK         0.0707 
     80 H80        29.6458  -41.8298  -58.3234 H         1 UNK         0.0707 
     81 H81        27.5549  -42.4631  -57.5548 H         1 UNK         0.1034 
     82 H82        26.5473  -41.6891  -56.3730 H         1 UNK         0.1034 
     83 H83        28.7762  -43.5821  -55.5771 H         1 UNK         0.0482 
     84 H84        25.3517  -43.0989  -54.4699 H         1 UNK         0.3460 
     85 H85        25.8018  -42.7691  -52.8046 H         1 UNK         0.3460 
     86 H86        27.7084  -45.3707  -56.2433 H         1 UNK         0.2989 
     87 H87        24.3500  -46.3583  -56.6152 H         1 UNK         0.0559 
     88 H88        24.9113  -45.5172  -58.8832 H         1 UNK         0.0848 
     89 H89        25.2231  -47.2416  -58.7756 H         1 UNK         0.0848 
     90 H90        26.5634  -46.0934  -58.7167 H         1 UNK         0.0848 
     91 H91        26.9302  -47.6748  -56.8197 H         1 UNK         0.3144 
     92 H92        28.0073  -48.3291  -54.5013 H         1 UNK         0.0727 
     93 H93        27.4547  -50.0081  -52.7520 H         1 UNK         0.0790 
     94 H94        25.7343  -49.6985  -52.9823 H         1 UNK         0.0790 
     95 H95        26.7841  -48.4337  -52.3613 H         1 UNK         0.0790 
     96 H96        28.0020  -50.0953  -55.8354 H         1 UNK         0.3215 
     97 H97        27.1626  -52.4858  -56.2970 H         1 UNK         0.0863 
     98 H98        25.6339  -53.4160  -58.0505 H         1 UNK         0.0808 
     99 H99        24.5589  -52.0323  -57.8511 H         1 UNK         0.0808 
    100 H100       24.8055  -53.1539  -56.5244 H         1 UNK         0.0808 
    101 H101       28.2693  -51.5050  -57.9419 H         1 UNK         0.3118 
    102 H102       28.1787  -50.7109  -60.5070 H         1 UNK         0.0546 
    103 H103       27.3088  -47.8020  -60.1282 H         1 UNK         0.0828 
    104 H104       26.5996  -48.9381  -61.2653 H         1 UNK         0.0828 
    105 H105       28.2680  -48.4320  -61.4616 H         1 UNK         0.0828 
    106 H106       30.0490  -50.0480  -59.5360 H         1 UNK         0.3005 
    107 H107       31.5112  -49.2641  -58.1812 H         1 UNK         0.1257 
    108 H108       31.3469  -46.9410  -59.0562 H         1 UNK         0.0775 
    109 H109       30.7700  -46.3624  -57.5136 H         1 UNK         0.0775 
    110 H110       34.4821  -44.9910  -58.0667 H         1 UNK         0.0840 
    111 H111       33.0581  -45.0695  -59.0634 H         1 UNK         0.0840 
    112 H112       31.5862  -48.2055  -55.6952 H         1 UNK         0.2987 
    113 H113       30.2045  -49.2470  -53.5796 H         1 UNK         0.0785 
    114 H114       30.7063  -51.3743  -52.3647 H         1 UNK         0.0798 
    115 H115       31.0356  -52.1771  -53.8999 H         1 UNK         0.0798 
    116 H116       29.4226  -51.5809  -53.5449 H         1 UNK         0.0798 
    117 H117       32.3129  -48.7086  -53.2916 H         1 UNK         0.3079 
    118 H118       35.3946  -50.3291  -53.5523 H         1 UNK         0.0794 
    119 H119       35.2677  -49.2429  -55.8332 H         1 UNK         0.0786 
    120 H120       36.2189  -48.3091  -54.6891 H         1 UNK         0.0786 
    121 H121       34.5776  -47.8070  -55.0875 H         1 UNK         0.0786 
    122 H122       34.4869  -47.7023  -52.6999 H         1 UNK         0.3032 
    123 H123       33.6143  -48.5588  -49.4399 H         1 UNK         0.1094 
    124 H124       36.3583  -47.3972  -50.1796 H         1 UNK         0.0794 
    125 H125       35.5180  -47.1668  -48.6450 H         1 UNK         0.0794 
    126 H126       36.0802  -48.7632  -49.1088 H         1 UNK         0.0794 
    127 H127       34.3433  -46.0677  -50.7047 H         1 UNK         0.3016 
@<TRIPOS>BOND
     1    1    2 1    
     2    1   67 1    
     3    1   68 1    
     4    1   69 1    
     5    2    3 2    
     6    2    4 am   BACKBONE|DICT|INTERRES
     7    4    5 1    
     8    4   70 1    
     9    5    6 1    
    10    5   65 1    
    11    5   71 1    
    12    6    7 1    
    13    6   72 1    
    14    6   73 1    
    15    7    8 1    
    16    8    9 1    
    17    8   74 1    
    18    8   75 1    
    19    9   10 ar   
    20    9   14 ar   
    21   10   11 ar   
    22   10   76 1    
    23   11   12 ar   
    24   11   48 1    
    25   12   13 ar   
    26   12   77 1    
    27   13   14 ar   
    28   13   15 1    
    29   14   78 1    
    30   15   16 1    
    31   15   79 1    
    32   15   80 1    
    33   16   17 1    
    34   17   18 1    
    35   17   81 1    
    36   17   82 1    
    37   18   19 1    
    38   18   22 1    
    39   18   83 1    
    40   19   20 am   BACKBONE|DICT|INTERRES
    41   19   21 2    
    42   20   84 1    
    43   20   85 1    
    44   22   23 am   BACKBONE|DICT|INTERRES
    45   22   86 1    
    46   23   24 2    
    47   23   25 1    
    48   25   26 1    
    49   25   27 1    
    50   25   87 1    
    51   26   88 1    
    52   26   89 1    
    53   26   90 1    
    54   27   28 am   BACKBONE|DICT|INTERRES
    55   27   91 1    
    56   28   29 2    
    57   28   30 1    
    58   30   31 1    
    59   30   32 1    
    60   30   92 1    
    61   31   93 1    
    62   31   94 1    
    63   31   95 1    
    64   32   33 am   BACKBONE|DICT|INTERRES
    65   32   96 1    
    66   33   34 2    
    67   33   35 1    
    68   35   36 1    
    69   35   37 1    
    70   35   97 1    
    71   36   98 1    
    72   36   99 1    
    73   36  100 1    
    74   37   38 am   BACKBONE|DICT|INTERRES
    75   37  101 1    
    76   38   39 2    
    77   38   40 1    
    78   40   41 1    
    79   40   42 1    
    80   40  102 1    
    81   41  103 1    
    82   41  104 1    
    83   41  105 1    
    84   42   43 am   BACKBONE|DICT|INTERRES
    85   42  106 1    
    86   43   44 2    
    87   43   45 1    
    88   45   46 1    
    89   45   49 1    
    90   45  107 1    
    91   46   47 1    
    92   46  108 1    
    93   46  109 1    
    94   47   48 1    
    95   48  110 1    
    96   48  111 1    
    97   49   50 am   BACKBONE|DICT|INTERRES
    98   49  112 1    
    99   50   51 2    
   100   50   52 1    
   101   52   53 1    
   102   52   54 1    
   103   52  113 1    
   104   53  114 1    
   105   53  115 1    
   106   53  116 1    
   107   54   55 am   BACKBONE|DICT|INTERRES
   108   54  117 1    
   109   55   56 2    
   110   55   57 1    
   111   57   58 1    
   112   57   59 1    
   113   57  118 1    
   114   58  119 1    
   115   58  120 1    
   116   58  121 1    
   117   59   60 am   BACKBONE|DICT|INTERRES
   118   59  122 1    
   119   60   61 2    
   120   60   62 1    
   121   62   63 1    
   122   62   64 1    
   123   62  123 1    
   124   63  124 1    
   125   63  125 1    
   126   63  126 1    
   127   64   65 am   BACKBONE|DICT|INTERRES
   128   64  127 1    
   129   65   66 2    
@<TRIPOS>SUBSTRUCTURE
     1 UNK         1 GROUP             0       ****    0 ROOT    
