@<TRIPOS>MOLECULE
3R134
127   129    1
SMALL
USER_CHARGES


@<TRIPOS>ATOM
      1 CA         36.2607  -47.0444  -49.5347 C.3       0 UNK        -0.1968 
      2 C          35.6335  -46.2874  -50.6955 C.2       0 UNK         0.4852 
      3 O          34.4575  -46.5009  -50.9953 O.2       0 UNK        -0.5359 
      4 N          36.4094  -45.4126  -51.3536 N.am      1 UNK        -0.4300 
      5 CA         36.0186  -44.6243  -52.5281 C.3       1 UNK         0.0863 
      6 C6         34.9092  -43.5880  -52.1964 C.3       11 UNK        -0.0953 
      7 S7         34.7848  -42.2649  -53.4429 S.3       11 UNK        -0.2369 
      8 C8         33.1482  -41.5721  -53.0544 C.3       11 UNK         0.0226 
      9 C9         32.0199  -42.4585  -53.5612 C.ar      11 UNK        -0.0699 
     10 C10        31.3587  -43.3335  -52.6929 C.ar      11 UNK        -0.0804 
     11 C11        30.3098  -44.1329  -53.1563 C.ar      11 UNK        -0.0871 
     12 C12        29.9204  -44.0505  -54.4958 C.ar      11 UNK        -0.1008 
     13 C13        30.5721  -43.1779  -55.3712 C.ar      11 UNK        -0.0735 
     14 C14        31.6216  -42.3846  -54.8994 C.ar      11 UNK        -0.0945 
     15 C15        30.1420  -43.1014  -56.8258 C.3       11 UNK         0.0169 
     16 S16        28.7306  -41.9730  -57.0300 S.3       11 UNK        -0.2669 
     17 C17        28.2963  -42.2777  -58.7763 C.3       11 UNK        -0.0850 
     18 CA         26.8659  -42.8526  -58.9582 C.3       10 UNK         0.0855 
     19 C          26.5150  -42.9577  -60.4727 C.2       10 UNK         0.5543 
     20 N          26.3129  -44.1447  -61.0316 N.am      10 UNK        -0.7343 
     21 O          26.4247  -41.9380  -61.1520 O.2       10 UNK        -0.5027 
     22 N          26.6620  -44.0884  -58.1803 N.am      10 UNK        -0.4495 
     23 C          25.4768  -44.6496  -57.9105 C.2       10 UNK         0.4903 
     24 O          24.3998  -44.1720  -58.2712 O.2       10 UNK        -0.4860 
     25 CA         25.5074  -45.9750  -57.1227 C.3       9 UNK         0.0227 
     26 CB         24.1132  -46.6107  -56.9669 C.3       9 UNK        -0.1964 
     27 N          26.4037  -46.9562  -57.7386 N.am      9 UNK        -0.4231 
     28 C          27.7315  -47.0012  -57.5869 C.2       9 UNK         0.5014 
     29 O          28.3605  -46.1845  -56.9137 O.2       9 UNK        -0.5270 
     30 CA         28.4700  -48.1396  -58.3131 C.3       8 UNK         0.0284 
     31 CB         29.9879  -48.1171  -58.0491 C.3       8 UNK        -0.1977 
     32 N          27.9447  -49.4492  -57.9279 N.am      8 UNK        -0.4342 
     33 C          26.8257  -50.0183  -58.3938 C.2       8 UNK         0.5039 
     34 O          26.0832  -49.4826  -59.2181 O.2       8 UNK        -0.5547 
     35 CA         26.4552  -51.3870  -57.8089 C.3       7 UNK         0.0281 
     36 CB         27.4358  -52.4727  -58.2851 C.3       7 UNK        -0.1963 
     37 N          26.4658  -51.3246  -56.3480 N.am      7 UNK        -0.4444 
     38 C          25.3762  -51.2175  -55.5756 C.2       7 UNK         0.5104 
     39 O          24.2223  -51.2468  -56.0046 O.2       7 UNK        -0.5100 
     40 CA         25.6075  -51.0441  -54.0612 C.3       6 UNK         0.0396 
     41 CB         25.5739  -52.4084  -53.3545 C.3       6 UNK        -0.1801 
     42 N          26.8670  -50.3653  -53.7422 N.am      6 UNK        -0.4747 
     43 C          27.1348  -49.0828  -54.0309 C.2       6 UNK         0.5012 
     44 O          26.3017  -48.3081  -54.4997 O.2       6 UNK        -0.5003 
     45 CA         28.5715  -48.5760  -53.7780 C.3       5 UNK         0.0782 
     46 C46        28.6235  -47.7267  -52.4855 C.3       11 UNK        -0.0868 
     47 S47        30.1809  -46.7799  -52.3581 S.3       11 UNK        -0.2515 
     48 C48        29.5745  -45.0667  -52.2100 C.3       11 UNK         0.0199 
     49 N          29.5924  -49.6346  -53.7522 N.am      5 UNK        -0.4607 
     50 C          29.8827  -50.4990  -54.7322 C.2       4 UNK         0.5031 
     51 O          29.2340  -50.5806  -55.7755 O.2       4 UNK        -0.5119 
     52 CA         31.0923  -51.4244  -54.5063 C.3       4 UNK         0.0263 
     53 CB         31.4709  -52.2123  -55.7743 C.3       4 UNK        -0.1967 
     54 N          32.2632  -50.6740  -54.0502 N.am      4 UNK        -0.4237 
     55 C          32.5207  -50.3024  -52.7919 C.2       3 UNK         0.4908 
     56 O          31.7800  -50.5657  -51.8442 O.2       3 UNK        -0.5102 
     57 CA         33.7928  -49.4729  -52.5514 C.3       3 UNK         0.0241 
     58 CB         35.0680  -50.3164  -52.7453 C.3       3 UNK        -0.1971 
     59 N          33.8514  -48.2217  -53.3193 N.am      3 UNK        -0.4139 
     60 C          33.9183  -48.0428  -54.6492 C.2       2 UNK         0.5016 
     61 O          33.9290  -48.9636  -55.4681 O.2       2 UNK        -0.5319 
     62 CA         33.9827  -46.5931  -55.1667 C.3       2 UNK         0.0286 
     63 CB         32.6061  -46.1506  -55.6845 C.3       2 UNK        -0.1963 
     64 N          34.4530  -45.6350  -54.1618 N.am      2 UNK        -0.4790 
     65 C          35.7144  -45.5723  -53.7110 C.2       1 UNK         0.5024 
     66 O          36.6306  -46.2573  -54.1702 O.2       1 UNK        -0.4888 
     67 H67        36.2263  -48.1166  -49.7263 H         1 UNK         0.0892 
     68 H68        35.7096  -46.8442  -48.6163 H         1 UNK         0.0892 
     69 H69        37.3008  -46.7606  -49.3756 H         1 UNK         0.0892 
     70 H70        37.3752  -45.3096  -51.0740 H         1 UNK         0.3107 
     71 H71        36.9133  -44.0683  -52.8136 H         1 UNK         0.0773 
     72 H72        35.1383  -43.1016  -51.2469 H         1 UNK         0.0680 
     73 H73        33.9444  -44.0720  -52.0489 H         1 UNK         0.0680 
     74 H74        33.0641  -41.4133  -51.9781 H         1 UNK         0.0650 
     75 H75        33.0683  -40.5857  -53.5137 H         1 UNK         0.0650 
     76 H76        31.6558  -43.3882  -51.6544 H         1 UNK         0.1397 
     77 H77        29.1089  -44.6667  -54.8597 H         1 UNK         0.1363 
     78 H78        32.1281  -41.7065  -55.5727 H         1 UNK         0.1355 
     79 H79        29.8774  -44.0967  -57.1827 H         1 UNK         0.0707 
     80 H80        30.9699  -42.7616  -57.4501 H         1 UNK         0.0707 
     81 H81        29.0318  -42.9428  -59.2328 H         1 UNK         0.1034 
     82 H82        28.3910  -41.3257  -59.3027 H         1 UNK         0.1034 
     83 H83        26.1712  -42.1158  -58.5501 H         1 UNK         0.0482 
     84 H84        26.3723  -44.9842  -60.4793 H         1 UNK         0.3460 
     85 H85        26.0838  -44.1974  -62.0116 H         1 UNK         0.3460 
     86 H86        27.4925  -44.5440  -57.8186 H         1 UNK         0.2989 
     87 H87        25.8762  -45.7442  -56.1209 H         1 UNK         0.0559 
     88 H88        24.1603  -47.5216  -56.3690 H         1 UNK         0.0848 
     89 H89        23.6739  -46.8647  -57.9323 H         1 UNK         0.0848 
     90 H90        23.4260  -45.9304  -56.4621 H         1 UNK         0.0848 
     91 H91        25.9799  -47.6736  -58.3198 H         1 UNK         0.3144 
     92 H92        28.3143  -47.9980  -59.3845 H         1 UNK         0.0727 
     93 H93        30.4975  -48.9159  -58.5878 H         1 UNK         0.0790 
     94 H94        30.2142  -48.2322  -56.9883 H         1 UNK         0.0790 
     95 H95        30.4277  -47.1738  -58.3758 H         1 UNK         0.0790 
     96 H96        28.4679  -49.9347  -57.1987 H         1 UNK         0.3215 
     97 H97        25.4591  -51.6495  -58.1722 H         1 UNK         0.0863 
     98 H98        27.1397  -53.4565  -57.9207 H         1 UNK         0.0808 
     99 H99        28.4546  -52.2848  -57.9436 H         1 UNK         0.0808 
    100 H100       27.4602  -52.5249  -59.3744 H         1 UNK         0.0808 
    101 H101       27.3766  -51.2362  -55.9092 H         1 UNK         0.3118 
    102 H102       24.7886  -50.4370  -53.6695 H         1 UNK         0.0546 
    103 H103       24.6342  -52.9261  -53.5524 H         1 UNK         0.0828 
    104 H104       25.6589  -52.2986  -52.2733 H         1 UNK         0.0828 
    105 H105       26.3811  -53.0597  -53.6921 H         1 UNK         0.0828 
    106 H106       27.6043  -50.9276  -53.3421 H         1 UNK         0.3005 
    107 H107       28.8082  -47.9263  -54.6245 H         1 UNK         0.1257 
    108 H108       28.5358  -48.3653  -51.6046 H         1 UNK         0.0775 
    109 H109       27.7730  -47.0451  -52.4392 H         1 UNK         0.0775 
    110 H110       28.5068  -44.9997  -52.4191 H         1 UNK         0.0840 
    111 H111       29.6964  -44.7394  -51.1764 H         1 UNK         0.0840 
    112 H112       30.1789  -49.6581  -52.9260 H         1 UNK         0.2987 
    113 H113       30.8080  -52.1447  -53.7365 H         1 UNK         0.0785 
    114 H114       31.7429  -51.5468  -56.5948 H         1 UNK         0.0798 
    115 H115       30.6396  -52.8305  -56.1161 H         1 UNK         0.0798 
    116 H116       32.3133  -52.8792  -55.5900 H         1 UNK         0.0798 
    117 H117       32.8862  -50.3074  -54.7684 H         1 UNK         0.3079 
    118 H118       33.7667  -49.1667  -51.5043 H         1 UNK         0.0794 
    119 H119       35.1849  -50.6570  -53.7744 H         1 UNK         0.0786 
    120 H120       35.0478  -51.2032  -52.1106 H         1 UNK         0.0786 
    121 H121       35.9591  -49.7476  -52.4792 H         1 UNK         0.0786 
    122 H122       33.8554  -47.3879  -52.7385 H         1 UNK         0.3032 
    123 H123       34.6833  -46.5802  -56.0048 H         1 UNK         0.1094 
    124 H124       31.8556  -46.1614  -54.8938 H         1 UNK         0.0794 
    125 H125       32.6430  -45.1446  -56.1019 H         1 UNK         0.0794 
    126 H126       32.2550  -46.8149  -56.4745 H         1 UNK         0.0794 
    127 H127       33.7589  -45.0295  -53.7454 H         1 UNK         0.3016 
@<TRIPOS>BOND
     1    1    2 1    
     2    1   67 1    
     3    1   68 1    
     4    1   69 1    
     5    2    3 2    
     6    2    4 am   BACKBONE|DICT|INTERRES
     7    4    5 1    
     8    4   70 1    
     9    5    6 1    
    10    5   65 1    
    11    5   71 1    
    12    6    7 1    
    13    6   72 1    
    14    6   73 1    
    15    7    8 1    
    16    8    9 1    
    17    8   74 1    
    18    8   75 1    
    19    9   10 ar   
    20    9   14 ar   
    21   10   11 ar   
    22   10   76 1    
    23   11   12 ar   
    24   11   48 1    
    25   12   13 ar   
    26   12   77 1    
    27   13   14 ar   
    28   13   15 1    
    29   14   78 1    
    30   15   16 1    
    31   15   79 1    
    32   15   80 1    
    33   16   17 1    
    34   17   18 1    
    35   17   81 1    
    36   17   82 1    
    37   18   19 1    
    38   18   22 1    
    39   18   83 1    
    40   19   20 am   BACKBONE|DICT|INTERRES
    41   19   21 2    
    42   20   84 1    
    43   20   85 1    
    44   22   23 am   BACKBONE|DICT|INTERRES
    45   22   86 1    
    46   23   24 2    
    47   23   25 1    
    48   25   26 1    
    49   25   27 1    
    50   25   87 1    
    51   26   88 1    
    52   26   89 1    
    53   26   90 1    
    54   27   28 am   BACKBONE|DICT|INTERRES
    55   27   91 1    
    56   28   29 2    
    57   28   30 1    
    58   30   31 1    
    59   30   32 1    
    60   30   92 1    
    61   31   93 1    
    62   31   94 1    
    63   31   95 1    
    64   32   33 am   BACKBONE|DICT|INTERRES
    65   32   96 1    
    66   33   34 2    
    67   33   35 1    
    68   35   36 1    
    69   35   37 1    
    70   35   97 1    
    71   36   98 1    
    72   36   99 1    
    73   36  100 1    
    74   37   38 am   BACKBONE|DICT|INTERRES
    75   37  101 1    
    76   38   39 2    
    77   38   40 1    
    78   40   41 1    
    79   40   42 1    
    80   40  102 1    
    81   41  103 1    
    82   41  104 1    
    83   41  105 1    
    84   42   43 am   BACKBONE|DICT|INTERRES
    85   42  106 1    
    86   43   44 2    
    87   43   45 1    
    88   45   46 1    
    89   45   49 1    
    90   45  107 1    
    91   46   47 1    
    92   46  108 1    
    93   46  109 1    
    94   47   48 1    
    95   48  110 1    
    96   48  111 1    
    97   49   50 am   BACKBONE|DICT|INTERRES
    98   49  112 1    
    99   50   51 2    
   100   50   52 1    
   101   52   53 1    
   102   52   54 1    
   103   52  113 1    
   104   53  114 1    
   105   53  115 1    
   106   53  116 1    
   107   54   55 am   BACKBONE|DICT|INTERRES
   108   54  117 1    
   109   55   56 2    
   110   55   57 1    
   111   57   58 1    
   112   57   59 1    
   113   57  118 1    
   114   58  119 1    
   115   58  120 1    
   116   58  121 1    
   117   59   60 am   BACKBONE|DICT|INTERRES
   118   59  122 1    
   119   60   61 2    
   120   60   62 1    
   121   62   63 1    
   122   62   64 1    
   123   62  123 1    
   124   63  124 1    
   125   63  125 1    
   126   63  126 1    
   127   64   65 am   BACKBONE|DICT|INTERRES
   128   64  127 1    
   129   65   66 2    
@<TRIPOS>SUBSTRUCTURE
     1 UNK         1 GROUP             0       ****    0 ROOT    
