@<TRIPOS>MOLECULE
3R134
127   129    1
SMALL
USER_CHARGES


@<TRIPOS>ATOM
      1 CA         33.3631  -46.5749  -51.0780 C.3       0 UNK        -0.1968 
      2 C          34.0615  -46.5042  -52.4258 C.2       0 UNK         0.4852 
      3 O          35.0446  -47.2131  -52.6461 O.2       0 UNK        -0.5359 
      4 N          33.5675  -45.6420  -53.3224 N.am      1 UNK        -0.4300 
      5 CA         34.1212  -45.4323  -54.6632 C.3       1 UNK         0.0863 
      6 C6         33.6348  -44.1088  -55.2995 C.3       11 UNK        -0.0953 
      7 S7         34.0556  -42.6681  -54.2583 S.3       11 UNK        -0.2369 
      8 C8         32.6240  -41.5685  -54.4986 C.3       11 UNK         0.0226 
      9 C9         31.3126  -42.1887  -54.0345 C.ar      11 UNK        -0.0699 
     10 C10        31.0736  -42.4206  -52.6758 C.ar      11 UNK        -0.0804 
     11 C11        29.8586  -42.9713  -52.2526 C.ar      11 UNK        -0.0871 
     12 C12        28.8796  -43.2855  -53.1994 C.ar      11 UNK        -0.1008 
     13 C13        29.1156  -43.0748  -54.5599 C.ar      11 UNK        -0.0735 
     14 C14        30.3282  -42.5160  -54.9707 C.ar      11 UNK        -0.0945 
     15 C15        28.0589  -43.4515  -55.5854 C.3       11 UNK         0.0169 
     16 S16        28.0171  -45.2453  -55.8866 S.3       11 UNK        -0.2669 
     17 C17        29.6111  -45.5379  -56.7333 C.3       11 UNK        -0.0850 
     18 CA         29.5488  -45.2544  -58.2587 C.3       10 UNK         0.0855 
     19 C          30.9626  -45.3285  -58.9052 C.2       10 UNK         0.5543 
     20 N          31.1932  -46.1619  -59.9124 N.am      10 UNK        -0.7343 
     21 O          31.8627  -44.6006  -58.4945 O.2       10 UNK        -0.5027 
     22 N          28.5175  -46.0763  -58.9109 N.am      10 UNK        -0.4495 
     23 C          27.9400  -45.8290  -60.0949 C.2       10 UNK         0.4903 
     24 O          28.2442  -44.8848  -60.8239 O.2       10 UNK        -0.4860 
     25 CA         26.8182  -46.7907  -60.5401 C.3       9 UNK         0.0227 
     26 CB         27.3861  -47.8977  -61.4428 C.3       9 UNK        -0.1964 
     27 N          26.1251  -47.4022  -59.4029 N.am      9 UNK        -0.4231 
     28 C          25.3404  -46.7340  -58.5493 C.2       9 UNK         0.5014 
     29 O          24.9263  -45.5945  -58.7713 O.2       9 UNK        -0.5270 
     30 CA         24.9533  -47.4109  -57.2158 C.3       8 UNK         0.0284 
     31 CB         23.4326  -47.6402  -57.1566 C.3       8 UNK        -0.1977 
     32 N          25.6204  -48.6635  -56.8216 N.am      8 UNK        -0.4342 
     33 C          26.9245  -48.9762  -56.8143 C.2       8 UNK         0.5039 
     34 O          27.8041  -48.3277  -57.3780 O.2       8 UNK        -0.5547 
     35 CA         27.3022  -50.2206  -55.9955 C.3       7 UNK         0.0281 
     36 CB         28.7361  -50.7086  -56.2800 C.3       7 UNK        -0.1963 
     37 N          27.1663  -49.9146  -54.5698 N.am      7 UNK        -0.4444 
     38 C          26.0086  -49.9568  -53.8921 C.2       7 UNK         0.5104 
     39 O          24.9444  -50.3104  -54.4031 O.2       7 UNK        -0.5100 
     40 CA         26.0160  -49.5337  -52.4107 C.3       6 UNK         0.0396 
     41 CB         26.0054  -50.7747  -51.5039 C.3       6 UNK        -0.1801 
     42 N          27.1556  -48.6904  -52.0487 N.am      6 UNK        -0.4747 
     43 C          27.3077  -47.4003  -52.3870 C.2       6 UNK         0.5012 
     44 O          26.4442  -46.7452  -52.9697 O.2       6 UNK        -0.5003 
     45 CA         28.6526  -46.7330  -52.0113 C.3       5 UNK         0.0782 
     46 C46        28.4657  -45.8249  -50.7692 C.3       11 UNK        -0.0868 
     47 S47        29.9822  -44.9264  -50.2896 S.3       11 UNK        -0.2515 
     48 C48        29.5992  -43.2126  -50.7731 C.3       11 UNK         0.0199 
     49 N          29.7382  -47.7094  -51.8226 N.am      5 UNK        -0.4607 
     50 C          30.2224  -48.4971  -52.7902 C.2       4 UNK         0.5031 
     51 O          29.8067  -48.4893  -53.9497 O.2       4 UNK        -0.5119 
     52 CA         31.2773  -49.5258  -52.3786 C.3       4 UNK         0.0263 
     53 CB         30.6003  -50.7393  -51.7083 C.3       4 UNK        -0.1967 
     54 N          31.9892  -49.9370  -53.5832 N.am      4 UNK        -0.4237 
     55 C          33.1172  -50.6545  -53.6292 C.2       3 UNK         0.4908 
     56 O          33.7232  -51.0534  -52.6344 O.2       3 UNK        -0.5102 
     57 CA         33.6681  -50.9691  -55.0226 C.3       3 UNK         0.0241 
     58 CB         32.7627  -51.9575  -55.7824 C.3       3 UNK        -0.1971 
     59 N          33.8371  -49.7342  -55.7827 N.am      3 UNK        -0.4139 
     60 C          34.7260  -49.5354  -56.7589 C.2       2 UNK         0.5016 
     61 O          35.4943  -50.4054  -57.1717 O.2       2 UNK        -0.5319 
     62 CA         34.7891  -48.1265  -57.3791 C.3       2 UNK         0.0286 
     63 CB         33.7009  -47.9483  -58.4533 C.3       2 UNK        -0.1963 
     64 N          34.7786  -47.0158  -56.4112 N.am      2 UNK        -0.4790 
     65 C          33.8028  -46.6331  -55.5739 C.2       1 UNK         0.5024 
     66 O          32.7034  -47.1873  -55.4948 O.2       1 UNK        -0.4888 
     67 H67        33.7286  -45.7855  -50.4218 H         1 UNK         0.0892 
     68 H68        32.2874  -46.4582  -51.1912 H         1 UNK         0.0892 
     69 H69        33.5525  -47.5332  -50.5951 H         1 UNK         0.0892 
     70 H70        32.7515  -45.0910  -53.0985 H         1 UNK         0.3107 
     71 H71        35.2069  -45.3680  -54.5586 H         1 UNK         0.0773 
     72 H72        32.5594  -44.1471  -55.4728 H         1 UNK         0.0680 
     73 H73        34.0936  -43.9608  -56.2789 H         1 UNK         0.0680 
     74 H74        32.5707  -41.2876  -55.5517 H         1 UNK         0.0650 
     75 H75        32.7956  -40.6444  -53.9451 H         1 UNK         0.0650 
     76 H76        31.8354  -42.1699  -51.9500 H         1 UNK         0.1397 
     77 H77        27.9363  -43.7095  -52.8835 H         1 UNK         0.1363 
     78 H78        30.5095  -42.3454  -56.0233 H         1 UNK         0.1355 
     79 H79        28.2234  -42.9267  -56.5274 H         1 UNK         0.0707 
     80 H80        27.0783  -43.1341  -55.2278 H         1 UNK         0.0707 
     81 H81        30.3870  -44.9439  -56.2513 H         1 UNK         0.1034 
     82 H82        29.8952  -46.5780  -56.5580 H         1 UNK         0.1034 
     83 H83        29.2401  -44.2148  -58.3802 H         1 UNK         0.0482 
     84 H84        30.4546  -46.7512  -60.2593 H         1 UNK         0.3460 
     85 H85        32.1061  -46.1868  -60.3361 H         1 UNK         0.3460 
     86 H86        28.2110  -46.8860  -58.3712 H         1 UNK         0.2989 
     87 H87        26.0921  -46.2149  -61.1177 H         1 UNK         0.0559 
     88 H88        28.1098  -48.5196  -60.9141 H         1 UNK         0.0848 
     89 H89        27.8930  -47.4719  -62.3099 H         1 UNK         0.0848 
     90 H90        26.5957  -48.5476  -61.8186 H         1 UNK         0.0848 
     91 H91        26.4791  -48.2943  -59.0837 H         1 UNK         0.3144 
     92 H92        25.2089  -46.6876  -56.4390 H         1 UNK         0.0727 
     93 H93        22.8835  -46.7248  -57.3823 H         1 UNK         0.0790 
     94 H94        23.1167  -47.9634  -56.1643 H         1 UNK         0.0790 
     95 H95        23.1142  -48.3969  -57.8747 H         1 UNK         0.0790 
     96 H96        25.0334  -49.2963  -56.2892 H         1 UNK         0.3215 
     97 H97        26.6184  -51.0287  -56.2655 H         1 UNK         0.0863 
     98 H98        29.4781  -49.9338  -56.0860 H         1 UNK         0.0808 
     99 H99        28.8441  -51.0008  -57.3251 H         1 UNK         0.0808 
    100 H100       28.9901  -51.5762  -55.6711 H         1 UNK         0.0808 
    101 H101       27.9846  -49.5137  -54.1247 H         1 UNK         0.3118 
    102 H102       25.0994  -48.9693  -52.2264 H         1 UNK         0.0546 
    103 H103       26.9032  -51.3802  -51.6349 H         1 UNK         0.0828 
    104 H104       25.1483  -51.4123  -51.7255 H         1 UNK         0.0828 
    105 H105       25.9359  -50.4981  -50.4517 H         1 UNK         0.0828 
    106 H106       27.9095  -49.1383  -51.5491 H         1 UNK         0.3005 
    107 H107       28.9302  -46.1053  -52.8616 H         1 UNK         0.1257 
    108 H108       28.1533  -46.4221  -49.9103 H         1 UNK         0.0775 
    109 H109       27.6606  -45.1072  -50.9359 H         1 UNK         0.0775 
    110 H110       28.5662  -42.9689  -50.5207 H         1 UNK         0.0840 
    111 H111       30.2167  -42.5400  -50.1757 H         1 UNK         0.0840 
    112 H112       30.1147  -47.7752  -50.8879 H         1 UNK         0.2987 
    113 H113       31.9831  -49.0627  -51.6882 H         1 UNK         0.0785 
    114 H114       30.0452  -50.4416  -50.8181 H         1 UNK         0.0798 
    115 H115       31.3311  -51.4824  -51.3898 H         1 UNK         0.0798 
    116 H116       29.8990  -51.2318  -52.3836 H         1 UNK         0.0798 
    117 H117       31.5457  -49.6155  -54.4365 H         1 UNK         0.3079 
    118 H118       34.6472  -51.4334  -54.8841 H         1 UNK         0.0794 
    119 H119       32.5928  -52.8615  -55.1961 H         1 UNK         0.0786 
    120 H120       33.2169  -52.2643  -56.7247 H         1 UNK         0.0786 
    121 H121       31.7878  -51.5247  -56.0090 H         1 UNK         0.0786 
    122 H122       33.2802  -48.9305  -55.4984 H         1 UNK         0.3032 
    123 H123       35.7537  -48.0627  -57.8862 H         1 UNK         0.1094 
    124 H124       33.7727  -48.7260  -59.2148 H         1 UNK         0.0794 
    125 H125       32.6956  -47.9989  -58.0340 H         1 UNK         0.0794 
    126 H126       33.8062  -46.9887  -58.9587 H         1 UNK         0.0794 
    127 H127       35.6490  -46.5028  -56.3640 H         1 UNK         0.3016 
@<TRIPOS>BOND
     1    1    2 1    
     2    1   67 1    
     3    1   68 1    
     4    1   69 1    
     5    2    3 2    
     6    2    4 am   BACKBONE|DICT|INTERRES
     7    4    5 1    
     8    4   70 1    
     9    5    6 1    
    10    5   65 1    
    11    5   71 1    
    12    6    7 1    
    13    6   72 1    
    14    6   73 1    
    15    7    8 1    
    16    8    9 1    
    17    8   74 1    
    18    8   75 1    
    19    9   10 ar   
    20    9   14 ar   
    21   10   11 ar   
    22   10   76 1    
    23   11   12 ar   
    24   11   48 1    
    25   12   13 ar   
    26   12   77 1    
    27   13   14 ar   
    28   13   15 1    
    29   14   78 1    
    30   15   16 1    
    31   15   79 1    
    32   15   80 1    
    33   16   17 1    
    34   17   18 1    
    35   17   81 1    
    36   17   82 1    
    37   18   19 1    
    38   18   22 1    
    39   18   83 1    
    40   19   20 am   BACKBONE|DICT|INTERRES
    41   19   21 2    
    42   20   84 1    
    43   20   85 1    
    44   22   23 am   BACKBONE|DICT|INTERRES
    45   22   86 1    
    46   23   24 2    
    47   23   25 1    
    48   25   26 1    
    49   25   27 1    
    50   25   87 1    
    51   26   88 1    
    52   26   89 1    
    53   26   90 1    
    54   27   28 am   BACKBONE|DICT|INTERRES
    55   27   91 1    
    56   28   29 2    
    57   28   30 1    
    58   30   31 1    
    59   30   32 1    
    60   30   92 1    
    61   31   93 1    
    62   31   94 1    
    63   31   95 1    
    64   32   33 am   BACKBONE|DICT|INTERRES
    65   32   96 1    
    66   33   34 2    
    67   33   35 1    
    68   35   36 1    
    69   35   37 1    
    70   35   97 1    
    71   36   98 1    
    72   36   99 1    
    73   36  100 1    
    74   37   38 am   BACKBONE|DICT|INTERRES
    75   37  101 1    
    76   38   39 2    
    77   38   40 1    
    78   40   41 1    
    79   40   42 1    
    80   40  102 1    
    81   41  103 1    
    82   41  104 1    
    83   41  105 1    
    84   42   43 am   BACKBONE|DICT|INTERRES
    85   42  106 1    
    86   43   44 2    
    87   43   45 1    
    88   45   46 1    
    89   45   49 1    
    90   45  107 1    
    91   46   47 1    
    92   46  108 1    
    93   46  109 1    
    94   47   48 1    
    95   48  110 1    
    96   48  111 1    
    97   49   50 am   BACKBONE|DICT|INTERRES
    98   49  112 1    
    99   50   51 2    
   100   50   52 1    
   101   52   53 1    
   102   52   54 1    
   103   52  113 1    
   104   53  114 1    
   105   53  115 1    
   106   53  116 1    
   107   54   55 am   BACKBONE|DICT|INTERRES
   108   54  117 1    
   109   55   56 2    
   110   55   57 1    
   111   57   58 1    
   112   57   59 1    
   113   57  118 1    
   114   58  119 1    
   115   58  120 1    
   116   58  121 1    
   117   59   60 am   BACKBONE|DICT|INTERRES
   118   59  122 1    
   119   60   61 2    
   120   60   62 1    
   121   62   63 1    
   122   62   64 1    
   123   62  123 1    
   124   63  124 1    
   125   63  125 1    
   126   63  126 1    
   127   64   65 am   BACKBONE|DICT|INTERRES
   128   64  127 1    
   129   65   66 2    
@<TRIPOS>SUBSTRUCTURE
     1 UNK         1 GROUP             0       ****    0 ROOT    
