@<TRIPOS>MOLECULE
3R134
127   129    1
SMALL
USER_CHARGES


@<TRIPOS>ATOM
      1 CA         29.2948  -46.9817  -49.1207 C.3       0 UNK        -0.1968 
      2 C          30.7902  -46.8078  -49.3443 C.2       0 UNK         0.4852 
      3 O          31.5770  -47.0477  -48.4268 O.2       0 UNK        -0.5359 
      4 N          31.1854  -46.3824  -50.5518 N.am      1 UNK        -0.4300 
      5 CA         32.5795  -46.2128  -50.9685 C.3       1 UNK         0.0863 
      6 C6         32.6636  -45.4283  -52.3020 C.3       11 UNK        -0.0953 
      7 S7         34.3506  -44.8363  -52.6747 S.3       11 UNK        -0.2369 
      8 C8         34.0300  -43.1651  -53.3256 C.3       11 UNK         0.0226 
      9 C9         33.1803  -43.1945  -54.5892 C.ar      11 UNK        -0.0699 
     10 C10        33.6519  -43.8375  -55.7380 C.ar      11 UNK        -0.0804 
     11 C11        32.8607  -43.9000  -56.8871 C.ar      11 UNK        -0.0871 
     12 C12        31.6212  -43.2549  -56.9062 C.ar      11 UNK        -0.1008 
     13 C13        31.1227  -42.6373  -55.7566 C.ar      11 UNK        -0.0735 
     14 C14        31.9116  -42.6041  -54.6018 C.ar      11 UNK        -0.0945 
     15 C15        29.7196  -42.0430  -55.7501 C.3       11 UNK         0.0169 
     16 S16        28.4378  -43.3436  -55.6863 S.3       11 UNK        -0.2669 
     17 C17        28.2172  -43.7551  -57.4537 C.3       11 UNK        -0.0850 
     18 CA         26.7334  -43.7188  -57.8946 C.3       10 UNK         0.0855 
     19 C          26.6187  -43.7922  -59.4403 C.2       10 UNK         0.5543 
     20 N          26.2750  -42.6913  -60.0940 N.am      10 UNK        -0.7343 
     21 O          26.8882  -44.8246  -60.0498 O.2       10 UNK        -0.5027 
     22 N          25.9577  -44.7949  -57.2655 N.am      10 UNK        -0.4495 
     23 C          24.6221  -44.7990  -57.1648 C.2       10 UNK         0.4903 
     24 O          23.9088  -43.8485  -57.4917 O.2       10 UNK        -0.4860 
     25 CA         23.9848  -46.0838  -56.6005 C.3       9 UNK         0.0227 
     26 CB         22.4453  -46.1028  -56.7158 C.3       9 UNK        -0.1964 
     27 N          24.5717  -47.3009  -57.1734 N.am      9 UNK        -0.4231 
     28 C          24.5839  -47.6774  -58.4642 C.2       9 UNK         0.5014 
     29 O          24.0078  -47.0608  -59.3614 O.2       9 UNK        -0.5270 
     30 CA         25.3772  -48.9478  -58.8330 C.3       8 UNK         0.0284 
     31 CB         26.4234  -48.6416  -59.9199 C.3       8 UNK        -0.1977 
     32 N          26.0597  -49.5326  -57.6764 N.am      8 UNK        -0.4342 
     33 C          25.5662  -50.5121  -56.9047 C.2       8 UNK         0.5039 
     34 O          24.5123  -51.1032  -57.1412 O.2       8 UNK        -0.5547 
     35 CA         26.3599  -50.8766  -55.6341 C.3       7 UNK         0.0281 
     36 CB         27.2477  -52.1047  -55.8899 C.3       7 UNK        -0.1963 
     37 N          27.1827  -49.7729  -55.1252 N.am      7 UNK        -0.4444 
     38 C          26.6872  -48.6204  -54.6451 C.2       7 UNK         0.5104 
     39 O          25.4829  -48.4052  -54.5169 O.2       7 UNK        -0.5100 
     40 CA         27.6768  -47.4842  -54.3238 C.3       6 UNK         0.0396 
     41 CB         27.9531  -47.4167  -52.8144 C.3       6 UNK        -0.1801 
     42 N          28.9486  -47.5781  -55.0426 N.am      6 UNK        -0.4747 
     43 C          29.1015  -47.5862  -56.3759 C.2       6 UNK         0.5012 
     44 O          28.1646  -47.4563  -57.1650 O.2       6 UNK        -0.5003 
     45 CA         30.5348  -47.8176  -56.9068 C.3       5 UNK         0.0782 
     46 C46        31.1656  -46.4511  -57.2532 C.3       11 UNK        -0.0868 
     47 S47        32.9052  -46.5192  -57.8093 S.3       11 UNK        -0.2515 
     48 C48        33.2887  -44.7494  -58.0755 C.3       11 UNK         0.0199 
     49 N          31.3705  -48.5880  -55.9723 N.am      5 UNK        -0.4607 
     50 C          31.1169  -49.8287  -55.5314 C.2       4 UNK         0.5031 
     51 O          30.1131  -50.4635  -55.8561 O.2       4 UNK        -0.5119 
     52 CA         32.0894  -50.4405  -54.5057 C.3       4 UNK         0.0263 
     53 CB         32.3949  -51.9239  -54.8023 C.3       4 UNK        -0.1967 
     54 N          33.3178  -49.6645  -54.2841 N.am      4 UNK        -0.4237 
     55 C          34.3575  -49.4990  -55.1203 C.2       3 UNK         0.4908 
     56 O          34.4082  -49.9795  -56.2522 O.2       3 UNK        -0.5102 
     57 CA         35.5408  -48.6364  -54.6309 C.3       3 UNK         0.0241 
     58 CB         35.5785  -47.3004  -55.3904 C.3       3 UNK        -0.1971 
     59 N          35.5145  -48.3545  -53.1938 N.am      3 UNK        -0.4139 
     60 C          35.7313  -49.2505  -52.2200 C.2       2 UNK         0.5016 
     61 O          36.0990  -50.4075  -52.4244 O.2       2 UNK        -0.5319 
     62 CA         35.4540  -48.7906  -50.7748 C.3       2 UNK         0.0286 
     63 CB         36.7726  -48.4837  -50.0466 C.3       2 UNK        -0.1963 
     64 N          34.5673  -47.6227  -50.6740 N.am      2 UNK        -0.4790 
     65 C          33.2903  -47.5779  -51.0819 C.2       1 UNK         0.5024 
     66 O          32.7048  -48.5324  -51.6000 O.2       1 UNK        -0.4888 
     67 H67        28.7082  -46.5760  -49.9443 H         1 UNK         0.0892 
     68 H68        28.9894  -46.4704  -48.2082 H         1 UNK         0.0892 
     69 H69        29.0521  -48.0389  -49.0167 H         1 UNK         0.0892 
     70 H70        30.4939  -46.2165  -51.2668 H         1 UNK         0.3107 
     71 H71        33.0750  -45.6260  -50.1916 H         1 UNK         0.0773 
     72 H72        32.3055  -46.0268  -53.1424 H         1 UNK         0.0680 
     73 H73        32.0042  -44.5605  -52.2511 H         1 UNK         0.0680 
     74 H74        33.5574  -42.5638  -52.5475 H         1 UNK         0.0650 
     75 H75        34.9836  -42.6854  -53.5495 H         1 UNK         0.0650 
     76 H76        34.6141  -44.3304  -55.7198 H         1 UNK         0.1397 
     77 H77        31.0145  -43.3031  -57.7979 H         1 UNK         0.1363 
     78 H78        31.5314  -42.1301  -53.7072 H         1 UNK         0.1355 
     79 H79        29.5925  -41.3958  -54.8810 H         1 UNK         0.0707 
     80 H80        29.5756  -41.4032  -56.6218 H         1 UNK         0.0707 
     81 H81        28.6476  -44.7378  -57.6452 H         1 UNK         0.1034 
     82 H82        28.7908  -43.0501  -58.0566 H         1 UNK         0.1034 
     83 H83        26.3158  -42.7644  -57.5657 H         1 UNK         0.0482 
     84 H84        26.0558  -41.8392  -59.6014 H         1 UNK         0.3460 
     85 H85        26.2130  -42.7181  -61.0998 H         1 UNK         0.3460 
     86 H86        26.4724  -45.6319  -57.0304 H         1 UNK         0.2989 
     87 H87        24.2312  -46.0998  -55.5380 H         1 UNK         0.0559 
     88 H88        22.0269  -47.0139  -56.2884 H         1 UNK         0.0848 
     89 H89        22.1137  -46.0349  -57.7523 H         1 UNK         0.0848 
     90 H90        22.0037  -45.2622  -56.1792 H         1 UNK         0.0848 
     91 H91        25.0343  -47.9015  -56.5010 H         1 UNK         0.3144 
     92 H92        24.6649  -49.6660  -59.2442 H         1 UNK         0.0727 
     93 H93        26.9976  -49.5302  -60.1823 H         1 UNK         0.0790 
     94 H94        27.1241  -47.8687  -59.6013 H         1 UNK         0.0790 
     95 H95        25.9454  -48.2848  -60.8331 H         1 UNK         0.0790 
     96 H96        26.9236  -49.0757  -57.4015 H         1 UNK         0.3215 
     97 H97        25.6351  -51.1352  -54.8590 H         1 UNK         0.0863 
     98 H98        27.7931  -52.3970  -54.9924 H         1 UNK         0.0808 
     99 H99        27.9768  -51.9180  -56.6794 H         1 UNK         0.0808 
    100 H100       26.6473  -52.9617  -56.1984 H         1 UNK         0.0808 
    101 H101       28.1875  -49.8739  -55.2279 H         1 UNK         0.3118 
    102 H102       27.2017  -46.5480  -54.6249 H         1 UNK         0.0546 
    103 H103       27.0224  -47.3434  -52.2497 H         1 UNK         0.0828 
    104 H104       28.5489  -46.5395  -52.5641 H         1 UNK         0.0828 
    105 H105       28.4819  -48.3017  -52.4580 H         1 UNK         0.0828 
    106 H106       29.7780  -47.6932  -54.4793 H         1 UNK         0.3005 
    107 H107       30.4470  -48.4038  -57.8241 H         1 UNK         0.1257 
    108 H108       31.1171  -45.8149  -56.3682 H         1 UNK         0.0775 
    109 H109       30.5892  -45.9537  -58.0347 H         1 UNK         0.0775 
    110 H110       34.3600  -44.6367  -58.2480 H         1 UNK         0.0840 
    111 H111       32.7943  -44.4090  -58.9867 H         1 UNK         0.0840 
    112 H112       32.2314  -48.1458  -55.6869 H         1 UNK         0.2987 
    113 H113       31.5581  -50.4091  -53.5532 H         1 UNK         0.0785 
    114 H114       32.8505  -52.0583  -55.7835 H         1 UNK         0.0798 
    115 H115       31.4821  -52.5209  -54.7881 H         1 UNK         0.0798 
    116 H116       33.0684  -52.3470  -54.0571 H         1 UNK         0.0798 
    117 H117       33.3623  -49.2148  -53.3746 H         1 UNK         0.3079 
    118 H118       36.4578  -49.1864  -54.8528 H         1 UNK         0.0794 
    119 H119       34.6760  -46.7146  -55.2133 H         1 UNK         0.0786 
    120 H120       35.6547  -47.4629  -56.4665 H         1 UNK         0.0786 
    121 H121       36.4358  -46.6956  -55.0941 H         1 UNK         0.0786 
    122 H122       35.2398  -47.4211  -52.9207 H         1 UNK         0.3032 
    123 H123       34.9639  -49.6234  -50.2652 H         1 UNK         0.1094 
    124 H124       37.2982  -47.6421  -50.4998 H         1 UNK         0.0794 
    125 H125       36.6013  -48.2482  -48.9960 H         1 UNK         0.0794 
    126 H126       37.4451  -49.3423  -50.0775 H         1 UNK         0.0794 
    127 H127       34.9756  -46.7845  -50.2835 H         1 UNK         0.3016 
@<TRIPOS>BOND
     1    1    2 1    
     2    1   67 1    
     3    1   68 1    
     4    1   69 1    
     5    2    3 2    
     6    2    4 am   BACKBONE|DICT|INTERRES
     7    4    5 1    
     8    4   70 1    
     9    5    6 1    
    10    5   65 1    
    11    5   71 1    
    12    6    7 1    
    13    6   72 1    
    14    6   73 1    
    15    7    8 1    
    16    8    9 1    
    17    8   74 1    
    18    8   75 1    
    19    9   10 ar   
    20    9   14 ar   
    21   10   11 ar   
    22   10   76 1    
    23   11   12 ar   
    24   11   48 1    
    25   12   13 ar   
    26   12   77 1    
    27   13   14 ar   
    28   13   15 1    
    29   14   78 1    
    30   15   16 1    
    31   15   79 1    
    32   15   80 1    
    33   16   17 1    
    34   17   18 1    
    35   17   81 1    
    36   17   82 1    
    37   18   19 1    
    38   18   22 1    
    39   18   83 1    
    40   19   20 am   BACKBONE|DICT|INTERRES
    41   19   21 2    
    42   20   84 1    
    43   20   85 1    
    44   22   23 am   BACKBONE|DICT|INTERRES
    45   22   86 1    
    46   23   24 2    
    47   23   25 1    
    48   25   26 1    
    49   25   27 1    
    50   25   87 1    
    51   26   88 1    
    52   26   89 1    
    53   26   90 1    
    54   27   28 am   BACKBONE|DICT|INTERRES
    55   27   91 1    
    56   28   29 2    
    57   28   30 1    
    58   30   31 1    
    59   30   32 1    
    60   30   92 1    
    61   31   93 1    
    62   31   94 1    
    63   31   95 1    
    64   32   33 am   BACKBONE|DICT|INTERRES
    65   32   96 1    
    66   33   34 2    
    67   33   35 1    
    68   35   36 1    
    69   35   37 1    
    70   35   97 1    
    71   36   98 1    
    72   36   99 1    
    73   36  100 1    
    74   37   38 am   BACKBONE|DICT|INTERRES
    75   37  101 1    
    76   38   39 2    
    77   38   40 1    
    78   40   41 1    
    79   40   42 1    
    80   40  102 1    
    81   41  103 1    
    82   41  104 1    
    83   41  105 1    
    84   42   43 am   BACKBONE|DICT|INTERRES
    85   42  106 1    
    86   43   44 2    
    87   43   45 1    
    88   45   46 1    
    89   45   49 1    
    90   45  107 1    
    91   46   47 1    
    92   46  108 1    
    93   46  109 1    
    94   47   48 1    
    95   48  110 1    
    96   48  111 1    
    97   49   50 am   BACKBONE|DICT|INTERRES
    98   49  112 1    
    99   50   51 2    
   100   50   52 1    
   101   52   53 1    
   102   52   54 1    
   103   52  113 1    
   104   53  114 1    
   105   53  115 1    
   106   53  116 1    
   107   54   55 am   BACKBONE|DICT|INTERRES
   108   54  117 1    
   109   55   56 2    
   110   55   57 1    
   111   57   58 1    
   112   57   59 1    
   113   57  118 1    
   114   58  119 1    
   115   58  120 1    
   116   58  121 1    
   117   59   60 am   BACKBONE|DICT|INTERRES
   118   59  122 1    
   119   60   61 2    
   120   60   62 1    
   121   62   63 1    
   122   62   64 1    
   123   62  123 1    
   124   63  124 1    
   125   63  125 1    
   126   63  126 1    
   127   64   65 am   BACKBONE|DICT|INTERRES
   128   64  127 1    
   129   65   66 2    
@<TRIPOS>SUBSTRUCTURE
     1 UNK         1 GROUP             0       ****    0 ROOT    
