@<TRIPOS>MOLECULE
3R134
127   129    1
SMALL
USER_CHARGES


@<TRIPOS>ATOM
      1 CA         32.7840  -49.3760  -58.3576 C.3       0 UNK        -0.1968 
      2 C          33.0051  -49.0487  -56.8892 C.2       0 UNK         0.4852 
      3 O          32.7430  -49.8929  -56.0341 O.2       0 UNK        -0.5359 
      4 N          33.5059  -47.8388  -56.5982 N.am      1 UNK        -0.4300 
      5 CA         33.6767  -47.2425  -55.2617 C.3       1 UNK         0.0863 
      6 C6         34.3083  -45.8274  -55.3344 C.3       11 UNK        -0.0953 
      7 S7         33.5744  -44.7531  -56.6146 S.3       11 UNK        -0.2369 
      8 C8         33.6049  -43.1233  -55.8089 C.3       11 UNK         0.0226 
      9 C9         32.2743  -42.7959  -55.1502 C.ar      11 UNK        -0.0699 
     10 C10        32.1240  -42.8608  -53.7610 C.ar      11 UNK        -0.0804 
     11 C11        30.9068  -42.5122  -53.1647 C.ar      11 UNK        -0.0871 
     12 C12        29.8397  -42.0983  -53.9676 C.ar      11 UNK        -0.1008 
     13 C13        29.9775  -42.0386  -55.3564 C.ar      11 UNK        -0.0735 
     14 C14        31.1961  -42.3897  -55.9418 C.ar      11 UNK        -0.0945 
     15 C15        28.8128  -41.5871  -56.2219 C.3       11 UNK         0.0169 
     16 S16        27.5623  -42.8952  -56.3463 S.3       11 UNK        -0.2669 
     17 C17        26.4958  -42.2245  -57.6646 C.3       11 UNK        -0.0850 
     18 CA         25.2334  -43.0947  -57.8861 C.3       10 UNK         0.0855 
     19 C          24.3177  -42.4756  -58.9758 C.2       10 UNK         0.5543 
     20 N          23.3978  -41.6031  -58.5879 N.am      10 UNK        -0.7343 
     21 O          24.4618  -42.7430  -60.1675 O.2       10 UNK        -0.5027 
     22 N          25.5990  -44.4860  -58.1764 N.am      10 UNK        -0.4495 
     23 C          24.7743  -45.5347  -58.1555 C.2       10 UNK         0.4903 
     24 O          23.5745  -45.4554  -57.8891 O.2       10 UNK        -0.4860 
     25 CA         25.3827  -46.9190  -58.4447 C.3       9 UNK         0.0227 
     26 CB         25.2467  -47.2825  -59.9361 C.3       9 UNK        -0.1964 
     27 N          26.7603  -47.1155  -57.9630 N.am      9 UNK        -0.4231 
     28 C          27.9093  -46.5711  -58.4010 C.2       9 UNK         0.5014 
     29 O          27.9604  -45.7151  -59.2850 O.2       9 UNK        -0.5270 
     30 CA         29.2281  -47.0437  -57.7500 C.3       8 UNK         0.0284 
     31 CB         29.9632  -45.8804  -57.0624 C.3       8 UNK        -0.1977 
     32 N          29.0366  -48.1309  -56.7866 N.am      8 UNK        -0.4342 
     33 C          28.8184  -49.4122  -57.1157 C.2       8 UNK         0.5039 
     34 O          28.8686  -49.8355  -58.2708 O.2       8 UNK        -0.5547 
     35 CA         28.4286  -50.3771  -55.9833 C.3       7 UNK         0.0281 
     36 CB         29.5966  -51.3041  -55.6271 C.3       7 UNK        -0.1963 
     37 N          27.9628  -49.6891  -54.7753 N.am      7 UNK        -0.4444 
     38 C          26.7482  -49.1345  -54.6483 C.2       7 UNK         0.5104 
     39 O          25.9034  -49.1388  -55.5438 O.2       7 UNK        -0.5100 
     40 CA         26.4338  -48.4231  -53.3190 C.3       6 UNK         0.0396 
     41 CB         25.8848  -49.4242  -52.2907 C.3       6 UNK        -0.1801 
     42 N          27.5887  -47.7236  -52.7500 N.am      6 UNK        -0.4747 
     43 C          28.2067  -46.6800  -53.3240 C.2       6 UNK         0.5012 
     44 O          27.8233  -46.1643  -54.3719 O.2       6 UNK        -0.5003 
     45 CA         29.4906  -46.1563  -52.6454 C.3       5 UNK         0.0782 
     46 C46        29.1808  -44.9290  -51.7533 C.3       11 UNK        -0.0868 
     47 S47        30.6943  -44.2423  -50.9910 S.3       11 UNK        -0.2515 
     48 C48        30.7489  -42.5471  -51.6513 C.3       11 UNK         0.0199 
     49 N          30.2133  -47.1926  -51.8944 N.am      5 UNK        -0.4607 
     50 C          30.7258  -48.3198  -52.3998 C.2       4 UNK         0.5031 
     51 O          30.5749  -48.6689  -53.5712 O.2       4 UNK        -0.5119 
     52 CA         31.5297  -49.1741  -51.4069 C.3       4 UNK         0.0263 
     53 CB         30.6354  -49.7676  -50.2966 C.3       4 UNK        -0.1967 
     54 N          32.3506  -50.1923  -52.0708 N.am      4 UNK        -0.4237 
     55 C          31.9888  -51.3746  -52.5944 C.2       3 UNK         0.4908 
     56 O          30.8547  -51.8492  -52.5172 O.2       3 UNK        -0.5102 
     57 CA         33.0993  -52.1742  -53.3080 C.3       3 UNK         0.0241 
     58 CB         32.5576  -53.0936  -54.4184 C.3       3 UNK        -0.1971 
     59 N          34.1061  -51.2804  -53.8842 N.am      3 UNK        -0.4139 
     60 C          35.3154  -51.0322  -53.3615 C.2       2 UNK         0.5016 
     61 O          35.7595  -51.6031  -52.3651 O.2       2 UNK        -0.5319 
     62 CA         36.1683  -49.9387  -54.0345 C.3       2 UNK         0.0286 
     63 CB         37.2141  -50.5719  -54.9662 C.3       2 UNK        -0.1963 
     64 N          35.3858  -48.9566  -54.7918 N.am      2 UNK        -0.4790 
     65 C          34.4850  -48.1096  -54.2700 C.2       1 UNK         0.5024 
     66 O          34.2706  -48.0110  -53.0613 O.2       1 UNK        -0.4888 
     67 H67        33.3881  -50.2359  -58.6451 H         1 UNK         0.0892 
     68 H68        33.0465  -48.5412  -59.0071 H         1 UNK         0.0892 
     69 H69        31.7366  -49.6227  -58.5297 H         1 UNK         0.0892 
     70 H70        33.7087  -47.2025  -57.3568 H         1 UNK         0.3107 
     71 H71        32.6726  -47.1440  -54.8437 H         1 UNK         0.0773 
     72 H72        34.2184  -45.3372  -54.3630 H         1 UNK         0.0680 
     73 H73        35.3776  -45.8916  -55.5466 H         1 UNK         0.0680 
     74 H74        34.4246  -43.0695  -55.0909 H         1 UNK         0.0650 
     75 H75        33.8214  -42.3686  -56.5664 H         1 UNK         0.0650 
     76 H76        32.9543  -43.1719  -53.1417 H         1 UNK         0.1397 
     77 H77        28.8960  -41.8239  -53.5159 H         1 UNK         0.1363 
     78 H78        31.3107  -42.3435  -57.0162 H         1 UNK         0.1355 
     79 H79        29.1605  -41.3204  -57.2213 H         1 UNK         0.0707 
     80 H80        28.3608  -40.6892  -55.7978 H         1 UNK         0.0707 
     81 H81        27.0792  -42.1534  -58.5850 H         1 UNK         0.1034 
     82 H82        26.2133  -41.2045  -57.3965 H         1 UNK         0.1034 
     83 H83        24.6707  -43.1069  -56.9501 H         1 UNK         0.0482 
     84 H84        22.8030  -41.1769  -59.2815 H         1 UNK         0.3460 
     85 H85        23.2771  -41.3701  -57.6143 H         1 UNK         0.3460 
     86 H86        26.5588  -44.6512  -58.4613 H         1 UNK         0.2989 
     87 H87        24.7843  -47.6376  -57.8821 H         1 UNK         0.0559 
     88 H88        25.7958  -46.5918  -60.5767 H         1 UNK         0.0848 
     89 H89        24.2024  -47.2496  -60.2494 H         1 UNK         0.0848 
     90 H90        25.6133  -48.2895  -60.1347 H         1 UNK         0.0848 
     91 H91        26.8338  -47.7666  -57.1916 H         1 UNK         0.3144 
     92 H92        29.8684  -47.4103  -58.5549 H         1 UNK         0.0727 
     93 H93        30.8818  -46.2167  -56.5825 H         1 UNK         0.0790 
     94 H94        29.3475  -45.3977  -56.3045 H         1 UNK         0.0790 
     95 H95        30.2390  -45.1111  -57.7848 H         1 UNK         0.0790 
     96 H96        28.9776  -47.8694  -55.8114 H         1 UNK         0.3215 
     97 H97        27.6138  -50.9994  -56.3605 H         1 UNK         0.0863 
     98 H98        29.2980  -52.0620  -54.9029 H         1 UNK         0.0808 
     99 H99        30.4293  -50.7464  -55.2008 H         1 UNK         0.0808 
    100 H100       29.9707  -51.8247  -56.5096 H         1 UNK         0.0808 
    101 H101       28.6416  -49.5784  -54.0303 H         1 UNK         0.3118 
    102 H102       25.6586  -47.6798  -53.5177 H         1 UNK         0.0546 
    103 H103       25.0096  -49.9443  -52.6827 H         1 UNK         0.0828 
    104 H104       25.5764  -48.9229  -51.3731 H         1 UNK         0.0828 
    105 H105       26.6236  -50.1827  -52.0284 H         1 UNK         0.0828 
    106 H106       27.9717  -48.0904  -51.8907 H         1 UNK         0.3005 
    107 H107       30.1507  -45.8276  -53.4522 H         1 UNK         0.1257 
    108 H108       28.4930  -45.2020  -50.9507 H         1 UNK         0.0775 
    109 H109       28.6757  -44.1532  -52.3311 H         1 UNK         0.0775 
    110 H110       29.8490  -42.0141  -51.3399 H         1 UNK         0.0840 
    111 H111       31.5859  -42.0187  -51.1926 H         1 UNK         0.0840 
    112 H112       30.3970  -46.9687  -50.9269 H         1 UNK         0.2987 
    113 H113       32.2474  -48.5038  -50.9310 H         1 UNK         0.0785 
    114 H114       29.7998  -50.3370  -50.7045 H         1 UNK         0.0798 
    115 H115       30.2108  -48.9820  -49.6710 H         1 UNK         0.0798 
    116 H116       31.2025  -50.4276  -49.6402 H         1 UNK         0.0798 
    117 H117       33.2962  -49.8866  -52.2613 H         1 UNK         0.3079 
    118 H118       33.5526  -52.8122  -52.5468 H         1 UNK         0.0794 
    119 H119       32.1191  -52.5211  -55.2350 H         1 UNK         0.0786 
    120 H120       31.7914  -53.7708  -54.0391 H         1 UNK         0.0786 
    121 H121       33.3522  -53.7105  -54.8378 H         1 UNK         0.0786 
    122 H122       33.7916  -50.7339  -54.6852 H         1 UNK         0.3032 
    123 H123       36.6928  -49.4048  -53.2387 H         1 UNK         0.1094 
    124 H124       37.8829  -49.8189  -55.3837 H         1 UNK         0.0794 
    125 H125       37.8344  -51.2891  -54.4265 H         1 UNK         0.0794 
    126 H126       36.7464  -51.1049  -55.7951 H         1 UNK         0.0794 
    127 H127       35.4872  -48.9726  -55.7965 H         1 UNK         0.3016 
@<TRIPOS>BOND
     1    1    2 1    
     2    1   67 1    
     3    1   68 1    
     4    1   69 1    
     5    2    3 2    
     6    2    4 am   BACKBONE|DICT|INTERRES
     7    4    5 1    
     8    4   70 1    
     9    5    6 1    
    10    5   65 1    
    11    5   71 1    
    12    6    7 1    
    13    6   72 1    
    14    6   73 1    
    15    7    8 1    
    16    8    9 1    
    17    8   74 1    
    18    8   75 1    
    19    9   10 ar   
    20    9   14 ar   
    21   10   11 ar   
    22   10   76 1    
    23   11   12 ar   
    24   11   48 1    
    25   12   13 ar   
    26   12   77 1    
    27   13   14 ar   
    28   13   15 1    
    29   14   78 1    
    30   15   16 1    
    31   15   79 1    
    32   15   80 1    
    33   16   17 1    
    34   17   18 1    
    35   17   81 1    
    36   17   82 1    
    37   18   19 1    
    38   18   22 1    
    39   18   83 1    
    40   19   20 am   BACKBONE|DICT|INTERRES
    41   19   21 2    
    42   20   84 1    
    43   20   85 1    
    44   22   23 am   BACKBONE|DICT|INTERRES
    45   22   86 1    
    46   23   24 2    
    47   23   25 1    
    48   25   26 1    
    49   25   27 1    
    50   25   87 1    
    51   26   88 1    
    52   26   89 1    
    53   26   90 1    
    54   27   28 am   BACKBONE|DICT|INTERRES
    55   27   91 1    
    56   28   29 2    
    57   28   30 1    
    58   30   31 1    
    59   30   32 1    
    60   30   92 1    
    61   31   93 1    
    62   31   94 1    
    63   31   95 1    
    64   32   33 am   BACKBONE|DICT|INTERRES
    65   32   96 1    
    66   33   34 2    
    67   33   35 1    
    68   35   36 1    
    69   35   37 1    
    70   35   97 1    
    71   36   98 1    
    72   36   99 1    
    73   36  100 1    
    74   37   38 am   BACKBONE|DICT|INTERRES
    75   37  101 1    
    76   38   39 2    
    77   38   40 1    
    78   40   41 1    
    79   40   42 1    
    80   40  102 1    
    81   41  103 1    
    82   41  104 1    
    83   41  105 1    
    84   42   43 am   BACKBONE|DICT|INTERRES
    85   42  106 1    
    86   43   44 2    
    87   43   45 1    
    88   45   46 1    
    89   45   49 1    
    90   45  107 1    
    91   46   47 1    
    92   46  108 1    
    93   46  109 1    
    94   47   48 1    
    95   48  110 1    
    96   48  111 1    
    97   49   50 am   BACKBONE|DICT|INTERRES
    98   49  112 1    
    99   50   51 2    
   100   50   52 1    
   101   52   53 1    
   102   52   54 1    
   103   52  113 1    
   104   53  114 1    
   105   53  115 1    
   106   53  116 1    
   107   54   55 am   BACKBONE|DICT|INTERRES
   108   54  117 1    
   109   55   56 2    
   110   55   57 1    
   111   57   58 1    
   112   57   59 1    
   113   57  118 1    
   114   58  119 1    
   115   58  120 1    
   116   58  121 1    
   117   59   60 am   BACKBONE|DICT|INTERRES
   118   59  122 1    
   119   60   61 2    
   120   60   62 1    
   121   62   63 1    
   122   62   64 1    
   123   62  123 1    
   124   63  124 1    
   125   63  125 1    
   126   63  126 1    
   127   64   65 am   BACKBONE|DICT|INTERRES
   128   64  127 1    
   129   65   66 2    
@<TRIPOS>SUBSTRUCTURE
     1 UNK         1 GROUP             0       ****    0 ROOT    
