@<TRIPOS>MOLECULE
3R134
127   129    1
SMALL
USER_CHARGES


@<TRIPOS>ATOM
      1 CA         37.8745  -45.7626  -52.1569 C.3       0 UNK        -0.1968 
      2 C          36.3910  -45.8348  -52.4866 C.2       0 UNK         0.4852 
      3 O          36.0104  -46.5190  -53.4359 O.2       0 UNK        -0.5359 
      4 N          35.5538  -45.1349  -51.7090 N.am      1 UNK        -0.4300 
      5 CA         34.0941  -45.0847  -51.8768 C.3       1 UNK         0.0863 
      6 C6         33.4736  -43.8581  -51.1624 C.3       11 UNK        -0.0953 
      7 S7         34.1553  -42.2892  -51.8029 S.3       11 UNK        -0.2369 
      8 C8         32.7004  -41.5078  -52.5825 C.3       11 UNK         0.0226 
      9 C9         32.0152  -42.3612  -53.6484 C.ar      11 UNK        -0.0699 
     10 C10        32.7528  -43.0923  -54.5861 C.ar      11 UNK        -0.0804 
     11 C11        32.1100  -43.8821  -55.5448 C.ar      11 UNK        -0.0871 
     12 C12        30.7117  -43.9109  -55.5813 C.ar      11 UNK        -0.1008 
     13 C13        29.9585  -43.1573  -54.6723 C.ar      11 UNK        -0.0735 
     14 C14        30.6190  -42.3946  -53.7051 C.ar      11 UNK        -0.0945 
     15 C15        28.4341  -43.1802  -54.7030 C.3       11 UNK         0.0169 
     16 S16        27.7574  -42.8729  -56.3657 S.3       11 UNK        -0.2669 
     17 C17        25.9916  -43.2540  -56.0907 C.3       11 UNK        -0.0850 
     18 CA         25.6569  -44.7644  -56.2713 C.3       10 UNK         0.0855 
     19 C          24.1741  -45.1038  -55.9261 C.2       10 UNK         0.5543 
     20 N          23.5322  -46.0545  -56.5963 N.am      10 UNK        -0.7343 
     21 O          23.5985  -44.5114  -55.0163 O.2       10 UNK        -0.5027 
     22 N          26.1330  -45.3169  -57.5487 N.am      10 UNK        -0.4495 
     23 C          25.7036  -44.9838  -58.7711 C.2       10 UNK         0.4903 
     24 O          24.8667  -44.1104  -59.0022 O.2       10 UNK        -0.4860 
     25 CA         26.2930  -45.7873  -59.9432 C.3       9 UNK         0.0227 
     26 CB         27.5992  -45.1371  -60.4282 C.3       9 UNK        -0.1964 
     27 N          26.5388  -47.2049  -59.6471 N.am      9 UNK        -0.4231 
     28 C          25.6329  -48.0954  -59.2151 C.2       9 UNK         0.5014 
     29 O          24.4635  -47.8085  -58.9539 O.2       9 UNK        -0.5270 
     30 CA         26.1040  -49.5552  -59.0746 C.3       8 UNK         0.0284 
     31 CB         27.2720  -49.9183  -60.0148 C.3       8 UNK        -0.1977 
     32 N          26.4929  -49.8557  -57.6985 N.am      8 UNK        -0.4342 
     33 C          25.6537  -50.1471  -56.6954 C.2       8 UNK         0.5039 
     34 O          24.4316  -50.2356  -56.8169 O.2       8 UNK        -0.5547 
     35 CA         26.2906  -50.4014  -55.3197 C.3       7 UNK         0.0281 
     36 CB         26.8166  -51.8430  -55.2165 C.3       7 UNK        -0.1963 
     37 N          27.3772  -49.4598  -55.0473 N.am      7 UNK        -0.4444 
     38 C          27.1968  -48.2180  -54.5781 C.2       7 UNK         0.5104 
     39 O          26.1021  -47.7617  -54.2493 O.2       7 UNK        -0.5100 
     40 CA         28.4426  -47.3245  -54.4595 C.3       6 UNK         0.0396 
     41 CB         29.0010  -47.3439  -53.0300 C.3       6 UNK        -0.1801 
     42 N          29.4979  -47.6806  -55.4076 N.am      6 UNK        -0.4747 
     43 C          29.4472  -47.4042  -56.7196 C.2       6 UNK         0.5012 
     44 O          28.5177  -46.7990  -57.2511 O.2       6 UNK        -0.5003 
     45 CA         30.5923  -47.9339  -57.6072 C.3       5 UNK         0.0782 
     46 C46        31.6804  -46.8591  -57.8482 C.3       11 UNK        -0.0868 
     47 S47        32.7118  -46.4762  -56.3856 S.3       11 UNK        -0.2515 
     48 C48        32.9356  -44.6732  -56.5528 C.3       11 UNK         0.0199 
     49 N          31.1483  -49.2056  -57.1337 N.am      5 UNK        -0.4607 
     50 C          30.4435  -50.3355  -56.9848 C.2       4 UNK         0.5031 
     51 O          29.2599  -50.4386  -57.3066 O.2       4 UNK        -0.5119 
     52 CA         31.1395  -51.5366  -56.3205 C.3       4 UNK         0.0263 
     53 CB         31.5867  -52.5461  -57.3891 C.3       4 UNK        -0.1967 
     54 N          32.2816  -51.2026  -55.4590 N.am      4 UNK        -0.4237 
     55 C          32.2542  -50.3800  -54.4004 C.2       3 UNK         0.4908 
     56 O          31.2590  -49.7381  -54.0525 O.2       3 UNK        -0.5102 
     57 CA         33.5690  -50.2402  -53.6241 C.3       3 UNK         0.0241 
     58 CB         34.6592  -49.5635  -54.4771 C.3       3 UNK        -0.1971 
     59 N          33.3373  -49.4462  -52.4224 N.am      3 UNK        -0.4139 
     60 C          34.0066  -49.5482  -51.2710 C.2       2 UNK         0.5016 
     61 O          34.9089  -50.3647  -51.0721 O.2       2 UNK        -0.5319 
     62 CA         33.6310  -48.5275  -50.1795 C.3       2 UNK         0.0286 
     63 CB         34.2547  -48.8624  -48.8115 C.3       2 UNK        -0.1963 
     64 N          34.0589  -47.1852  -50.5788 N.am      2 UNK        -0.4790 
     65 C          33.4005  -46.3903  -51.4353 C.2       1 UNK         0.5024 
     66 O          32.2925  -46.6708  -51.8923 O.2       1 UNK        -0.4888 
     67 H67        38.4283  -45.3672  -53.0080 H         1 UNK         0.0892 
     68 H68        38.2576  -46.7580  -51.9337 H         1 UNK         0.0892 
     69 H69        38.0718  -45.1221  -51.2974 H         1 UNK         0.0892 
     70 H70        35.9257  -44.5672  -50.9605 H         1 UNK         0.3107 
     71 H71        33.8905  -44.9911  -52.9449 H         1 UNK         0.0773 
     72 H72        32.3880  -43.8520  -51.2788 H         1 UNK         0.0680 
     73 H73        33.6626  -43.9014  -50.0883 H         1 UNK         0.0680 
     74 H74        33.0135  -40.5681  -53.0388 H         1 UNK         0.0650 
     75 H75        31.9952  -41.2464  -51.7919 H         1 UNK         0.0650 
     76 H76        33.8332  -43.0539  -54.5604 H         1 UNK         0.1397 
     77 H77        30.2065  -44.5141  -56.3228 H         1 UNK         0.1363 
     78 H78        30.0424  -41.8213  -52.9919 H         1 UNK         0.1355 
     79 H79        28.0251  -42.4294  -54.0251 H         1 UNK         0.0707 
     80 H80        28.0887  -44.1429  -54.3328 H         1 UNK         0.0707 
     81 H81        25.4008  -42.6519  -56.7828 H         1 UNK         0.1034 
     82 H82        25.7135  -42.9139  -55.0915 H         1 UNK         0.1034 
     83 H83        26.2260  -45.3004  -55.5145 H         1 UNK         0.0482 
     84 H84        22.5791  -46.2701  -56.3529 H         1 UNK         0.3460 
     85 H85        23.9857  -46.5586  -57.3499 H         1 UNK         0.3460 
     86 H86        26.8784  -46.0060  -57.4757 H         1 UNK         0.2989 
     87 H87        25.5694  -45.7511  -60.7599 H         1 UNK         0.0559 
     88 H88        27.9822  -45.6273  -61.3233 H         1 UNK         0.0848 
     89 H89        28.3759  -45.1749  -59.6627 H         1 UNK         0.0848 
     90 H90        27.4422  -44.0868  -60.6784 H         1 UNK         0.0848 
     91 H91        27.4795  -47.5338  -59.8027 H         1 UNK         0.3144 
     92 H92        25.2574  -50.1896  -59.3457 H         1 UNK         0.0727 
     93 H93        27.4758  -50.9889  -59.9824 H         1 UNK         0.0790 
     94 H94        28.1970  -49.4064  -59.7482 H         1 UNK         0.0790 
     95 H95        27.0373  -49.6701  -61.0510 H         1 UNK         0.0790 
     96 H96        27.4921  -49.8838  -57.5079 H         1 UNK         0.3215 
     97 H97        25.5131  -50.2740  -54.5627 H         1 UNK         0.0863 
     98 H98        27.2360  -52.0423  -54.2303 H         1 UNK         0.0808 
     99 H99        27.5885  -52.0523  -55.9576 H         1 UNK         0.0808 
    100 H100       26.0112  -52.5610  -55.3766 H         1 UNK         0.0808 
    101 H101       28.3086  -49.7370  -55.3252 H         1 UNK         0.3118 
    102 H102       28.1297  -46.3060  -54.6792 H         1 UNK         0.0546 
    103 H103       29.3604  -48.3335  -52.7468 H         1 UNK         0.0828 
    104 H104       28.2370  -47.0540  -52.3076 H         1 UNK         0.0828 
    105 H105       29.8280  -46.6418  -52.9241 H         1 UNK         0.0828 
    106 H106       30.2814  -48.2139  -55.0421 H         1 UNK         0.3005 
    107 H107       30.1365  -48.1454  -58.5769 H         1 UNK         0.1257 
    108 H108       32.3498  -47.1943  -58.6418 H         1 UNK         0.0775 
    109 H109       31.2164  -45.9467  -58.2276 H         1 UNK         0.0775 
    110 H110       33.9975  -44.4594  -56.4216 H         1 UNK         0.0840 
    111 H111       32.6931  -44.3407  -57.5626 H         1 UNK         0.0840 
    112 H112       32.1087  -49.1848  -56.8242 H         1 UNK         0.2987 
    113 H113       30.3927  -52.0202  -55.6875 H         1 UNK         0.0785 
    114 H114       32.3639  -52.1338  -58.0340 H         1 UNK         0.0798 
    115 H115       30.7511  -52.8338  -58.0293 H         1 UNK         0.0798 
    116 H116       31.9729  -53.4600  -56.9371 H         1 UNK         0.0798 
    117 H117       33.1484  -51.6754  -55.6722 H         1 UNK         0.3079 
    118 H118       33.8948  -51.2430  -53.3396 H         1 UNK         0.0794 
    119 H119       34.3616  -48.5599  -54.7840 H         1 UNK         0.0786 
    120 H120       34.8787  -50.1332  -55.3804 H         1 UNK         0.0786 
    121 H121       35.5934  -49.4712  -53.9225 H         1 UNK         0.0786 
    122 H122       32.5960  -48.7568  -52.5032 H         1 UNK         0.3032 
    123 H123       32.5442  -48.5462  -50.0661 H         1 UNK         0.1094 
    124 H124       33.9329  -48.1559  -48.0461 H         1 UNK         0.0794 
    125 H125       33.9540  -49.8571  -48.4796 H         1 UNK         0.0794 
    126 H126       35.3449  -48.8457  -48.8461 H         1 UNK         0.0794 
    127 H127       34.9793  -46.8976  -50.2797 H         1 UNK         0.3016 
@<TRIPOS>BOND
     1    1    2 1    
     2    1   67 1    
     3    1   68 1    
     4    1   69 1    
     5    2    3 2    
     6    2    4 am   BACKBONE|DICT|INTERRES
     7    4    5 1    
     8    4   70 1    
     9    5    6 1    
    10    5   65 1    
    11    5   71 1    
    12    6    7 1    
    13    6   72 1    
    14    6   73 1    
    15    7    8 1    
    16    8    9 1    
    17    8   74 1    
    18    8   75 1    
    19    9   10 ar   
    20    9   14 ar   
    21   10   11 ar   
    22   10   76 1    
    23   11   12 ar   
    24   11   48 1    
    25   12   13 ar   
    26   12   77 1    
    27   13   14 ar   
    28   13   15 1    
    29   14   78 1    
    30   15   16 1    
    31   15   79 1    
    32   15   80 1    
    33   16   17 1    
    34   17   18 1    
    35   17   81 1    
    36   17   82 1    
    37   18   19 1    
    38   18   22 1    
    39   18   83 1    
    40   19   20 am   BACKBONE|DICT|INTERRES
    41   19   21 2    
    42   20   84 1    
    43   20   85 1    
    44   22   23 am   BACKBONE|DICT|INTERRES
    45   22   86 1    
    46   23   24 2    
    47   23   25 1    
    48   25   26 1    
    49   25   27 1    
    50   25   87 1    
    51   26   88 1    
    52   26   89 1    
    53   26   90 1    
    54   27   28 am   BACKBONE|DICT|INTERRES
    55   27   91 1    
    56   28   29 2    
    57   28   30 1    
    58   30   31 1    
    59   30   32 1    
    60   30   92 1    
    61   31   93 1    
    62   31   94 1    
    63   31   95 1    
    64   32   33 am   BACKBONE|DICT|INTERRES
    65   32   96 1    
    66   33   34 2    
    67   33   35 1    
    68   35   36 1    
    69   35   37 1    
    70   35   97 1    
    71   36   98 1    
    72   36   99 1    
    73   36  100 1    
    74   37   38 am   BACKBONE|DICT|INTERRES
    75   37  101 1    
    76   38   39 2    
    77   38   40 1    
    78   40   41 1    
    79   40   42 1    
    80   40  102 1    
    81   41  103 1    
    82   41  104 1    
    83   41  105 1    
    84   42   43 am   BACKBONE|DICT|INTERRES
    85   42  106 1    
    86   43   44 2    
    87   43   45 1    
    88   45   46 1    
    89   45   49 1    
    90   45  107 1    
    91   46   47 1    
    92   46  108 1    
    93   46  109 1    
    94   47   48 1    
    95   48  110 1    
    96   48  111 1    
    97   49   50 am   BACKBONE|DICT|INTERRES
    98   49  112 1    
    99   50   51 2    
   100   50   52 1    
   101   52   53 1    
   102   52   54 1    
   103   52  113 1    
   104   53  114 1    
   105   53  115 1    
   106   53  116 1    
   107   54   55 am   BACKBONE|DICT|INTERRES
   108   54  117 1    
   109   55   56 2    
   110   55   57 1    
   111   57   58 1    
   112   57   59 1    
   113   57  118 1    
   114   58  119 1    
   115   58  120 1    
   116   58  121 1    
   117   59   60 am   BACKBONE|DICT|INTERRES
   118   59  122 1    
   119   60   61 2    
   120   60   62 1    
   121   62   63 1    
   122   62   64 1    
   123   62  123 1    
   124   63  124 1    
   125   63  125 1    
   126   63  126 1    
   127   64   65 am   BACKBONE|DICT|INTERRES
   128   64  127 1    
   129   65   66 2    
@<TRIPOS>SUBSTRUCTURE
     1 UNK         1 GROUP             0       ****    0 ROOT    
