@<TRIPOS>MOLECULE
3R134
127   129    1
SMALL
USER_CHARGES


@<TRIPOS>ATOM
      1 CA         36.7479  -47.8054  -56.3227 C.3       0 UNK        -0.1968 
      2 C          35.4777  -47.5329  -55.5328 C.2       0 UNK         0.4852 
      3 O          34.5900  -48.3866  -55.4955 O.2       0 UNK        -0.5359 
      4 N          35.3903  -46.3595  -54.8886 N.am      1 UNK        -0.4300 
      5 CA         34.2367  -45.8703  -54.1165 C.3       1 UNK         0.0863 
      6 C6         34.4921  -44.4611  -53.5348 C.3       11 UNK        -0.0953 
      7 S7         34.5633  -43.2064  -54.8569 S.3       11 UNK        -0.2369 
      8 C8         33.5643  -41.8506  -54.1617 C.3       11 UNK         0.0226 
      9 C9         32.0774  -42.1785  -54.0886 C.ar      11 UNK        -0.0699 
     10 C10        31.4957  -42.5403  -52.8688 C.ar      11 UNK        -0.0804 
     11 C11        30.1232  -42.7913  -52.7784 C.ar      11 UNK        -0.0871 
     12 C12        29.3278  -42.6546  -53.9192 C.ar      11 UNK        -0.1008 
     13 C13        29.8960  -42.3072  -55.1480 C.ar      11 UNK        -0.0735 
     14 C14        31.2730  -42.0734  -55.2286 C.ar      11 UNK        -0.0945 
     15 C15        29.0053  -42.1579  -56.3718 C.3       11 UNK         0.0169 
     16 S16        28.3080  -43.7579  -56.8866 S.3       11 UNK        -0.2669 
     17 C17        26.9920  -43.2158  -58.0342 C.3       11 UNK        -0.0850 
     18 CA         27.1523  -43.6592  -59.5183 C.3       10 UNK         0.0855 
     19 C          28.2541  -42.8911  -60.3131 C.2       10 UNK         0.5543 
     20 N          28.7993  -43.4495  -61.3860 N.am      10 UNK        -0.7343 
     21 O          28.5819  -41.7519  -59.9896 O.2       10 UNK        -0.5027 
     22 N          27.0709  -45.1238  -59.6814 N.am      10 UNK        -0.4495 
     23 C          28.0507  -46.0308  -59.5675 C.2       10 UNK         0.4903 
     24 O          29.2462  -45.7679  -59.4387 O.2       10 UNK        -0.4860 
     25 CA         27.5833  -47.4930  -59.5451 C.3       9 UNK         0.0227 
     26 CB         28.7318  -48.4932  -59.7723 C.3       9 UNK        -0.1964 
     27 N          26.9708  -47.7632  -58.2475 N.am      9 UNK        -0.4231 
     28 C          25.6798  -47.5872  -57.9390 C.2       9 UNK         0.5014 
     29 O          24.8335  -47.1982  -58.7473 O.2       9 UNK        -0.5270 
     30 CA         25.2850  -47.8863  -56.4782 C.3       8 UNK         0.0284 
     31 CB         23.7616  -48.0217  -56.2710 C.3       8 UNK        -0.1977 
     32 N          26.0053  -49.0443  -55.9342 N.am      8 UNK        -0.4342 
     33 C          25.9562  -50.3167  -56.3576 C.2       8 UNK         0.5039 
     34 O          25.1814  -50.7281  -57.2222 O.2       8 UNK        -0.5547 
     35 CA         26.9681  -51.3020  -55.7414 C.3       7 UNK         0.0281 
     36 CB         28.0870  -51.6070  -56.7516 C.3       7 UNK        -0.1963 
     37 N          27.5755  -50.8252  -54.4958 N.am      7 UNK        -0.4444 
     38 C          26.9482  -50.7571  -53.3139 C.2       7 UNK         0.5104 
     39 O          25.7919  -51.1362  -53.1268 O.2       7 UNK        -0.5100 
     40 CA         27.7377  -50.1310  -52.1518 C.3       6 UNK         0.0396 
     41 CB         28.6612  -51.1690  -51.4942 C.3       6 UNK        -0.1801 
     42 N          28.5243  -48.9671  -52.5693 N.am      6 UNK        -0.4747 
     43 C          28.0047  -47.7880  -52.9459 C.2       6 UNK         0.5012 
     44 O          26.7965  -47.5537  -52.9793 O.2       6 UNK        -0.5003 
     45 CA         29.0059  -46.7081  -53.4072 C.3       5 UNK         0.0782 
     46 C46        29.6045  -45.9375  -52.2029 C.3       11 UNK        -0.0868 
     47 S47        28.4550  -44.6834  -51.5407 S.3       11 UNK        -0.2515 
     48 C48        29.5072  -43.1934  -51.4418 C.3       11 UNK         0.0199 
     49 N          30.0468  -47.2790  -54.2698 N.am      5 UNK        -0.4607 
     50 C          29.8072  -47.7845  -55.4890 C.2       4 UNK         0.5031 
     51 O          28.6956  -47.7947  -56.0161 O.2       4 UNK        -0.5119 
     52 CA         30.9779  -48.4331  -56.2413 C.3       4 UNK         0.0263 
     53 CB         31.7357  -47.3897  -57.0747 C.3       4 UNK        -0.1967 
     54 N          31.9096  -49.1730  -55.3871 N.am      4 UNK        -0.4237 
     55 C          31.5835  -50.2564  -54.6658 C.2       3 UNK         0.4908 
     56 O          30.4339  -50.6812  -54.5542 O.2       3 UNK        -0.5102 
     57 CA         32.7246  -50.9904  -53.9501 C.3       3 UNK         0.0241 
     58 CB         33.5584  -51.8040  -54.9537 C.3       3 UNK        -0.1971 
     59 N          33.5888  -50.0437  -53.2490 N.am      3 UNK        -0.4139 
     60 C          33.5144  -49.7728  -51.9387 C.2       2 UNK         0.5016 
     61 O          32.7763  -50.3689  -51.1533 O.2       2 UNK        -0.5319 
     62 CA         34.3987  -48.6265  -51.4081 C.3       2 UNK         0.0286 
     63 CB         35.7215  -49.1799  -50.8544 C.3       2 UNK        -0.1963 
     64 N          34.6895  -47.5863  -52.4018 N.am      2 UNK        -0.4790 
     65 C          33.7605  -46.8384  -53.0159 C.2       1 UNK         0.5024 
     66 O          32.5559  -46.9301  -52.7852 O.2       1 UNK        -0.4888 
     67 H67        37.4515  -46.9752  -56.2650 H         1 UNK         0.0892 
     68 H68        37.2420  -48.6979  -55.9401 H         1 UNK         0.0892 
     69 H69        36.5054  -47.9733  -57.3716 H         1 UNK         0.0892 
     70 H70        36.1546  -45.7036  -54.9680 H         1 UNK         0.3107 
     71 H71        33.4042  -45.7882  -54.8145 H         1 UNK         0.0773 
     72 H72        35.4256  -44.4351  -52.9699 H         1 UNK         0.0680 
     73 H73        33.7072  -44.1885  -52.8293 H         1 UNK         0.0680 
     74 H74        33.9512  -41.5905  -53.1751 H         1 UNK         0.0650 
     75 H75        33.7047  -40.9644  -54.7822 H         1 UNK         0.0650 
     76 H76        32.1132  -42.6179  -51.9845 H         1 UNK         0.1397 
     77 H77        28.2629  -42.8336  -53.8559 H         1 UNK         0.1363 
     78 H78        31.7185  -41.7924  -56.1732 H         1 UNK         0.1355 
     79 H79        29.5542  -41.7215  -57.2079 H         1 UNK         0.0707 
     80 H80        28.1979  -41.4647  -56.1313 H         1 UNK         0.0707 
     81 H81        26.8751  -42.1322  -57.9800 H         1 UNK         0.1034 
     82 H82        26.0526  -43.6140  -57.6481 H         1 UNK         0.1034 
     83 H83        26.2420  -43.3133  -60.0092 H         1 UNK         0.0482 
     84 H84        29.4985  -42.9443  -61.9066 H         1 UNK         0.3460 
     85 H85        28.5527  -44.3904  -61.6474 H         1 UNK         0.3460 
     86 H86        26.1314  -45.4864  -59.7796 H         1 UNK         0.2989 
     87 H87        26.8510  -47.6353  -60.3428 H         1 UNK         0.0559 
     88 H88        29.4980  -48.4139  -59.0017 H         1 UNK         0.0848 
     89 H89        29.2165  -48.3176  -60.7334 H         1 UNK         0.0848 
     90 H90        28.3667  -49.5204  -59.7746 H         1 UNK         0.0848 
     91 H91        27.6126  -47.9520  -57.4784 H         1 UNK         0.3144 
     92 H92        25.6203  -47.0267  -55.8956 H         1 UNK         0.0727 
     93 H93        23.3382  -48.8223  -56.8780 H         1 UNK         0.0790 
     94 H94        23.2478  -47.1001  -56.5470 H         1 UNK         0.0790 
     95 H95        23.5210  -48.2268  -55.2279 H         1 UNK         0.0790 
     96 H96        26.7159  -48.8193  -55.2494 H         1 UNK         0.3215 
     97 H97        26.4336  -52.2303  -55.5283 H         1 UNK         0.0863 
     98 H98        28.6488  -50.7091  -57.0104 H         1 UNK         0.0808 
     99 H99        27.6787  -52.0140  -57.6777 H         1 UNK         0.0808 
    100 H100       28.7906  -52.3404  -56.3572 H         1 UNK         0.0808 
    101 H101       28.5604  -50.5683  -54.5353 H         1 UNK         0.3118 
    102 H102       27.0173  -49.7976  -51.4018 H         1 UNK         0.0546 
    103 H103       29.1741  -50.7520  -50.6274 H         1 UNK         0.0828 
    104 H104       29.4200  -51.5366  -52.1858 H         1 UNK         0.0828 
    105 H105       28.0914  -52.0324  -51.1482 H         1 UNK         0.0828 
    106 H106       29.5255  -49.0912  -52.6249 H         1 UNK         0.3005 
    107 H107       28.4521  -45.9959  -54.0250 H         1 UNK         0.1257 
    108 H108       30.5131  -45.4252  -52.5170 H         1 UNK         0.0775 
    109 H109       29.9120  -46.6116  -51.4011 H         1 UNK         0.0775 
    110 H110       28.9061  -42.3631  -51.0689 H         1 UNK         0.0840 
    111 H111       30.2832  -43.3698  -50.6952 H         1 UNK         0.0840 
    112 H112       30.9874  -47.3019  -53.8875 H         1 UNK         0.2987 
    113 H113       30.5491  -49.1588  -56.9344 H         1 UNK         0.0785 
    114 H114       32.5301  -47.8489  -57.6632 H         1 UNK         0.0798 
    115 H115       31.0645  -46.8866  -57.7715 H         1 UNK         0.0798 
    116 H116       32.1817  -46.6184  -56.4511 H         1 UNK         0.0798 
    117 H117       32.8887  -48.8914  -55.4341 H         1 UNK         0.3079 
    118 H118       32.2771  -51.6910  -53.2416 H         1 UNK         0.0794 
    119 H119       34.3333  -52.3790  -54.4465 H         1 UNK         0.0786 
    120 H120       34.0464  -51.1659  -55.6918 H         1 UNK         0.0786 
    121 H121       32.9319  -52.5129  -55.4968 H         1 UNK         0.0786 
    122 H122       34.1910  -49.4689  -53.8294 H         1 UNK         0.3032 
    123 H123       33.8520  -48.1551  -50.5882 H         1 UNK         0.1094 
    124 H124       36.3255  -49.6413  -51.6368 H         1 UNK         0.0794 
    125 H125       36.3167  -48.3950  -50.3873 H         1 UNK         0.0794 
    126 H126       35.5380  -49.9402  -50.0935 H         1 UNK         0.0794 
    127 H127       35.6568  -47.4579  -52.6624 H         1 UNK         0.3016 
@<TRIPOS>BOND
     1    1    2 1    
     2    1   67 1    
     3    1   68 1    
     4    1   69 1    
     5    2    3 2    
     6    2    4 am   BACKBONE|DICT|INTERRES
     7    4    5 1    
     8    4   70 1    
     9    5    6 1    
    10    5   65 1    
    11    5   71 1    
    12    6    7 1    
    13    6   72 1    
    14    6   73 1    
    15    7    8 1    
    16    8    9 1    
    17    8   74 1    
    18    8   75 1    
    19    9   10 ar   
    20    9   14 ar   
    21   10   11 ar   
    22   10   76 1    
    23   11   12 ar   
    24   11   48 1    
    25   12   13 ar   
    26   12   77 1    
    27   13   14 ar   
    28   13   15 1    
    29   14   78 1    
    30   15   16 1    
    31   15   79 1    
    32   15   80 1    
    33   16   17 1    
    34   17   18 1    
    35   17   81 1    
    36   17   82 1    
    37   18   19 1    
    38   18   22 1    
    39   18   83 1    
    40   19   20 am   BACKBONE|DICT|INTERRES
    41   19   21 2    
    42   20   84 1    
    43   20   85 1    
    44   22   23 am   BACKBONE|DICT|INTERRES
    45   22   86 1    
    46   23   24 2    
    47   23   25 1    
    48   25   26 1    
    49   25   27 1    
    50   25   87 1    
    51   26   88 1    
    52   26   89 1    
    53   26   90 1    
    54   27   28 am   BACKBONE|DICT|INTERRES
    55   27   91 1    
    56   28   29 2    
    57   28   30 1    
    58   30   31 1    
    59   30   32 1    
    60   30   92 1    
    61   31   93 1    
    62   31   94 1    
    63   31   95 1    
    64   32   33 am   BACKBONE|DICT|INTERRES
    65   32   96 1    
    66   33   34 2    
    67   33   35 1    
    68   35   36 1    
    69   35   37 1    
    70   35   97 1    
    71   36   98 1    
    72   36   99 1    
    73   36  100 1    
    74   37   38 am   BACKBONE|DICT|INTERRES
    75   37  101 1    
    76   38   39 2    
    77   38   40 1    
    78   40   41 1    
    79   40   42 1    
    80   40  102 1    
    81   41  103 1    
    82   41  104 1    
    83   41  105 1    
    84   42   43 am   BACKBONE|DICT|INTERRES
    85   42  106 1    
    86   43   44 2    
    87   43   45 1    
    88   45   46 1    
    89   45   49 1    
    90   45  107 1    
    91   46   47 1    
    92   46  108 1    
    93   46  109 1    
    94   47   48 1    
    95   48  110 1    
    96   48  111 1    
    97   49   50 am   BACKBONE|DICT|INTERRES
    98   49  112 1    
    99   50   51 2    
   100   50   52 1    
   101   52   53 1    
   102   52   54 1    
   103   52  113 1    
   104   53  114 1    
   105   53  115 1    
   106   53  116 1    
   107   54   55 am   BACKBONE|DICT|INTERRES
   108   54  117 1    
   109   55   56 2    
   110   55   57 1    
   111   57   58 1    
   112   57   59 1    
   113   57  118 1    
   114   58  119 1    
   115   58  120 1    
   116   58  121 1    
   117   59   60 am   BACKBONE|DICT|INTERRES
   118   59  122 1    
   119   60   61 2    
   120   60   62 1    
   121   62   63 1    
   122   62   64 1    
   123   62  123 1    
   124   63  124 1    
   125   63  125 1    
   126   63  126 1    
   127   64   65 am   BACKBONE|DICT|INTERRES
   128   64  127 1    
   129   65   66 2    
@<TRIPOS>SUBSTRUCTURE
     1 UNK         1 GROUP             0       ****    0 ROOT    
