@<TRIPOS>MOLECULE
3R134
127   129    1
SMALL
USER_CHARGES


@<TRIPOS>ATOM
      1 CA         34.3437  -45.2972  -48.8815 C.3       0 UNK        -0.1968 
      2 C          34.2574  -45.9401  -50.2570 C.2       0 UNK         0.4852 
      3 O          33.8156  -47.0850  -50.3707 O.2       0 UNK        -0.5359 
      4 N          34.6572  -45.2102  -51.3090 N.am      1 UNK        -0.4300 
      5 CA         34.6594  -45.6723  -52.7041 C.3       1 UNK         0.0863 
      6 C6         35.3349  -44.6640  -53.6651 C.3       11 UNK        -0.0953 
      7 S7         34.5601  -43.0097  -53.6742 S.3       11 UNK        -0.2369 
      8 C8         34.5483  -42.6163  -55.4515 C.3       11 UNK         0.0226 
      9 C9         33.4151  -43.3001  -56.2072 C.ar      11 UNK        -0.0699 
     10 C10        33.6798  -44.3499  -57.0937 C.ar      11 UNK        -0.0804 
     11 C11        32.6516  -44.9131  -57.8592 C.ar      11 UNK        -0.0871 
     12 C12        31.3509  -44.4158  -57.7282 C.ar      11 UNK        -0.1008 
     13 C13        31.0683  -43.3866  -56.8268 C.ar      11 UNK        -0.0735 
     14 C14        32.1044  -42.8339  -56.0681 C.ar      11 UNK        -0.0945 
     15 C15        29.6520  -42.8486  -56.6968 C.3       11 UNK         0.0169 
     16 S16        28.6165  -43.9288  -55.6636 S.3       11 UNK        -0.2669 
     17 C17        27.3009  -42.7563  -55.1973 C.3       11 UNK        -0.0850 
     18 CA         25.9832  -43.4455  -54.7572 C.3       10 UNK         0.0855 
     19 C          25.0040  -42.3861  -54.1676 C.2       10 UNK         0.5543 
     20 N          23.9085  -42.0458  -54.8361 N.am      10 UNK        -0.7343 
     21 O          25.2481  -41.8635  -53.0829 O.2       10 UNK        -0.5027 
     22 N          25.4230  -44.2896  -55.8284 N.am      10 UNK        -0.4495 
     23 C          24.4131  -45.1583  -55.6756 C.2       10 UNK         0.4903 
     24 O          23.8510  -45.3801  -54.6028 O.2       10 UNK        -0.4860 
     25 CA         23.9360  -45.9006  -56.9362 C.3       9 UNK         0.0227 
     26 CB         22.8417  -45.0918  -57.6524 C.3       9 UNK        -0.1964 
     27 N          25.0193  -46.1984  -57.8778 N.am      9 UNK        -0.4231 
     28 C          25.9494  -47.1414  -57.6785 C.2       9 UNK         0.5014 
     29 O          25.9908  -47.8646  -56.6803 O.2       9 UNK        -0.5270 
     30 CA         27.0148  -47.2786  -58.7759 C.3       8 UNK         0.0284 
     31 CB         28.1739  -46.3000  -58.5320 C.3       8 UNK        -0.1977 
     32 N          27.5405  -48.6431  -58.8107 N.am      8 UNK        -0.4342 
     33 C          27.0171  -49.6345  -59.5465 C.2       8 UNK         0.5039 
     34 O          26.0701  -49.4789  -60.3197 O.2       8 UNK        -0.5547 
     35 CA         27.6509  -51.0351  -59.4309 C.3       7 UNK         0.0281 
     36 CB         28.6085  -51.2875  -60.6073 C.3       7 UNK        -0.1963 
     37 N          28.3734  -51.2451  -58.1767 N.am      7 UNK        -0.4444 
     38 C          27.7990  -51.4129  -56.9782 C.2       7 UNK         0.5104 
     39 O          26.5847  -51.5368  -56.8153 O.2       7 UNK        -0.5100 
     40 CA         28.7315  -51.4459  -55.7500 C.3       6 UNK         0.0396 
     41 CB         28.8595  -52.8776  -55.2060 C.3       6 UNK        -0.1801 
     42 N          30.0780  -50.9025  -55.9729 N.am      6 UNK        -0.4747 
     43 C          30.3721  -49.6437  -56.3299 C.2       6 UNK         0.5012 
     44 O          29.5107  -48.8094  -56.6058 O.2       6 UNK        -0.5003 
     45 CA         31.8723  -49.2740  -56.3899 C.3       5 UNK         0.0782 
     46 C46        32.1304  -47.8109  -56.8291 C.3       11 UNK        -0.0868 
     47 S47        31.8994  -47.5123  -58.6105 S.3       11 UNK        -0.2515 
     48 C48        32.9549  -46.0400  -58.8450 C.3       11 UNK         0.0199 
     49 N          32.5135  -49.5167  -55.0977 N.am      5 UNK        -0.4607 
     50 C          32.9040  -50.6936  -54.5981 C.2       4 UNK         0.5031 
     51 O          32.7826  -51.7630  -55.1963 O.2       4 UNK        -0.5119 
     52 CA         33.4931  -50.6674  -53.1784 C.3       4 UNK         0.0263 
     53 CB         34.9545  -50.1906  -53.2014 C.3       4 UNK        -0.1967 
     54 N          32.7127  -49.8124  -52.2798 N.am      4 UNK        -0.4237 
     55 C          31.4970  -50.1226  -51.8049 C.2       3 UNK         0.4908 
     56 O          30.9324  -51.1970  -52.0128 O.2       3 UNK        -0.5102 
     57 CA         30.7869  -49.0525  -50.9610 C.3       3 UNK         0.0241 
     58 CB         31.2214  -49.1385  -49.4888 C.3       3 UNK        -0.1971 
     59 N          31.0319  -47.7035  -51.4778 N.am      3 UNK        -0.4139 
     60 C          30.3727  -47.1765  -52.5221 C.2       2 UNK         0.5016 
     61 O          29.4465  -47.7476  -53.0965 O.2       2 UNK        -0.5319 
     62 CA         30.8086  -45.7828  -53.0163 C.3       2 UNK         0.0286 
     63 CB         29.9053  -44.6949  -52.4132 C.3       2 UNK        -0.1963 
     64 N          32.2053  -45.4534  -52.7229 N.am      2 UNK        -0.4790 
     65 C          33.2695  -46.1069  -53.2102 C.2       1 UNK         0.5024 
     66 O          33.1875  -47.0655  -53.9730 O.2       1 UNK        -0.4888 
     67 H67        33.3553  -45.2568  -48.4244 H         1 UNK         0.0892 
     68 H68        34.9945  -45.8850  -48.2348 H         1 UNK         0.0892 
     69 H69        34.7383  -44.2825  -48.9291 H         1 UNK         0.0892 
     70 H70        34.9936  -44.2683  -51.1647 H         1 UNK         0.3107 
     71 H71        35.2726  -46.5762  -52.7168 H         1 UNK         0.0773 
     72 H72        35.3548  -45.0695  -54.6783 H         1 UNK         0.0680 
     73 H73        36.3811  -44.5371  -53.3828 H         1 UNK         0.0680 
     74 H74        34.4427  -41.5363  -55.5631 H         1 UNK         0.0650 
     75 H75        35.5168  -42.8686  -55.8861 H         1 UNK         0.0650 
     76 H76        34.6926  -44.7122  -57.2050 H         1 UNK         0.1397 
     77 H77        30.5545  -44.8377  -58.3236 H         1 UNK         0.1363 
     78 H78        31.8968  -42.0242  -55.3819 H         1 UNK         0.1355 
     79 H79        29.6744  -41.8456  -56.2672 H         1 UNK         0.0707 
     80 H80        29.1979  -42.7510  -57.6841 H         1 UNK         0.0707 
     81 H81        27.1073  -42.0805  -56.0328 H         1 UNK         0.1034 
     82 H82        27.6963  -42.1351  -54.3906 H         1 UNK         0.1034 
     83 H83        26.2268  -44.1159  -53.9305 H         1 UNK         0.0482 
     84 H84        23.2822  -41.3607  -54.4432 H         1 UNK         0.3460 
     85 H85        23.7008  -42.4694  -55.7255 H         1 UNK         0.3460 
     86 H86        25.8402  -44.1844  -56.7402 H         1 UNK         0.2989 
     87 H87        23.4958  -46.8469  -56.6140 H         1 UNK         0.0559 
     88 H88        22.0139  -44.8724  -56.9763 H         1 UNK         0.0848 
     89 H89        22.4280  -45.6444  -58.4962 H         1 UNK         0.0848 
     90 H90        23.2176  -44.1388  -58.0266 H         1 UNK         0.0848 
     91 H91        25.0517  -45.6516  -58.7267 H         1 UNK         0.3144 
     92 H92        26.5626  -47.0376  -59.7404 H         1 UNK         0.0727 
     93 H93        28.9418  -46.4009  -59.2990 H         1 UNK         0.0790 
     94 H94        28.6465  -46.4659  -57.5628 H         1 UNK         0.0790 
     95 H95        27.8289  -45.2657  -58.5514 H         1 UNK         0.0790 
     96 H96        28.2555  -48.8545  -58.1191 H         1 UNK         0.3215 
     97 H97        26.8409  -51.7660  -59.4859 H         1 UNK         0.0863 
     98 H98        29.0120  -52.3000  -60.5820 H         1 UNK         0.0808 
     99 H99        29.4468  -50.5894  -60.6032 H         1 UNK         0.0808 
    100 H100       28.0925  -51.1704  -61.5615 H         1 UNK         0.0808 
    101 H101       29.3792  -51.1682  -58.2072 H         1 UNK         0.3118 
    102 H102       28.2616  -50.8307  -54.9798 H         1 UNK         0.0546 
    103 H103       27.8789  -53.3046  -54.9909 H         1 UNK         0.0828 
    104 H104       29.4302  -52.8985  -54.2770 H         1 UNK         0.0828 
    105 H105       29.3535  -53.5374  -55.9202 H         1 UNK         0.0828 
    106 H106       30.8586  -51.5118  -55.7470 H         1 UNK         0.3005 
    107 H107       32.3383  -49.9347  -57.1245 H         1 UNK         0.1257 
    108 H108       31.5131  -47.1108  -56.2617 H         1 UNK         0.0775 
    109 H109       33.1636  -47.5445  -56.5998 H         1 UNK         0.0775 
    110 H110       33.9988  -46.3481  -58.7690 H         1 UNK         0.0840 
    111 H111       32.8188  -45.6674  -59.8610 H         1 UNK         0.0840 
    112 H112       32.6757  -48.6796  -54.5409 H         1 UNK         0.2987 
    113 H113       33.4727  -51.6873  -52.7880 H         1 UNK         0.0785 
    114 H114       35.3974  -50.2228  -52.2057 H         1 UNK         0.0798 
    115 H115       35.0440  -49.1696  -53.5746 H         1 UNK         0.0798 
    116 H116       35.5614  -50.8276  -53.8464 H         1 UNK         0.0798 
    117 H117       33.1039  -48.9093  -52.0483 H         1 UNK         0.3079 
    118 H118       29.7141  -49.2544  -51.0021 H         1 UNK         0.0794 
    119 H119       30.9806  -50.1169  -49.0710 H         1 UNK         0.0786 
    120 H120       30.7112  -48.3919  -48.8799 H         1 UNK         0.0786 
    121 H121       32.2951  -48.9920  -49.3698 H         1 UNK         0.0786 
    122 H122       31.8106  -47.1939  -51.0753 H         1 UNK         0.3032 
    123 H123       30.6859  -45.7716  -54.1024 H         1 UNK         0.1094 
    124 H124       30.1379  -43.7135  -52.8275 H         1 UNK         0.0794 
    125 H125       28.8556  -44.8947  -52.6343 H         1 UNK         0.0794 
    126 H126       30.0062  -44.6384  -51.3288 H         1 UNK         0.0794 
    127 H127       32.3719  -44.6751  -52.1016 H         1 UNK         0.3016 
@<TRIPOS>BOND
     1    1    2 1    
     2    1   67 1    
     3    1   68 1    
     4    1   69 1    
     5    2    3 2    
     6    2    4 am   BACKBONE|DICT|INTERRES
     7    4    5 1    
     8    4   70 1    
     9    5    6 1    
    10    5   65 1    
    11    5   71 1    
    12    6    7 1    
    13    6   72 1    
    14    6   73 1    
    15    7    8 1    
    16    8    9 1    
    17    8   74 1    
    18    8   75 1    
    19    9   10 ar   
    20    9   14 ar   
    21   10   11 ar   
    22   10   76 1    
    23   11   12 ar   
    24   11   48 1    
    25   12   13 ar   
    26   12   77 1    
    27   13   14 ar   
    28   13   15 1    
    29   14   78 1    
    30   15   16 1    
    31   15   79 1    
    32   15   80 1    
    33   16   17 1    
    34   17   18 1    
    35   17   81 1    
    36   17   82 1    
    37   18   19 1    
    38   18   22 1    
    39   18   83 1    
    40   19   20 am   BACKBONE|DICT|INTERRES
    41   19   21 2    
    42   20   84 1    
    43   20   85 1    
    44   22   23 am   BACKBONE|DICT|INTERRES
    45   22   86 1    
    46   23   24 2    
    47   23   25 1    
    48   25   26 1    
    49   25   27 1    
    50   25   87 1    
    51   26   88 1    
    52   26   89 1    
    53   26   90 1    
    54   27   28 am   BACKBONE|DICT|INTERRES
    55   27   91 1    
    56   28   29 2    
    57   28   30 1    
    58   30   31 1    
    59   30   32 1    
    60   30   92 1    
    61   31   93 1    
    62   31   94 1    
    63   31   95 1    
    64   32   33 am   BACKBONE|DICT|INTERRES
    65   32   96 1    
    66   33   34 2    
    67   33   35 1    
    68   35   36 1    
    69   35   37 1    
    70   35   97 1    
    71   36   98 1    
    72   36   99 1    
    73   36  100 1    
    74   37   38 am   BACKBONE|DICT|INTERRES
    75   37  101 1    
    76   38   39 2    
    77   38   40 1    
    78   40   41 1    
    79   40   42 1    
    80   40  102 1    
    81   41  103 1    
    82   41  104 1    
    83   41  105 1    
    84   42   43 am   BACKBONE|DICT|INTERRES
    85   42  106 1    
    86   43   44 2    
    87   43   45 1    
    88   45   46 1    
    89   45   49 1    
    90   45  107 1    
    91   46   47 1    
    92   46  108 1    
    93   46  109 1    
    94   47   48 1    
    95   48  110 1    
    96   48  111 1    
    97   49   50 am   BACKBONE|DICT|INTERRES
    98   49  112 1    
    99   50   51 2    
   100   50   52 1    
   101   52   53 1    
   102   52   54 1    
   103   52  113 1    
   104   53  114 1    
   105   53  115 1    
   106   53  116 1    
   107   54   55 am   BACKBONE|DICT|INTERRES
   108   54  117 1    
   109   55   56 2    
   110   55   57 1    
   111   57   58 1    
   112   57   59 1    
   113   57  118 1    
   114   58  119 1    
   115   58  120 1    
   116   58  121 1    
   117   59   60 am   BACKBONE|DICT|INTERRES
   118   59  122 1    
   119   60   61 2    
   120   60   62 1    
   121   62   63 1    
   122   62   64 1    
   123   62  123 1    
   124   63  124 1    
   125   63  125 1    
   126   63  126 1    
   127   64   65 am   BACKBONE|DICT|INTERRES
   128   64  127 1    
   129   65   66 2    
@<TRIPOS>SUBSTRUCTURE
     1 UNK         1 GROUP             0       ****    0 ROOT    
