@<TRIPOS>MOLECULE
3R134
127   129    1
SMALL
USER_CHARGES


@<TRIPOS>ATOM
      1 CA         29.0069  -44.8793  -52.9150 C.3       0 UNK        -0.1968 
      2 C          30.4680  -45.1323  -52.5810 C.2       0 UNK         0.4852 
      3 O          31.2182  -45.6320  -53.4162 O.2       0 UNK        -0.5359 
      4 N          30.8647  -44.7943  -51.3490 N.am      1 UNK        -0.4300 
      5 CA         32.2149  -44.9109  -50.7852 C.3       1 UNK         0.0863 
      6 C6         33.3085  -44.1126  -51.5466 C.3       11 UNK        -0.0953 
      7 S7         32.9377  -42.3261  -51.5810 S.3       11 UNK        -0.2369 
      8 C8         33.8409  -41.7767  -53.0634 C.3       11 UNK         0.0226 
      9 C9         33.1851  -42.2435  -54.3562 C.ar      11 UNK        -0.0699 
     10 C10        33.8047  -43.2121  -55.1523 C.ar      11 UNK        -0.0804 
     11 C11        33.2208  -43.6331  -56.3518 C.ar      11 UNK        -0.0871 
     12 C12        32.0108  -43.0578  -56.7584 C.ar      11 UNK        -0.1008 
     13 C13        31.3650  -42.1136  -55.9558 C.ar      11 UNK        -0.0735 
     14 C14        31.9634  -41.6983  -54.7630 C.ar      11 UNK        -0.0945 
     15 C15        30.0036  -41.5760  -56.3640 C.3       11 UNK         0.0169 
     16 S16        28.6818  -42.5213  -55.5430 S.3       11 UNK        -0.2669 
     17 C17        27.3146  -42.3947  -56.7459 C.3       11 UNK        -0.0850 
     18 CA         27.0743  -43.7017  -57.5525 C.3       10 UNK         0.0855 
     19 C          28.2155  -44.0237  -58.5574 C.2       10 UNK         0.5543 
     20 N          28.7816  -45.2239  -58.5631 N.am      10 UNK        -0.7343 
     21 O          28.5744  -43.1760  -59.3703 O.2       10 UNK        -0.5027 
     22 N          26.6834  -44.8407  -56.7050 N.am      10 UNK        -0.4495 
     23 C          25.4412  -45.0842  -56.2750 C.2       10 UNK         0.4903 
     24 O          24.4874  -44.3254  -56.4586 O.2       10 UNK        -0.4860 
     25 CA         25.2400  -46.4264  -55.5469 C.3       9 UNK         0.0227 
     26 CB         23.7882  -46.6599  -55.0793 C.3       9 UNK        -0.1964 
     27 N          25.7232  -47.5550  -56.3514 N.am      9 UNK        -0.4231 
     28 C          25.3040  -47.9507  -57.5638 C.2       9 UNK         0.5014 
     29 O          24.3587  -47.4443  -58.1694 O.2       9 UNK        -0.5270 
     30 CA         26.0824  -49.0995  -58.2350 C.3       8 UNK         0.0284 
     31 CB         27.0543  -48.5411  -59.2870 C.3       8 UNK        -0.1977 
     32 N          26.8310  -49.9328  -57.2896 N.am      8 UNK        -0.4342 
     33 C          26.2765  -50.8261  -56.4580 C.2       8 UNK         0.5039 
     34 O          25.0775  -51.1073  -56.4536 O.2       8 UNK        -0.5547 
     35 CA         27.2125  -51.4907  -55.4323 C.3       7 UNK         0.0281 
     36 CB         27.9966  -52.6469  -56.0724 C.3       7 UNK        -0.1963 
     37 N          28.1394  -50.5349  -54.8171 N.am      7 UNK        -0.4444 
     38 C          27.7594  -49.5061  -54.0451 C.2       7 UNK         0.5104 
     39 O          26.5943  -49.2884  -53.7150 O.2       7 UNK        -0.5100 
     40 CA         28.8507  -48.5252  -53.5979 C.3       6 UNK         0.0396 
     41 CB         29.5212  -49.0016  -52.3014 C.3       6 UNK        -0.1801 
     42 N          29.8566  -48.2950  -54.6357 N.am      6 UNK        -0.4747 
     43 C          29.6406  -47.5959  -55.7601 C.2       6 UNK         0.5012 
     44 O          28.5800  -47.0275  -56.0314 O.2       6 UNK        -0.5003 
     45 CA         30.7831  -47.5610  -56.7903 C.3       5 UNK         0.0782 
     46 C46        31.7813  -46.4312  -56.4637 C.3       11 UNK        -0.0868 
     47 S47        32.7761  -45.9534  -57.9122 S.3       11 UNK        -0.2515 
     48 C48        33.9092  -44.7162  -57.1838 C.3       11 UNK         0.0199 
     49 N          31.4287  -48.8669  -56.9301 N.am      5 UNK        -0.4607 
     50 C          30.8155  -49.9528  -57.4204 C.2       4 UNK         0.5031 
     51 O          29.6580  -49.9523  -57.8383 O.2       4 UNK        -0.5119 
     52 CA         31.6041  -51.2713  -57.4070 C.3       4 UNK         0.0263 
     53 CB         32.3902  -51.4382  -58.7167 C.3       4 UNK        -0.1967 
     54 N          32.5169  -51.3969  -56.2688 N.am      4 UNK        -0.4237 
     55 C          32.1562  -51.3924  -54.9773 C.2       3 UNK         0.4908 
     56 O          30.9886  -51.2861  -54.5956 O.2       3 UNK        -0.5102 
     57 CA         33.2846  -51.5469  -53.9369 C.3       3 UNK         0.0241 
     58 CB         34.7088  -51.4735  -54.5371 C.3       3 UNK        -0.1971 
     59 N          33.1826  -50.6119  -52.8099 N.am      3 UNK        -0.4139 
     60 C          33.0969  -49.2742  -52.8606 C.2       2 UNK         0.5016 
     61 O          32.9313  -48.6205  -53.8931 O.2       2 UNK        -0.5319 
     62 CA         33.2919  -48.5560  -51.5185 C.3       2 UNK         0.0286 
     63 CB         34.7812  -48.5968  -51.1116 C.3       2 UNK        -0.1963 
     64 N          32.8325  -47.1677  -51.5910 N.am      2 UNK        -0.4790 
     65 C          32.6273  -46.3751  -50.5312 C.2       1 UNK         0.5024 
     66 O          32.7517  -46.7605  -49.3674 O.2       1 UNK        -0.4888 
     67 H67        28.7983  -45.1415  -53.9516 H         1 UNK         0.0892 
     68 H68        28.3559  -45.4711  -52.2733 H         1 UNK         0.0892 
     69 H69        28.7622  -43.8268  -52.7784 H         1 UNK         0.0892 
     70 H70        30.1802  -44.4094  -50.7134 H         1 UNK         0.3107 
     71 H71        32.1376  -44.4578  -49.7951 H         1 UNK         0.0773 
     72 H72        34.2800  -44.2391  -51.0655 H         1 UNK         0.0680 
     73 H73        33.4226  -44.4838  -52.5655 H         1 UNK         0.0680 
     74 H74        34.8744  -42.1210  -53.0012 H         1 UNK         0.0650 
     75 H75        33.8824  -40.6867  -53.0619 H         1 UNK         0.0650 
     76 H76        34.7431  -43.6438  -54.8322 H         1 UNK         0.1397 
     77 H77        31.5445  -43.3797  -57.6797 H         1 UNK         0.1363 
     78 H78        31.4685  -40.9665  -54.1394 H         1 UNK         0.1355 
     79 H79        29.9146  -40.5212  -56.1000 H         1 UNK         0.0707 
     80 H80        29.8937  -41.6347  -57.4477 H         1 UNK         0.0707 
     81 H81        26.4090  -42.1391  -56.1941 H         1 UNK         0.1034 
     82 H82        27.4854  -41.5526  -57.4189 H         1 UNK         0.1034 
     83 H83        26.2246  -43.5036  -58.2089 H         1 UNK         0.0482 
     84 H84        29.5060  -45.4080  -59.2383 H         1 UNK         0.3460 
     85 H85        28.5118  -45.9290  -57.8963 H         1 UNK         0.3460 
     86 H86        27.4148  -45.5060  -56.4765 H         1 UNK         0.2989 
     87 H87        25.8712  -46.3941  -54.6573 H         1 UNK         0.0559 
     88 H88        23.0879  -46.6777  -55.9148 H         1 UNK         0.0848 
     89 H89        23.4655  -45.8680  -54.4025 H         1 UNK         0.0848 
     90 H90        23.6944  -47.6040  -54.5425 H         1 UNK         0.0848 
     91 H91        26.5437  -48.0164  -55.9809 H         1 UNK         0.3144 
     92 H92        25.3538  -49.7316  -58.7470 H         1 UNK         0.0727 
     93 H93        27.8366  -47.9358  -58.8296 H         1 UNK         0.0790 
     94 H94        26.5338  -47.9125  -60.0107 H         1 UNK         0.0790 
     95 H95        27.5387  -49.3438  -59.8433 H         1 UNK         0.0790 
     96 H96        27.8442  -49.8301  -57.2933 H         1 UNK         0.3215 
     97 H97        26.5916  -51.9039  -54.6345 H         1 UNK         0.0863 
     98 H98        28.6740  -53.1147  -55.3576 H         1 UNK         0.0808 
     99 H99        28.5853  -52.3126  -56.9258 H         1 UNK         0.0808 
    100 H100       27.3179  -53.4209  -56.4326 H         1 UNK         0.0808 
    101 H101       29.1337  -50.6770  -54.9734 H         1 UNK         0.3118 
    102 H102       28.3585  -47.5751  -53.3899 H         1 UNK         0.0546 
    103 H103       30.2235  -48.2583  -51.9268 H         1 UNK         0.0828 
    104 H104       30.0601  -49.9386  -52.4429 H         1 UNK         0.0828 
    105 H105       28.7804  -49.1672  -51.5181 H         1 UNK         0.0828 
    106 H106       30.7730  -48.7050  -54.4936 H         1 UNK         0.3005 
    107 H107       30.3201  -47.3365  -57.7523 H         1 UNK         0.1257 
    108 H108       31.2412  -45.5450  -56.1269 H         1 UNK         0.0775 
    109 H109       32.4428  -46.7109  -55.6426 H         1 UNK         0.0775 
    110 H110       34.6397  -45.2513  -56.5751 H         1 UNK         0.0840 
    111 H111       34.4697  -44.2377  -57.9875 H         1 UNK         0.0840 
    112 H112       32.3669  -48.9485  -56.5654 H         1 UNK         0.2987 
    113 H113       30.8829  -52.0871  -57.3378 H         1 UNK         0.0785 
    114 H114       33.1517  -50.6658  -58.8333 H         1 UNK         0.0798 
    115 H115       31.7260  -51.3733  -59.5799 H         1 UNK         0.0798 
    116 H116       32.8842  -52.4089  -58.7636 H         1 UNK         0.0798 
    117 H117       33.4988  -51.4887  -56.4853 H         1 UNK         0.3079 
    118 H118       33.1574  -52.5446  -53.5144 H         1 UNK         0.0794 
    119 H119       34.9007  -50.5120  -55.0159 H         1 UNK         0.0786 
    120 H120       34.8780  -52.2600  -55.2737 H         1 UNK         0.0786 
    121 H121       35.4646  -51.6069  -53.7627 H         1 UNK         0.0786 
    122 H122       33.2682  -51.0407  -51.8990 H         1 UNK         0.3032 
    123 H123       32.6936  -49.0782  -50.7683 H         1 UNK         0.1094 
    124 H124       34.9437  -48.1684  -50.1229 H         1 UNK         0.0794 
    125 H125       35.1585  -49.6195  -51.0761 H         1 UNK         0.0794 
    126 H126       35.4021  -48.0461  -51.8193 H         1 UNK         0.0794 
    127 H127       32.6036  -46.8201  -52.5215 H         1 UNK         0.3016 
@<TRIPOS>BOND
     1    1    2 1    
     2    1   67 1    
     3    1   68 1    
     4    1   69 1    
     5    2    3 2    
     6    2    4 am   BACKBONE|DICT|INTERRES
     7    4    5 1    
     8    4   70 1    
     9    5    6 1    
    10    5   65 1    
    11    5   71 1    
    12    6    7 1    
    13    6   72 1    
    14    6   73 1    
    15    7    8 1    
    16    8    9 1    
    17    8   74 1    
    18    8   75 1    
    19    9   10 ar   
    20    9   14 ar   
    21   10   11 ar   
    22   10   76 1    
    23   11   12 ar   
    24   11   48 1    
    25   12   13 ar   
    26   12   77 1    
    27   13   14 ar   
    28   13   15 1    
    29   14   78 1    
    30   15   16 1    
    31   15   79 1    
    32   15   80 1    
    33   16   17 1    
    34   17   18 1    
    35   17   81 1    
    36   17   82 1    
    37   18   19 1    
    38   18   22 1    
    39   18   83 1    
    40   19   20 am   BACKBONE|DICT|INTERRES
    41   19   21 2    
    42   20   84 1    
    43   20   85 1    
    44   22   23 am   BACKBONE|DICT|INTERRES
    45   22   86 1    
    46   23   24 2    
    47   23   25 1    
    48   25   26 1    
    49   25   27 1    
    50   25   87 1    
    51   26   88 1    
    52   26   89 1    
    53   26   90 1    
    54   27   28 am   BACKBONE|DICT|INTERRES
    55   27   91 1    
    56   28   29 2    
    57   28   30 1    
    58   30   31 1    
    59   30   32 1    
    60   30   92 1    
    61   31   93 1    
    62   31   94 1    
    63   31   95 1    
    64   32   33 am   BACKBONE|DICT|INTERRES
    65   32   96 1    
    66   33   34 2    
    67   33   35 1    
    68   35   36 1    
    69   35   37 1    
    70   35   97 1    
    71   36   98 1    
    72   36   99 1    
    73   36  100 1    
    74   37   38 am   BACKBONE|DICT|INTERRES
    75   37  101 1    
    76   38   39 2    
    77   38   40 1    
    78   40   41 1    
    79   40   42 1    
    80   40  102 1    
    81   41  103 1    
    82   41  104 1    
    83   41  105 1    
    84   42   43 am   BACKBONE|DICT|INTERRES
    85   42  106 1    
    86   43   44 2    
    87   43   45 1    
    88   45   46 1    
    89   45   49 1    
    90   45  107 1    
    91   46   47 1    
    92   46  108 1    
    93   46  109 1    
    94   47   48 1    
    95   48  110 1    
    96   48  111 1    
    97   49   50 am   BACKBONE|DICT|INTERRES
    98   49  112 1    
    99   50   51 2    
   100   50   52 1    
   101   52   53 1    
   102   52   54 1    
   103   52  113 1    
   104   53  114 1    
   105   53  115 1    
   106   53  116 1    
   107   54   55 am   BACKBONE|DICT|INTERRES
   108   54  117 1    
   109   55   56 2    
   110   55   57 1    
   111   57   58 1    
   112   57   59 1    
   113   57  118 1    
   114   58  119 1    
   115   58  120 1    
   116   58  121 1    
   117   59   60 am   BACKBONE|DICT|INTERRES
   118   59  122 1    
   119   60   61 2    
   120   60   62 1    
   121   62   63 1    
   122   62   64 1    
   123   62  123 1    
   124   63  124 1    
   125   63  125 1    
   126   63  126 1    
   127   64   65 am   BACKBONE|DICT|INTERRES
   128   64  127 1    
   129   65   66 2    
@<TRIPOS>SUBSTRUCTURE
     1 UNK         1 GROUP             0       ****    0 ROOT    
