@<TRIPOS>MOLECULE
3R134
127   129    1
SMALL
USER_CHARGES


@<TRIPOS>ATOM
      1 CA         32.2366  -45.4108  -49.8111 C.3       0 UNK        -0.1968 
      2 C          33.6947  -45.4074  -50.2397 C.2       0 UNK         0.4852 
      3 O          34.5341  -46.0075  -49.5666 O.2       0 UNK        -0.5359 
      4 N          33.9996  -44.7400  -51.3615 N.am      1 UNK        -0.4300 
      5 CA         35.3438  -44.6808  -51.9558 C.3       1 UNK         0.0863 
      6 C6         35.4807  -43.5428  -52.9971 C.3       11 UNK        -0.0953 
      7 S7         35.0619  -41.9115  -52.2968 S.3       11 UNK        -0.2369 
      8 C8         34.0657  -41.1701  -53.6328 C.3       11 UNK         0.0226 
      9 C9         32.7764  -41.9273  -53.9416 C.ar      11 UNK        -0.0699 
     10 C10        31.8972  -42.3014  -52.9188 C.ar      11 UNK        -0.0804 
     11 C11        30.6995  -42.9642  -53.2076 C.ar      11 UNK        -0.0871 
     12 C12        30.3662  -43.2060  -54.5451 C.ar      11 UNK        -0.1008 
     13 C13        31.2391  -42.8540  -55.5772 C.ar      11 UNK        -0.0735 
     14 C14        32.4452  -42.2190  -55.2689 C.ar      11 UNK        -0.0945 
     15 C15        30.8574  -43.1378  -57.0228 C.3       11 UNK         0.0169 
     16 S16        30.5513  -44.9110  -57.2978 S.3       11 UNK        -0.2669 
     17 C17        29.8726  -44.8919  -58.9894 C.3       11 UNK        -0.0850 
     18 CA         28.3652  -44.5274  -59.0441 C.3       10 UNK         0.0855 
     19 C          27.8719  -44.5105  -60.5162 C.2       10 UNK         0.5543 
     20 N          27.7892  -43.3395  -61.1324 N.am      10 UNK        -0.7343 
     21 O          27.6159  -45.5530  -61.1148 O.2       10 UNK        -0.5027 
     22 N          27.5529  -45.4092  -58.1939 N.am      10 UNK        -0.4495 
     23 C          26.2600  -45.2131  -57.8979 C.2       10 UNK         0.4903 
     24 O          25.6184  -44.2193  -58.2430 O.2       10 UNK        -0.4860 
     25 CA         25.5833  -46.3200  -57.0674 C.3       9 UNK         0.0227 
     26 CB         24.0476  -46.1852  -56.9837 C.3       9 UNK        -0.1964 
     27 N          25.9945  -47.6534  -57.5188 N.am      9 UNK        -0.4231 
     28 C          25.7433  -48.2255  -58.7063 C.2       9 UNK         0.5014 
     29 O          24.9590  -47.7752  -59.5420 O.2       9 UNK        -0.5270 
     30 CA         26.5190  -49.5090  -59.0381 C.3       8 UNK         0.0284 
     31 CB         27.7659  -49.1677  -59.8739 C.3       8 UNK        -0.1977 
     32 N          26.9369  -50.2428  -57.8381 N.am      8 UNK        -0.4342 
     33 C          26.4469  -51.4344  -57.4738 C.2       8 UNK         0.5039 
     34 O          25.5533  -52.0259  -58.0818 O.2       8 UNK        -0.5547 
     35 CA         27.0709  -52.1040  -56.2396 C.3       7 UNK         0.0281 
     36 CB         28.3729  -52.8300  -56.6172 C.3       7 UNK        -0.1963 
     37 N          27.3278  -51.1900  -55.1252 N.am      7 UNK        -0.4444 
     38 C          26.3752  -50.6831  -54.3299 C.2       7 UNK         0.5104 
     39 O          25.1682  -50.8245  -54.5266 O.2       7 UNK        -0.5100 
     40 CA         26.8496  -49.9178  -53.0852 C.3       6 UNK         0.0396 
     41 CB         27.3441  -50.8952  -52.0058 C.3       6 UNK        -0.1801 
     42 N          27.9183  -48.9755  -53.4122 N.am      6 UNK        -0.4747 
     43 C          27.7187  -47.6867  -53.7227 C.2       6 UNK         0.5012 
     44 O          26.6103  -47.1512  -53.7121 O.2       6 UNK        -0.5003 
     45 CA         28.9579  -46.8645  -54.1524 C.3       5 UNK         0.0782 
     46 C46        29.5979  -46.1210  -52.9484 C.3       11 UNK        -0.0868 
     47 S47        28.5768  -44.7000  -52.4071 S.3       11 UNK        -0.2515 
     48 C48        29.7885  -43.3760  -52.0506 C.3       11 UNK         0.0199 
     49 N          29.9358  -47.6819  -54.8840 N.am      5 UNK        -0.4607 
     50 C          29.6795  -48.2783  -56.0604 C.2       4 UNK         0.5031 
     51 O          28.6180  -48.1466  -56.6691 O.2       4 UNK        -0.5119 
     52 CA         30.7374  -49.2290  -56.6480 C.3       4 UNK         0.0263 
     53 CB         31.6068  -48.4878  -57.6742 C.3       4 UNK        -0.1967 
     54 N          31.6001  -49.8623  -55.6504 N.am      4 UNK        -0.4237 
     55 C          31.1961  -50.5863  -54.5958 C.2       3 UNK         0.4908 
     56 O          30.0212  -50.8868  -54.3833 O.2       3 UNK        -0.5102 
     57 CA         32.2721  -50.9922  -53.5716 C.3       3 UNK         0.0241 
     58 CB         32.6622  -52.4659  -53.7657 C.3       3 UNK        -0.1971 
     59 N          33.4817  -50.1569  -53.6027 N.am      3 UNK        -0.4139 
     60 C          33.5099  -48.8307  -53.4063 C.2       2 UNK         0.5016 
     61 O          32.5073  -48.1460  -53.1687 O.2       2 UNK        -0.5319 
     62 CA         34.8723  -48.1488  -53.5738 C.3       2 UNK         0.0286 
     63 CB         35.2715  -48.0647  -55.0598 C.3       2 UNK        -0.1963 
     64 N          34.7585  -46.8095  -53.0173 N.am      2 UNK        -0.4790 
     65 C          35.7538  -46.0281  -52.5866 C.2       1 UNK         0.5024 
     66 O          36.9452  -46.3313  -52.6638 O.2       1 UNK        -0.4888 
     67 H67        32.0713  -46.1361  -49.0146 H         1 UNK         0.0892 
     68 H68        31.9464  -44.4284  -49.4398 H         1 UNK         0.0892 
     69 H69        31.5908  -45.6814  -50.6455 H         1 UNK         0.0892 
     70 H70        33.2794  -44.2444  -51.8667 H         1 UNK         0.3107 
     71 H71        36.0533  -44.4807  -51.1496 H         1 UNK         0.0773 
     72 H72        34.8523  -43.7445  -53.8665 H         1 UNK         0.0680 
     73 H73        36.5053  -43.4881  -53.3700 H         1 UNK         0.0680 
     74 H74        34.6914  -41.0912  -54.5233 H         1 UNK         0.0650 
     75 H75        33.8077  -40.1495  -53.3476 H         1 UNK         0.0650 
     76 H76        32.1470  -42.0688  -51.8923 H         1 UNK         0.1397 
     77 H77        29.4309  -43.6840  -54.7981 H         1 UNK         0.1363 
     78 H78        33.1170  -41.9312  -56.0662 H         1 UNK         0.1355 
     79 H79        31.6372  -42.8008  -57.7075 H         1 UNK         0.0707 
     80 H80        29.9595  -42.5677  -57.2632 H         1 UNK         0.0707 
     81 H81        30.4589  -44.1958  -59.5926 H         1 UNK         0.1034 
     82 H82        30.0380  -45.8784  -59.4268 H         1 UNK         0.1034 
     83 H83        28.2521  -43.5186  -58.6428 H         1 UNK         0.0482 
     84 H84        27.4882  -43.3131  -62.0942 H         1 UNK         0.3460 
     85 H85        28.0046  -42.4796  -60.6523 H         1 UNK         0.3460 
     86 H86        28.0057  -46.2520  -57.8667 H         1 UNK         0.2989 
     87 H87        25.9727  -46.2093  -56.0562 H         1 UNK         0.0559 
     88 H88        23.7671  -45.2465  -56.5047 H         1 UNK         0.0848 
     89 H89        23.6110  -46.9919  -56.3950 H         1 UNK         0.0848 
     90 H90        23.5806  -46.1954  -57.9687 H         1 UNK         0.0848 
     91 H91        26.7289  -48.0744  -56.9594 H         1 UNK         0.3144 
     92 H92        25.8644  -50.1268  -59.6564 H         1 UNK         0.0727 
     93 H93        28.4612  -48.5284  -59.3292 H         1 UNK         0.0790 
     94 H94        27.4896  -48.6375  -60.7866 H         1 UNK         0.0790 
     95 H95        28.3019  -50.0688  -60.1721 H         1 UNK         0.0790 
     96 H96        27.6538  -49.8074  -57.2690 H         1 UNK         0.3215 
     97 H97        26.3630  -52.8593  -55.8902 H         1 UNK         0.0863 
     98 H98        28.7778  -53.3834  -55.7696 H         1 UNK         0.0808 
     99 H99        29.1414  -52.1374  -56.9595 H         1 UNK         0.0808 
    100 H100       28.2005  -53.5482  -57.4200 H         1 UNK         0.0808 
    101 H101       28.3031  -51.0507  -54.8638 H         1 UNK         0.3118 
    102 H102       25.9924  -49.3803  -52.6738 H         1 UNK         0.0546 
    103 H103       28.2107  -51.4682  -52.3378 H         1 UNK         0.0828 
    104 H104       26.5636  -51.6095  -51.7402 H         1 UNK         0.0828 
    105 H105       27.6228  -50.3675  -51.0937 H         1 UNK         0.0828 
    106 H106       28.8498  -49.3626  -53.5082 H         1 UNK         0.3005 
    107 H107       28.6035  -46.1131  -54.8623 H         1 UNK         0.1257 
    108 H108       29.7568  -46.7960  -52.1053 H         1 UNK         0.0775 
    109 H109       30.5878  -45.7559  -53.2253 H         1 UNK         0.0775 
    110 H110       29.2364  -42.4937  -51.7244 H         1 UNK         0.0840 
    111 H111       30.3903  -43.6858  -51.1976 H         1 UNK         0.0840 
    112 H112       30.8275  -47.8423  -54.4274 H         1 UNK         0.2987 
    113 H113       30.2033  -50.0249  -57.1688 H         1 UNK         0.0785 
    114 H114       30.9905  -48.0338  -58.4513 H         1 UNK         0.0798 
    115 H115       32.3026  -49.1642  -58.1709 H         1 UNK         0.0798 
    116 H116       32.1858  -47.6880  -57.2102 H         1 UNK         0.0798 
    117 H117       32.5878  -49.6756  -55.7333 H         1 UNK         0.3079 
    118 H118       31.8246  -50.8827  -52.5816 H         1 UNK         0.0794 
    119 H119       33.3459  -52.8024  -52.9861 H         1 UNK         0.0786 
    120 H120       33.1419  -52.6338  -54.7309 H         1 UNK         0.0786 
    121 H121       31.7833  -53.1114  -53.7223 H         1 UNK         0.0786 
    122 H122       34.3496  -50.6353  -53.7996 H         1 UNK         0.3032 
    123 H123       35.6201  -48.7127  -53.0114 H         1 UNK         0.1094 
    124 H124       34.5332  -47.5134  -55.6441 H         1 UNK         0.0794 
    125 H125       36.2328  -47.5660  -55.1852 H         1 UNK         0.0794 
    126 H126       35.3677  -49.0566  -55.5027 H         1 UNK         0.0794 
    127 H127       33.7990  -46.5186  -52.8704 H         1 UNK         0.3016 
@<TRIPOS>BOND
     1    1    2 1    
     2    1   67 1    
     3    1   68 1    
     4    1   69 1    
     5    2    3 2    
     6    2    4 am   BACKBONE|DICT|INTERRES
     7    4    5 1    
     8    4   70 1    
     9    5    6 1    
    10    5   65 1    
    11    5   71 1    
    12    6    7 1    
    13    6   72 1    
    14    6   73 1    
    15    7    8 1    
    16    8    9 1    
    17    8   74 1    
    18    8   75 1    
    19    9   10 ar   
    20    9   14 ar   
    21   10   11 ar   
    22   10   76 1    
    23   11   12 ar   
    24   11   48 1    
    25   12   13 ar   
    26   12   77 1    
    27   13   14 ar   
    28   13   15 1    
    29   14   78 1    
    30   15   16 1    
    31   15   79 1    
    32   15   80 1    
    33   16   17 1    
    34   17   18 1    
    35   17   81 1    
    36   17   82 1    
    37   18   19 1    
    38   18   22 1    
    39   18   83 1    
    40   19   20 am   BACKBONE|DICT|INTERRES
    41   19   21 2    
    42   20   84 1    
    43   20   85 1    
    44   22   23 am   BACKBONE|DICT|INTERRES
    45   22   86 1    
    46   23   24 2    
    47   23   25 1    
    48   25   26 1    
    49   25   27 1    
    50   25   87 1    
    51   26   88 1    
    52   26   89 1    
    53   26   90 1    
    54   27   28 am   BACKBONE|DICT|INTERRES
    55   27   91 1    
    56   28   29 2    
    57   28   30 1    
    58   30   31 1    
    59   30   32 1    
    60   30   92 1    
    61   31   93 1    
    62   31   94 1    
    63   31   95 1    
    64   32   33 am   BACKBONE|DICT|INTERRES
    65   32   96 1    
    66   33   34 2    
    67   33   35 1    
    68   35   36 1    
    69   35   37 1    
    70   35   97 1    
    71   36   98 1    
    72   36   99 1    
    73   36  100 1    
    74   37   38 am   BACKBONE|DICT|INTERRES
    75   37  101 1    
    76   38   39 2    
    77   38   40 1    
    78   40   41 1    
    79   40   42 1    
    80   40  102 1    
    81   41  103 1    
    82   41  104 1    
    83   41  105 1    
    84   42   43 am   BACKBONE|DICT|INTERRES
    85   42  106 1    
    86   43   44 2    
    87   43   45 1    
    88   45   46 1    
    89   45   49 1    
    90   45  107 1    
    91   46   47 1    
    92   46  108 1    
    93   46  109 1    
    94   47   48 1    
    95   48  110 1    
    96   48  111 1    
    97   49   50 am   BACKBONE|DICT|INTERRES
    98   49  112 1    
    99   50   51 2    
   100   50   52 1    
   101   52   53 1    
   102   52   54 1    
   103   52  113 1    
   104   53  114 1    
   105   53  115 1    
   106   53  116 1    
   107   54   55 am   BACKBONE|DICT|INTERRES
   108   54  117 1    
   109   55   56 2    
   110   55   57 1    
   111   57   58 1    
   112   57   59 1    
   113   57  118 1    
   114   58  119 1    
   115   58  120 1    
   116   58  121 1    
   117   59   60 am   BACKBONE|DICT|INTERRES
   118   59  122 1    
   119   60   61 2    
   120   60   62 1    
   121   62   63 1    
   122   62   64 1    
   123   62  123 1    
   124   63  124 1    
   125   63  125 1    
   126   63  126 1    
   127   64   65 am   BACKBONE|DICT|INTERRES
   128   64  127 1    
   129   65   66 2    
@<TRIPOS>SUBSTRUCTURE
     1 UNK         1 GROUP             0       ****    0 ROOT    
