@<TRIPOS>MOLECULE
3R134
127   129    1
SMALL
USER_CHARGES


@<TRIPOS>ATOM
      1 CA         38.0646  -43.8000  -52.8336 C.3       0 UNK        -0.1968 
      2 C          37.4612  -45.1287  -53.2634 C.2       0 UNK         0.4852 
      3 O          37.9035  -46.1815  -52.8022 O.2       0 UNK        -0.5359 
      4 N          36.4378  -45.0930  -54.1260 N.am      1 UNK        -0.4300 
      5 CA         35.7268  -46.2475  -54.6946 C.3       1 UNK         0.0863 
      6 C6         35.0690  -45.8824  -56.0558 C.3       11 UNK        -0.0953 
      7 S7         33.9283  -44.4536  -55.9724 S.3       11 UNK        -0.2369 
      8 C8         32.3049  -45.2473  -56.2014 C.3       11 UNK         0.0226 
      9 C9         31.2464  -44.5937  -55.3287 C.ar      11 UNK        -0.0699 
     10 C10        31.2540  -44.8097  -53.9472 C.ar      11 UNK        -0.0804 
     11 C11        30.2668  -44.2448  -53.1352 C.ar      11 UNK        -0.0871 
     12 C12        29.2748  -43.4481  -53.7129 C.ar      11 UNK        -0.1008 
     13 C13        29.2556  -43.2275  -55.0926 C.ar      11 UNK        -0.0735 
     14 C14        30.2463  -43.7990  -55.8970 C.ar      11 UNK        -0.0945 
     15 C15        28.1480  -42.3916  -55.7112 C.3       11 UNK         0.0169 
     16 S16        26.6434  -43.3892  -55.9206 S.3       11 UNK        -0.2669 
     17 C17        25.5357  -42.2082  -56.7685 C.3       11 UNK        -0.0850 
     18 CA         25.4217  -42.4532  -58.2972 C.3       10 UNK         0.0855 
     19 C          26.6642  -41.9109  -59.0659 C.2       10 UNK         0.5543 
     20 N          27.4336  -42.7382  -59.7631 N.am      10 UNK        -0.7343 
     21 O          26.9289  -40.7118  -59.0311 O.2       10 UNK        -0.5027 
     22 N          25.0595  -43.8500  -58.5861 N.am      10 UNK        -0.4495 
     23 C          24.5561  -44.3079  -59.7368 C.2       10 UNK         0.4903 
     24 O          24.2524  -43.5835  -60.6859 O.2       10 UNK        -0.4860 
     25 CA         24.4080  -45.8374  -59.8466 C.3       9 UNK         0.0227 
     26 CB         23.9169  -46.2889  -61.2353 C.3       9 UNK        -0.1964 
     27 N          25.6799  -46.5043  -59.5499 N.am      9 UNK        -0.4231 
     28 C          26.0994  -46.8625  -58.3296 C.2       9 UNK         0.5014 
     29 O          25.4434  -46.6870  -57.3008 O.2       9 UNK        -0.5270 
     30 CA         27.5135  -47.4617  -58.2430 C.3       8 UNK         0.0284 
     31 CB         28.4823  -46.4605  -57.5887 C.3       8 UNK        -0.1977 
     32 N          27.5539  -48.7214  -57.4991 N.am      8 UNK        -0.4342 
     33 C          26.8953  -49.8430  -57.8225 C.2       8 UNK         0.5039 
     34 O          26.1493  -49.9444  -58.7978 O.2       8 UNK        -0.5547 
     35 CA         27.1279  -51.0764  -56.9364 C.3       7 UNK         0.0281 
     36 CB         28.3460  -51.8685  -57.4423 C.3       7 UNK        -0.1963 
     37 N          27.3380  -50.7285  -55.5288 N.am      7 UNK        -0.4444 
     38 C          26.4127  -50.8445  -54.5663 C.2       7 UNK         0.5104 
     39 O          25.2541  -51.2068  -54.7745 O.2       7 UNK        -0.5100 
     40 CA         26.8460  -50.5503  -53.1154 C.3       6 UNK         0.0396 
     41 CB         27.0271  -51.8651  -52.3393 C.3       6 UNK        -0.1801 
     42 N          28.0826  -49.7713  -53.0154 N.am      6 UNK        -0.4747 
     43 C          28.1598  -48.4453  -53.1980 C.2       6 UNK         0.5012 
     44 O          27.1809  -47.7356  -53.4282 O.2       6 UNK        -0.5003 
     45 CA         29.5732  -47.8190  -53.1690 C.3       5 UNK         0.0782 
     46 C46        29.9668  -47.3215  -51.7551 C.3       11 UNK        -0.0868 
     47 S47        29.0745  -45.8274  -51.2086 S.3       11 UNK        -0.2515 
     48 C48        30.2531  -44.5063  -51.6375 C.3       11 UNK         0.0199 
     49 N          30.6169  -48.7050  -53.7073 N.am      5 UNK        -0.4607 
     50 C          30.6355  -49.2237  -54.9435 C.2       4 UNK         0.5031 
     51 O          29.7258  -49.0525  -55.7527 O.2       4 UNK        -0.5119 
     52 CA         31.8316  -50.0975  -55.3563 C.3       4 UNK         0.0263 
     53 CB         32.4783  -49.5627  -56.6455 C.3       4 UNK        -0.1967 
     54 N          32.8536  -50.1778  -54.3114 N.am      4 UNK        -0.4237 
     55 C          33.0501  -51.2286  -53.5022 C.2       3 UNK         0.4908 
     56 O          32.3823  -52.2620  -53.5515 O.2       3 UNK        -0.5102 
     57 CA         34.1798  -51.1239  -52.4579 C.3       3 UNK         0.0241 
     58 CB         35.4330  -51.8656  -52.9510 C.3       3 UNK        -0.1971 
     59 N          34.5451  -49.7477  -52.1103 N.am      3 UNK        -0.4139 
     60 C          33.7537  -48.8903  -51.4518 C.2       2 UNK         0.5016 
     61 O          32.6370  -49.1822  -51.0250 O.2       2 UNK        -0.5319 
     62 CA         34.2681  -47.4477  -51.2951 C.3       2 UNK         0.0286 
     63 CB         35.0424  -47.2919  -49.9774 C.3       2 UNK        -0.1963 
     64 N          35.1006  -46.9654  -52.4060 N.am      2 UNK        -0.4790 
     65 C          34.7498  -46.9263  -53.6999 C.2       1 UNK         0.5024 
     66 O          33.6992  -47.4179  -54.1112 O.2       1 UNK        -0.4888 
     67 H67        39.1215  -43.7662  -53.0967 H         1 UNK         0.0892 
     68 H68        37.5694  -42.9541  -53.3102 H         1 UNK         0.0892 
     69 H69        37.9777  -43.6799  -51.7541 H         1 UNK         0.0892 
     70 H70        36.0901  -44.1970  -54.4392 H         1 UNK         0.3107 
     71 H71        36.4774  -47.0105  -54.9113 H         1 UNK         0.0773 
     72 H72        34.5686  -46.7455  -56.4972 H         1 UNK         0.0680 
     73 H73        35.8536  -45.6212  -56.7675 H         1 UNK         0.0680 
     74 H74        32.0306  -45.1943  -57.2560 H         1 UNK         0.0650 
     75 H75        32.3475  -46.3067  -55.9543 H         1 UNK         0.0650 
     76 H76        32.0217  -45.4328  -53.5099 H         1 UNK         0.1397 
     77 H77        28.5004  -43.0192  -53.0912 H         1 UNK         0.1363 
     78 H78        30.2287  -43.6376  -56.9662 H         1 UNK         0.1355 
     79 H79        27.9315  -41.5310  -55.0763 H         1 UNK         0.0707 
     80 H80        28.4661  -41.9960  -56.6767 H         1 UNK         0.0707 
     81 H81        25.8398  -41.1821  -56.5520 H         1 UNK         0.1034 
     82 H82        24.5472  -42.3121  -56.3187 H         1 UNK         0.1034 
     83 H83        24.5886  -41.8414  -58.6484 H         1 UNK         0.0482 
     84 H84        27.2157  -43.7191  -59.8066 H         1 UNK         0.3460 
     85 H85        28.2296  -42.3718  -60.2605 H         1 UNK         0.3460 
     86 H86        25.2898  -44.5206  -57.8620 H         1 UNK         0.2989 
     87 H87        23.6567  -46.1435  -59.1155 H         1 UNK         0.0559 
     88 H88        24.6103  -45.9990  -62.0258 H         1 UNK         0.0848 
     89 H89        22.9491  -45.8440  -61.4712 H         1 UNK         0.0848 
     90 H90        23.7917  -47.3710  -61.2787 H         1 UNK         0.0848 
     91 H91        26.2915  -46.6675  -60.3375 H         1 UNK         0.3144 
     92 H92        27.8710  -47.6719  -59.2530 H         1 UNK         0.0727 
     93 H93        28.2075  -46.2541  -56.5527 H         1 UNK         0.0790 
     94 H94        28.4835  -45.5072  -58.1188 H         1 UNK         0.0790 
     95 H95        29.5063  -46.8351  -57.5916 H         1 UNK         0.0790 
     96 H96        28.2063  -48.7565  -56.7191 H         1 UNK         0.3215 
     97 H97        26.2502  -51.7193  -57.0343 H         1 UNK         0.0863 
     98 H98        29.2638  -51.2815  -57.3898 H         1 UNK         0.0808 
     99 H99        28.2107  -52.1681  -58.4825 H         1 UNK         0.0808 
    100 H100       28.4961  -52.7784  -56.8610 H         1 UNK         0.0808 
    101 H101       28.2446  -50.3456  -55.2886 H         1 UNK         0.3118 
    102 H102       26.0389  -49.9879  -52.6407 H         1 UNK         0.0546 
    103 H103       27.2652  -51.6791  -51.2919 H         1 UNK         0.0828 
    104 H104       27.8235  -52.4787  -52.7624 H         1 UNK         0.0828 
    105 H105       26.1129  -52.4600  -52.3598 H         1 UNK         0.0828 
    106 H106       28.9347  -50.2823  -52.8326 H         1 UNK         0.3005 
    107 H107       29.5306  -46.9592  -53.8404 H         1 UNK         0.1257 
    108 H108       31.0324  -47.0951  -51.7270 H         1 UNK         0.0775 
    109 H109       29.8194  -48.1087  -51.0131 H         1 UNK         0.0775 
    110 H110       29.9638  -43.5944  -51.1128 H         1 UNK         0.0840 
    111 H111       31.2506  -44.7588  -51.2743 H         1 UNK         0.0840 
    112 H112       31.3908  -48.9088  -53.0900 H         1 UNK         0.2987 
    113 H113       31.4334  -51.0911  -55.5717 H         1 UNK         0.0785 
    114 H114       33.2906  -50.2095  -56.9771 H         1 UNK         0.0798 
    115 H115       31.7537  -49.5128  -57.4596 H         1 UNK         0.0798 
    116 H116       32.8842  -48.5612  -56.5083 H         1 UNK         0.0798 
    117 H117       33.4044  -49.3345  -54.1763 H         1 UNK         0.3079 
    118 H118       33.8264  -51.6156  -51.5489 H         1 UNK         0.0794 
    119 H119       36.2141  -51.8756  -52.1905 H         1 UNK         0.0786 
    120 H120       35.8450  -51.4086  -53.8517 H         1 UNK         0.0786 
    121 H121       35.2032  -52.9053  -53.1893 H         1 UNK         0.0786 
    122 H122       35.4445  -49.4157  -52.4279 H         1 UNK         0.3032 
    123 H123       33.3902  -46.8004  -51.2499 H         1 UNK         0.1094 
    124 H124       34.4406  -47.6209  -49.1287 H         1 UNK         0.0794 
    125 H125       35.9598  -47.8818  -49.9759 H         1 UNK         0.0794 
    126 H126       35.3120  -46.2513  -49.7959 H         1 UNK         0.0794 
    127 H127       36.0206  -46.6064  -52.1722 H         1 UNK         0.3016 
@<TRIPOS>BOND
     1    1    2 1    
     2    1   67 1    
     3    1   68 1    
     4    1   69 1    
     5    2    3 2    
     6    2    4 am   BACKBONE|DICT|INTERRES
     7    4    5 1    
     8    4   70 1    
     9    5    6 1    
    10    5   65 1    
    11    5   71 1    
    12    6    7 1    
    13    6   72 1    
    14    6   73 1    
    15    7    8 1    
    16    8    9 1    
    17    8   74 1    
    18    8   75 1    
    19    9   10 ar   
    20    9   14 ar   
    21   10   11 ar   
    22   10   76 1    
    23   11   12 ar   
    24   11   48 1    
    25   12   13 ar   
    26   12   77 1    
    27   13   14 ar   
    28   13   15 1    
    29   14   78 1    
    30   15   16 1    
    31   15   79 1    
    32   15   80 1    
    33   16   17 1    
    34   17   18 1    
    35   17   81 1    
    36   17   82 1    
    37   18   19 1    
    38   18   22 1    
    39   18   83 1    
    40   19   20 am   BACKBONE|DICT|INTERRES
    41   19   21 2    
    42   20   84 1    
    43   20   85 1    
    44   22   23 am   BACKBONE|DICT|INTERRES
    45   22   86 1    
    46   23   24 2    
    47   23   25 1    
    48   25   26 1    
    49   25   27 1    
    50   25   87 1    
    51   26   88 1    
    52   26   89 1    
    53   26   90 1    
    54   27   28 am   BACKBONE|DICT|INTERRES
    55   27   91 1    
    56   28   29 2    
    57   28   30 1    
    58   30   31 1    
    59   30   32 1    
    60   30   92 1    
    61   31   93 1    
    62   31   94 1    
    63   31   95 1    
    64   32   33 am   BACKBONE|DICT|INTERRES
    65   32   96 1    
    66   33   34 2    
    67   33   35 1    
    68   35   36 1    
    69   35   37 1    
    70   35   97 1    
    71   36   98 1    
    72   36   99 1    
    73   36  100 1    
    74   37   38 am   BACKBONE|DICT|INTERRES
    75   37  101 1    
    76   38   39 2    
    77   38   40 1    
    78   40   41 1    
    79   40   42 1    
    80   40  102 1    
    81   41  103 1    
    82   41  104 1    
    83   41  105 1    
    84   42   43 am   BACKBONE|DICT|INTERRES
    85   42  106 1    
    86   43   44 2    
    87   43   45 1    
    88   45   46 1    
    89   45   49 1    
    90   45  107 1    
    91   46   47 1    
    92   46  108 1    
    93   46  109 1    
    94   47   48 1    
    95   48  110 1    
    96   48  111 1    
    97   49   50 am   BACKBONE|DICT|INTERRES
    98   49  112 1    
    99   50   51 2    
   100   50   52 1    
   101   52   53 1    
   102   52   54 1    
   103   52  113 1    
   104   53  114 1    
   105   53  115 1    
   106   53  116 1    
   107   54   55 am   BACKBONE|DICT|INTERRES
   108   54  117 1    
   109   55   56 2    
   110   55   57 1    
   111   57   58 1    
   112   57   59 1    
   113   57  118 1    
   114   58  119 1    
   115   58  120 1    
   116   58  121 1    
   117   59   60 am   BACKBONE|DICT|INTERRES
   118   59  122 1    
   119   60   61 2    
   120   60   62 1    
   121   62   63 1    
   122   62   64 1    
   123   62  123 1    
   124   63  124 1    
   125   63  125 1    
   126   63  126 1    
   127   64   65 am   BACKBONE|DICT|INTERRES
   128   64  127 1    
   129   65   66 2    
@<TRIPOS>SUBSTRUCTURE
     1 UNK         1 GROUP             0       ****    0 ROOT    
