@<TRIPOS>MOLECULE
3R134
127   129    1
SMALL
USER_CHARGES


@<TRIPOS>ATOM
      1 CA         36.5688  -46.2333  -51.5034 C.3       0 UNK        -0.1968 
      2 C          36.7197  -46.1598  -53.0157 C.2       0 UNK         0.4852 
      3 O          37.7141  -46.6464  -53.5561 O.2       0 UNK        -0.5359 
      4 N          35.7409  -45.5543  -53.7012 N.am      1 UNK        -0.4300 
      5 CA         35.6886  -45.4330  -55.1642 C.3       1 UNK         0.0863 
      6 C6         34.7111  -44.3114  -55.6020 C.3       11 UNK        -0.0953 
      7 S7         32.9696  -44.6296  -55.1457 S.3       11 UNK        -0.2369 
      8 C8         32.5559  -43.1828  -54.1301 C.3       11 UNK         0.0226 
      9 C9         31.0761  -43.1875  -53.7773 C.ar      11 UNK        -0.0699 
     10 C10        30.6492  -43.5043  -52.4843 C.ar      11 UNK        -0.0804 
     11 C11        29.2867  -43.5019  -52.1707 C.ar      11 UNK        -0.0871 
     12 C12        28.3533  -43.1861  -53.1618 C.ar      11 UNK        -0.1008 
     13 C13        28.7606  -42.8714  -54.4609 C.ar      11 UNK        -0.0735 
     14 C14        30.1304  -42.8719  -54.7573 C.ar      11 UNK        -0.0945 
     15 C15        27.6769  -42.5443  -55.4895 C.3       11 UNK         0.0169 
     16 S16        28.2691  -41.9996  -57.1291 S.3       11 UNK        -0.2669 
     17 C17        26.6801  -41.6821  -57.9742 C.3       11 UNK        -0.0850 
     18 CA         26.2909  -42.7722  -59.0065 C.3       10 UNK         0.0855 
     19 C          27.1327  -42.6816  -60.3149 C.2       10 UNK         0.5543 
     20 N          27.8657  -43.7124  -60.7190 N.am      10 UNK        -0.7343 
     21 O          27.1038  -41.6543  -60.9885 O.2       10 UNK        -0.5027 
     22 N          26.2455  -44.1063  -58.3900 N.am      10 UNK        -0.4495 
     23 C          25.5074  -45.1295  -58.8334 C.2       10 UNK         0.4903 
     24 O          24.6882  -45.0286  -59.7485 O.2       10 UNK        -0.4860 
     25 CA         25.7149  -46.4920  -58.1381 C.3       9 UNK         0.0227 
     26 CB         25.3407  -47.6716  -59.0601 C.3       9 UNK        -0.1964 
     27 N          27.0572  -46.7054  -57.5756 N.am      9 UNK        -0.4231 
     28 C          28.2314  -46.6550  -58.2268 C.2       9 UNK         0.5014 
     29 O          28.3654  -46.2599  -59.3856 O.2       9 UNK        -0.5270 
     30 CA         29.4615  -47.1662  -57.4577 C.3       8 UNK         0.0284 
     31 CB         29.9260  -46.1339  -56.4179 C.3       8 UNK        -0.1977 
     32 N          29.2050  -48.4548  -56.8070 N.am      8 UNK        -0.4342 
     33 C          28.9247  -49.5983  -57.4537 C.2       8 UNK         0.5039 
     34 O          28.9673  -49.7262  -58.6776 O.2       8 UNK        -0.5547 
     35 CA         28.4968  -50.7983  -56.5938 C.3       7 UNK         0.0281 
     36 CB         29.7192  -51.5992  -56.1122 C.3       7 UNK        -0.1963 
     37 N          27.6870  -50.3654  -55.4515 N.am      7 UNK        -0.4444 
     38 C          26.3703  -50.1146  -55.5185 C.2       7 UNK         0.5104 
     39 O          25.6849  -50.3350  -56.5163 O.2       7 UNK        -0.5100 
     40 CA         25.6899  -49.5174  -54.2713 C.3       6 UNK         0.0396 
     41 CB         24.9807  -50.6216  -53.4714 C.3       6 UNK        -0.1801 
     42 N          26.6089  -48.8001  -53.3848 N.am      6 UNK        -0.4747 
     43 C          27.1955  -47.6257  -53.6637 C.2       6 UNK         0.5012 
     44 O          26.9804  -46.9842  -54.6927 O.2       6 UNK        -0.5003 
     45 CA         28.2574  -47.1352  -52.6534 C.3       5 UNK         0.0782 
     46 C46        27.6089  -46.2652  -51.5498 C.3       11 UNK        -0.0868 
     47 S47        28.8544  -45.5975  -50.3918 S.3       11 UNK        -0.2515 
     48 C48        28.8197  -43.8144  -50.7561 C.3       11 UNK         0.0199 
     49 N          29.0211  -48.2555  -52.0823 N.am      5 UNK        -0.4607 
     50 C          29.7769  -49.1008  -52.7896 C.2       4 UNK         0.5031 
     51 O          29.9454  -49.0072  -54.0086 O.2       4 UNK        -0.5119 
     52 CA         30.3589  -50.2967  -52.0314 C.3       4 UNK         0.0263 
     53 CB         29.2685  -51.3591  -51.7852 C.3       4 UNK        -0.1967 
     54 N          31.4366  -50.8580  -52.8357 N.am      4 UNK        -0.4237 
     55 C          32.3814  -51.7093  -52.4211 C.2       3 UNK         0.4908 
     56 O          32.4344  -52.1736  -51.2814 O.2       3 UNK        -0.5102 
     57 CA         33.4587  -52.1149  -53.4476 C.3       3 UNK         0.0241 
     58 CB         33.1044  -53.4708  -54.0808 C.3       3 UNK        -0.1971 
     59 N          33.6835  -51.1317  -54.5157 N.am      3 UNK        -0.4139 
     60 C          34.1239  -49.8805  -54.3246 C.2       2 UNK         0.5016 
     61 O          34.4024  -49.4141  -53.2150 O.2       2 UNK        -0.5319 
     62 CA         34.2492  -48.9978  -55.5753 C.3       2 UNK         0.0286 
     63 CB         32.9015  -48.8553  -56.3133 C.3       2 UNK        -0.1963 
     64 N          34.7078  -47.6838  -55.1437 N.am      2 UNK        -0.4790 
     65 C          35.3645  -46.7726  -55.8685 C.2       1 UNK         0.5024 
     66 O          35.6986  -46.9436  -57.0420 O.2       1 UNK        -0.4888 
     67 H67        37.4298  -45.7760  -51.0168 H         1 UNK         0.0892 
     68 H68        35.6718  -45.7203  -51.1569 H         1 UNK         0.0892 
     69 H69        36.5084  -47.2737  -51.1847 H         1 UNK         0.0892 
     70 H70        34.9457  -45.1743  -53.2081 H         1 UNK         0.3107 
     71 H71        36.6855  -45.1423  -55.5028 H         1 UNK         0.0773 
     72 H72        35.0314  -43.3601  -55.1743 H         1 UNK         0.0680 
     73 H73        34.7564  -44.1737  -56.6839 H         1 UNK         0.0680 
     74 H74        32.7958  -42.2711  -54.6793 H         1 UNK         0.0650 
     75 H75        33.1726  -43.1806  -53.2302 H         1 UNK         0.0650 
     76 H76        31.3742  -43.7509  -51.7206 H         1 UNK         0.1397 
     77 H77        27.2988  -43.1807  -52.9206 H         1 UNK         0.1363 
     78 H78        30.4814  -42.6389  -55.7520 H         1 UNK         0.1355 
     79 H79        27.0472  -43.4258  -55.6183 H         1 UNK         0.0707 
     80 H80        27.0383  -41.7603  -55.0794 H         1 UNK         0.0707 
     81 H81        25.8864  -41.5913  -57.2312 H         1 UNK         0.1034 
     82 H82        26.7321  -40.7012  -58.4509 H         1 UNK         0.1034 
     83 H83        25.2724  -42.5351  -59.3206 H         1 UNK         0.0482 
     84 H84        28.3955  -43.6326  -61.5717 H         1 UNK         0.3460 
     85 H85        27.9122  -44.5718  -60.1785 H         1 UNK         0.3460 
     86 H86        26.9247  -44.2783  -57.6642 H         1 UNK         0.2989 
     87 H87        25.0303  -46.5053  -57.2890 H         1 UNK         0.0559 
     88 H88        24.2960  -47.6175  -59.3685 H         1 UNK         0.0848 
     89 H89        25.4775  -48.6286  -58.5581 H         1 UNK         0.0848 
     90 H90        25.9489  -47.6818  -59.9654 H         1 UNK         0.0848 
     91 H91        27.0762  -46.9619  -56.5902 H         1 UNK         0.3144 
     92 H92        30.2716  -47.3151  -58.1747 H         1 UNK         0.0727 
     93 H93        29.1410  -45.8752  -55.7081 H         1 UNK         0.0790 
     94 H94        30.2362  -45.2078  -56.9035 H         1 UNK         0.0790 
     95 H95        30.7779  -46.5012  -55.8473 H         1 UNK         0.0790 
     96 H96        29.2342  -48.4728  -55.7929 H         1 UNK         0.3215 
     97 H97        27.8946  -51.4606  -57.2203 H         1 UNK         0.0863 
     98 H98        29.4276  -52.4167  -55.4527 H         1 UNK         0.0808 
     99 H99        30.4367  -50.9765  -55.5815 H         1 UNK         0.0808 
    100 H100       30.2461  -52.0392  -56.9598 H         1 UNK         0.0808 
    101 H101       28.1884  -50.1142  -54.6108 H         1 UNK         0.3118 
    102 H102       24.9345  -48.8092  -54.6190 H         1 UNK         0.0546 
    103 H103       25.6860  -51.3574  -53.0828 H         1 UNK         0.0828 
    104 H104       24.2641  -51.1567  -54.0963 H         1 UNK         0.0828 
    105 H105       24.4258  -50.2085  -52.6289 H         1 UNK         0.0828 
    106 H106       26.8432  -49.2527  -52.5132 H         1 UNK         0.3005 
    107 H107       28.9591  -46.5099  -53.2114 H         1 UNK         0.1257 
    108 H108       26.8923  -46.8510  -50.9710 H         1 UNK         0.0775 
    109 H109       27.0383  -45.4451  -51.9880 H         1 UNK         0.0775 
    110 H110       27.8124  -43.4309  -50.5853 H         1 UNK         0.0840 
    111 H111       29.4626  -43.2979  -50.0417 H         1 UNK         0.0840 
    112 H112       28.9414  -48.3803  -51.0832 H         1 UNK         0.2987 
    113 H113       30.7670  -49.9465  -51.0809 H         1 UNK         0.0785 
    114 H114       28.4427  -50.9531  -51.2001 H         1 UNK         0.0798 
    115 H115       29.6600  -52.2112  -51.2295 H         1 UNK         0.0798 
    116 H116       28.8546  -51.7369  -52.7210 H         1 UNK         0.0798 
    117 H117       31.4830  -50.4789  -53.7725 H         1 UNK         0.3079 
    118 H118       34.3975  -52.2265  -52.9010 H         1 UNK         0.0794 
    119 H119       33.8999  -53.8239  -54.7373 H         1 UNK         0.0786 
    120 H120       32.1843  -53.4161  -54.6643 H         1 UNK         0.0786 
    121 H121       32.9585  -54.2335  -53.3144 H         1 UNK         0.0786 
    122 H122       33.4920  -51.4408  -55.4578 H         1 UNK         0.3032 
    123 H123       34.9955  -49.4424  -56.2375 H         1 UNK         0.1094 
    124 H124       32.1176  -48.4956  -55.6462 H         1 UNK         0.0794 
    125 H125       32.9732  -48.1540  -57.1449 H         1 UNK         0.0794 
    126 H126       32.5673  -49.8059  -56.7293 H         1 UNK         0.0794 
    127 H127       34.5463  -47.5015  -54.1607 H         1 UNK         0.3016 
@<TRIPOS>BOND
     1    1    2 1    
     2    1   67 1    
     3    1   68 1    
     4    1   69 1    
     5    2    3 2    
     6    2    4 am   BACKBONE|DICT|INTERRES
     7    4    5 1    
     8    4   70 1    
     9    5    6 1    
    10    5   65 1    
    11    5   71 1    
    12    6    7 1    
    13    6   72 1    
    14    6   73 1    
    15    7    8 1    
    16    8    9 1    
    17    8   74 1    
    18    8   75 1    
    19    9   10 ar   
    20    9   14 ar   
    21   10   11 ar   
    22   10   76 1    
    23   11   12 ar   
    24   11   48 1    
    25   12   13 ar   
    26   12   77 1    
    27   13   14 ar   
    28   13   15 1    
    29   14   78 1    
    30   15   16 1    
    31   15   79 1    
    32   15   80 1    
    33   16   17 1    
    34   17   18 1    
    35   17   81 1    
    36   17   82 1    
    37   18   19 1    
    38   18   22 1    
    39   18   83 1    
    40   19   20 am   BACKBONE|DICT|INTERRES
    41   19   21 2    
    42   20   84 1    
    43   20   85 1    
    44   22   23 am   BACKBONE|DICT|INTERRES
    45   22   86 1    
    46   23   24 2    
    47   23   25 1    
    48   25   26 1    
    49   25   27 1    
    50   25   87 1    
    51   26   88 1    
    52   26   89 1    
    53   26   90 1    
    54   27   28 am   BACKBONE|DICT|INTERRES
    55   27   91 1    
    56   28   29 2    
    57   28   30 1    
    58   30   31 1    
    59   30   32 1    
    60   30   92 1    
    61   31   93 1    
    62   31   94 1    
    63   31   95 1    
    64   32   33 am   BACKBONE|DICT|INTERRES
    65   32   96 1    
    66   33   34 2    
    67   33   35 1    
    68   35   36 1    
    69   35   37 1    
    70   35   97 1    
    71   36   98 1    
    72   36   99 1    
    73   36  100 1    
    74   37   38 am   BACKBONE|DICT|INTERRES
    75   37  101 1    
    76   38   39 2    
    77   38   40 1    
    78   40   41 1    
    79   40   42 1    
    80   40  102 1    
    81   41  103 1    
    82   41  104 1    
    83   41  105 1    
    84   42   43 am   BACKBONE|DICT|INTERRES
    85   42  106 1    
    86   43   44 2    
    87   43   45 1    
    88   45   46 1    
    89   45   49 1    
    90   45  107 1    
    91   46   47 1    
    92   46  108 1    
    93   46  109 1    
    94   47   48 1    
    95   48  110 1    
    96   48  111 1    
    97   49   50 am   BACKBONE|DICT|INTERRES
    98   49  112 1    
    99   50   51 2    
   100   50   52 1    
   101   52   53 1    
   102   52   54 1    
   103   52  113 1    
   104   53  114 1    
   105   53  115 1    
   106   53  116 1    
   107   54   55 am   BACKBONE|DICT|INTERRES
   108   54  117 1    
   109   55   56 2    
   110   55   57 1    
   111   57   58 1    
   112   57   59 1    
   113   57  118 1    
   114   58  119 1    
   115   58  120 1    
   116   58  121 1    
   117   59   60 am   BACKBONE|DICT|INTERRES
   118   59  122 1    
   119   60   61 2    
   120   60   62 1    
   121   62   63 1    
   122   62   64 1    
   123   62  123 1    
   124   63  124 1    
   125   63  125 1    
   126   63  126 1    
   127   64   65 am   BACKBONE|DICT|INTERRES
   128   64  127 1    
   129   65   66 2    
@<TRIPOS>SUBSTRUCTURE
     1 UNK         1 GROUP             0       ****    0 ROOT    
