@<TRIPOS>MOLECULE
3R134
127   129    1
SMALL
USER_CHARGES


@<TRIPOS>ATOM
      1 CA         36.9386  -45.1577  -48.6419 C.3       0 UNK        -0.1968 
      2 C          36.9596  -45.2553  -50.1605 C.2       0 UNK         0.4852 
      3 O          38.0263  -45.1329  -50.7655 O.2       0 UNK        -0.5359 
      4 N          35.7903  -45.4666  -50.7790 N.am      1 UNK        -0.4300 
      5 CA         35.6314  -45.6586  -52.2235 C.3       1 UNK         0.0863 
      6 C6         34.1685  -45.3923  -52.6615 C.3       11 UNK        -0.0953 
      7 S7         34.0464  -44.9414  -54.4274 S.3       11 UNK        -0.2369 
      8 C8         33.2082  -43.3270  -54.3563 C.3       11 UNK         0.0226 
      9 C9         31.6967  -43.4880  -54.2859 C.ar      11 UNK        -0.0699 
     10 C10        31.0399  -43.5429  -53.0529 C.ar      11 UNK        -0.0804 
     11 C11        29.6499  -43.6904  -52.9951 C.ar      11 UNK        -0.0871 
     12 C12        28.9148  -43.7729  -54.1818 C.ar      11 UNK        -0.1008 
     13 C13        29.5630  -43.7295  -55.4186 C.ar      11 UNK        -0.0735 
     14 C14        30.9521  -43.5824  -55.4648 C.ar      11 UNK        -0.0945 
     15 C15        28.7725  -43.8792  -56.7061 C.3       11 UNK         0.0169 
     16 S16        28.0075  -42.3123  -57.2252 S.3       11 UNK        -0.2669 
     17 C17        27.8556  -42.5824  -59.0267 C.3       11 UNK        -0.0850 
     18 CA         26.5141  -43.2267  -59.4674 C.3       10 UNK         0.0855 
     19 C          26.4738  -43.3551  -61.0193 C.2       10 UNK         0.5543 
     20 N          26.6277  -44.5458  -61.5896 N.am      10 UNK        -0.7343 
     21 O          26.3034  -42.3555  -61.7125 O.2       10 UNK        -0.5027 
     22 N          26.2560  -44.4907  -58.7623 N.am      10 UNK        -0.4495 
     23 C          25.0928  -45.1515  -58.7568 C.2       10 UNK         0.4903 
     24 O          24.0506  -44.6931  -59.2273 O.2       10 UNK        -0.4860 
     25 CA         25.0822  -46.5579  -58.1205 C.3       9 UNK         0.0227 
     26 CB         24.2139  -47.5446  -58.9280 C.3       9 UNK        -0.1964 
     27 N          26.4052  -47.1485  -57.8622 N.am      9 UNK        -0.4231 
     28 C          27.3755  -47.4306  -58.7476 C.2       9 UNK         0.5014 
     29 O          27.3415  -47.1023  -59.9350 O.2       9 UNK        -0.5270 
     30 CA         28.5895  -48.2132  -58.2146 C.3       8 UNK         0.0284 
     31 CB         29.5845  -47.2865  -57.4990 C.3       8 UNK        -0.1977 
     32 N          28.2021  -49.2957  -57.3095 N.am      8 UNK        -0.4342 
     33 C          27.5424  -50.4017  -57.6823 C.2       8 UNK         0.5039 
     34 O          27.2474  -50.6709  -58.8473 O.2       8 UNK        -0.5547 
     35 CA         27.1257  -51.3614  -56.5591 C.3       7 UNK         0.0281 
     36 CB         28.3069  -52.2442  -56.1225 C.3       7 UNK        -0.1963 
     37 N          26.5912  -50.6274  -55.4099 N.am      7 UNK        -0.4444 
     38 C          25.3435  -50.1403  -55.3464 C.2       7 UNK         0.5104 
     39 O          24.4930  -50.3230  -56.2173 O.2       7 UNK        -0.5100 
     40 CA         24.9682  -49.3136  -54.1030 C.3       6 UNK         0.0396 
     41 CB         24.2443  -50.1965  -53.0741 C.3       6 UNK        -0.1801 
     42 N          26.1127  -48.6648  -53.4584 N.am      6 UNK        -0.4747 
     43 C          26.7774  -47.6141  -53.9610 C.2       6 UNK         0.5012 
     44 O          26.5071  -47.0799  -55.0361 O.2       6 UNK        -0.5003 
     45 CA         27.9835  -47.1128  -53.1438 C.3       5 UNK         0.0782 
     46 C46        27.5047  -46.1790  -52.0041 C.3       11 UNK        -0.0868 
     47 S47        28.8753  -45.4733  -51.0258 S.3       11 UNK        -0.2515 
     48 C48        28.9481  -43.7631  -51.6479 C.3       11 UNK         0.0199 
     49 N          28.8308  -48.2077  -52.6533 N.am      5 UNK        -0.4607 
     50 C          29.4141  -49.1336  -53.4238 C.2       4 UNK         0.5031 
     51 O          29.2126  -49.2493  -54.6355 O.2       4 UNK        -0.5119 
     52 CA         30.3486  -50.1268  -52.7171 C.3       4 UNK         0.0263 
     53 CB         29.5963  -51.4228  -52.3749 C.3       4 UNK        -0.1967 
     54 N          31.5087  -50.4403  -53.5543 N.am      4 UNK        -0.4237 
     55 C          32.4662  -49.5553  -53.8592 C.2       3 UNK         0.4908 
     56 O          32.5188  -48.4142  -53.3948 O.2       3 UNK        -0.5102 
     57 CA         33.5301  -50.0133  -54.8619 C.3       3 UNK         0.0241 
     58 CB         32.9905  -49.9480  -56.3021 C.3       3 UNK        -0.1971 
     59 N          34.6882  -49.1326  -54.7391 N.am      3 UNK        -0.4139 
     60 C          35.9697  -49.5116  -54.7688 C.2       2 UNK         0.5016 
     61 O          36.3345  -50.6685  -54.9844 O.2       2 UNK        -0.5319 
     62 CA         37.0366  -48.4257  -54.5252 C.3       2 UNK         0.0286 
     63 CB         37.7502  -48.0721  -55.8408 C.3       2 UNK        -0.1963 
     64 N          36.5208  -47.1906  -53.9219 N.am      2 UNK        -0.4790 
     65 C          36.1187  -47.0629  -52.6500 C.2       1 UNK         0.5024 
     66 O          36.1104  -47.9964  -51.8432 O.2       1 UNK        -0.4888 
     67 H67        37.5639  -45.9373  -48.2077 H         1 UNK         0.0892 
     68 H68        37.3273  -44.1911  -48.3224 H         1 UNK         0.0892 
     69 H69        35.9318  -45.2677  -48.2394 H         1 UNK         0.0892 
     70 H70        34.9557  -45.5977  -50.2259 H         1 UNK         0.3107 
     71 H71        36.2734  -44.9211  -52.7113 H         1 UNK         0.0773 
     72 H72        33.7552  -44.5737  -52.0717 H         1 UNK         0.0680 
     73 H73        33.5243  -46.2476  -52.4565 H         1 UNK         0.0680 
     74 H74        33.4734  -42.7606  -55.2503 H         1 UNK         0.0650 
     75 H75        33.5774  -42.7429  -53.5121 H         1 UNK         0.0650 
     76 H76        31.6100  -43.4777  -52.1367 H         1 UNK         0.1397 
     77 H77        27.8398  -43.8858  -54.1467 H         1 UNK         0.1363 
     78 H78        31.4581  -43.5508  -56.4202 H         1 UNK         0.1355 
     79 H79        29.4297  -44.2487  -57.4934 H         1 UNK         0.0707 
     80 H80        27.9951  -44.6319  -56.5684 H         1 UNK         0.0707 
     81 H81        27.9664  -41.6060  -59.5030 H         1 UNK         0.1034 
     82 H82        28.7021  -43.1730  -59.3818 H         1 UNK         0.1034 
     83 H83        25.7122  -42.5389  -59.1922 H         1 UNK         0.0482 
     84 H84        26.7858  -45.3729  -61.0251 H         1 UNK         0.3460 
     85 H85        26.5994  -44.6204  -62.5939 H         1 UNK         0.3460 
     86 H86        27.0593  -44.9533  -58.3695 H         1 UNK         0.2989 
     87 H87        24.6180  -46.4371  -57.1408 H         1 UNK         0.0559 
     88 H88        24.5922  -47.6772  -59.9422 H         1 UNK         0.0848 
     89 H89        23.1845  -47.1932  -59.0074 H         1 UNK         0.0848 
     90 H90        24.1825  -48.5249  -58.4519 H         1 UNK         0.0848 
     91 H91        26.5701  -47.3765  -56.8837 H         1 UNK         0.3144 
     92 H92        29.0980  -48.6585  -59.0723 H         1 UNK         0.0727 
     93 H93        29.1497  -46.8341  -56.6072 H         1 UNK         0.0790 
     94 H94        29.9143  -46.4843  -58.1595 H         1 UNK         0.0790 
     95 H95        30.4751  -47.8323  -57.1872 H         1 UNK         0.0790 
     96 H96        28.4654  -49.1955  -56.3303 H         1 UNK         0.3215 
     97 H97        26.3449  -52.0178  -56.9504 H         1 UNK         0.0863 
     98 H98        28.0133  -52.9394  -55.3360 H         1 UNK         0.0808 
     99 H99        29.1476  -51.6547  -55.7568 H         1 UNK         0.0808 
    100 H100       28.6724  -52.8401  -56.9599 H         1 UNK         0.0808 
    101 H101       27.2452  -50.3784  -54.6809 H         1 UNK         0.3118 
    102 H102       24.2756  -48.5336  -54.4271 H         1 UNK         0.0546 
    103 H103       24.8889  -50.9915  -52.6973 H         1 UNK         0.0828 
    104 H104       23.3672  -50.6713  -53.5163 H         1 UNK         0.0828 
    105 H105       23.8972  -49.6115  -52.2223 H         1 UNK         0.0828 
    106 H106       26.4174  -49.0467  -52.5742 H         1 UNK         0.3005 
    107 H107       28.6023  -46.5292  -53.8285 H         1 UNK         0.1257 
    108 H108       26.8584  -46.7240  -51.3133 H         1 UNK         0.0775 
    109 H109       26.8929  -45.3677  -52.4027 H         1 UNK         0.0775 
    110 H110       27.9439  -43.3407  -51.7102 H         1 UNK         0.0840 
    111 H111       29.4847  -43.1506  -50.9217 H         1 UNK         0.0840 
    112 H112       29.0530  -48.1785  -51.6685 H         1 UNK         0.2987 
    113 H113       30.7096  -49.6763  -51.7898 H         1 UNK         0.0785 
    114 H114       28.7372  -51.2194  -51.7341 H         1 UNK         0.0798 
    115 H115       30.2376  -52.1231  -51.8393 H         1 UNK         0.0798 
    116 H116       29.2244  -51.9259  -53.2675 H         1 UNK         0.0798 
    117 H117       31.5155  -51.3450  -54.0018 H         1 UNK         0.3079 
    118 H118       33.8094  -51.0408  -54.6182 H         1 UNK         0.0794 
    119 H119       32.1118  -50.5825  -56.4257 H         1 UNK         0.0786 
    120 H120       33.7384  -50.2861  -57.0196 H         1 UNK         0.0786 
    121 H121       32.7002  -48.9326  -56.5754 H         1 UNK         0.0786 
    122 H122       34.4658  -48.1805  -54.4765 H         1 UNK         0.3032 
    123 H123       37.7731  -48.8540  -53.8413 H         1 UNK         0.1094 
    124 H124       38.5675  -47.3702  -55.6740 H         1 UNK         0.0794 
    125 H125       38.1804  -48.9613  -56.3040 H         1 UNK         0.0794 
    126 H126       37.0656  -47.6274  -56.5643 H         1 UNK         0.0794 
    127 H127       36.4649  -46.3823  -54.5267 H         1 UNK         0.3016 
@<TRIPOS>BOND
     1    1    2 1    
     2    1   67 1    
     3    1   68 1    
     4    1   69 1    
     5    2    3 2    
     6    2    4 am   BACKBONE|DICT|INTERRES
     7    4    5 1    
     8    4   70 1    
     9    5    6 1    
    10    5   65 1    
    11    5   71 1    
    12    6    7 1    
    13    6   72 1    
    14    6   73 1    
    15    7    8 1    
    16    8    9 1    
    17    8   74 1    
    18    8   75 1    
    19    9   10 ar   
    20    9   14 ar   
    21   10   11 ar   
    22   10   76 1    
    23   11   12 ar   
    24   11   48 1    
    25   12   13 ar   
    26   12   77 1    
    27   13   14 ar   
    28   13   15 1    
    29   14   78 1    
    30   15   16 1    
    31   15   79 1    
    32   15   80 1    
    33   16   17 1    
    34   17   18 1    
    35   17   81 1    
    36   17   82 1    
    37   18   19 1    
    38   18   22 1    
    39   18   83 1    
    40   19   20 am   BACKBONE|DICT|INTERRES
    41   19   21 2    
    42   20   84 1    
    43   20   85 1    
    44   22   23 am   BACKBONE|DICT|INTERRES
    45   22   86 1    
    46   23   24 2    
    47   23   25 1    
    48   25   26 1    
    49   25   27 1    
    50   25   87 1    
    51   26   88 1    
    52   26   89 1    
    53   26   90 1    
    54   27   28 am   BACKBONE|DICT|INTERRES
    55   27   91 1    
    56   28   29 2    
    57   28   30 1    
    58   30   31 1    
    59   30   32 1    
    60   30   92 1    
    61   31   93 1    
    62   31   94 1    
    63   31   95 1    
    64   32   33 am   BACKBONE|DICT|INTERRES
    65   32   96 1    
    66   33   34 2    
    67   33   35 1    
    68   35   36 1    
    69   35   37 1    
    70   35   97 1    
    71   36   98 1    
    72   36   99 1    
    73   36  100 1    
    74   37   38 am   BACKBONE|DICT|INTERRES
    75   37  101 1    
    76   38   39 2    
    77   38   40 1    
    78   40   41 1    
    79   40   42 1    
    80   40  102 1    
    81   41  103 1    
    82   41  104 1    
    83   41  105 1    
    84   42   43 am   BACKBONE|DICT|INTERRES
    85   42  106 1    
    86   43   44 2    
    87   43   45 1    
    88   45   46 1    
    89   45   49 1    
    90   45  107 1    
    91   46   47 1    
    92   46  108 1    
    93   46  109 1    
    94   47   48 1    
    95   48  110 1    
    96   48  111 1    
    97   49   50 am   BACKBONE|DICT|INTERRES
    98   49  112 1    
    99   50   51 2    
   100   50   52 1    
   101   52   53 1    
   102   52   54 1    
   103   52  113 1    
   104   53  114 1    
   105   53  115 1    
   106   53  116 1    
   107   54   55 am   BACKBONE|DICT|INTERRES
   108   54  117 1    
   109   55   56 2    
   110   55   57 1    
   111   57   58 1    
   112   57   59 1    
   113   57  118 1    
   114   58  119 1    
   115   58  120 1    
   116   58  121 1    
   117   59   60 am   BACKBONE|DICT|INTERRES
   118   59  122 1    
   119   60   61 2    
   120   60   62 1    
   121   62   63 1    
   122   62   64 1    
   123   62  123 1    
   124   63  124 1    
   125   63  125 1    
   126   63  126 1    
   127   64   65 am   BACKBONE|DICT|INTERRES
   128   64  127 1    
   129   65   66 2    
@<TRIPOS>SUBSTRUCTURE
     1 UNK         1 GROUP             0       ****    0 ROOT    
