@<TRIPOS>MOLECULE
3R134
127   129    1
SMALL
USER_CHARGES


@<TRIPOS>ATOM
      1 CA         30.3618  -42.9367  -50.5970 C.3       0 UNK        -0.1968 
      2 C          31.8127  -43.3592  -50.4278 C.2       0 UNK         0.4852 
      3 O          32.2263  -43.6781  -49.3122 O.2       0 UNK        -0.5359 
      4 N          32.5918  -43.3481  -51.5189 N.am      1 UNK        -0.4300 
      5 CA         34.0346  -43.6339  -51.5149 C.3       1 UNK         0.0863 
      6 C6         34.7479  -43.1664  -52.8112 C.3       11 UNK        -0.0953 
      7 S7         34.2834  -41.4720  -53.3202 S.3       11 UNK        -0.2369 
      8 C8         34.0481  -41.6343  -55.1234 C.3       11 UNK         0.0226 
      9 C9         33.0603  -42.7308  -55.5040 C.ar      11 UNK        -0.0699 
     10 C10        33.5101  -43.8725  -56.1746 C.ar      11 UNK        -0.0804 
     11 C11        32.6227  -44.8993  -56.5065 C.ar      11 UNK        -0.0871 
     12 C12        31.2710  -44.7766  -56.1705 C.ar      11 UNK        -0.1008 
     13 C13        30.8086  -43.6374  -55.5036 C.ar      11 UNK        -0.0735 
     14 C14        31.7054  -42.6139  -55.1797 C.ar      11 UNK        -0.0945 
     15 C15        29.3479  -43.5283  -55.0996 C.3       11 UNK         0.0169 
     16 S16        29.0809  -44.3906  -53.5260 S.3       11 UNK        -0.2669 
     17 C17        27.3777  -43.9132  -53.0959 C.3       11 UNK        -0.0850 
     18 CA         26.3515  -45.0271  -53.4317 C.3       10 UNK         0.0855 
     19 C          25.0565  -44.8421  -52.6002 C.2       10 UNK         0.5543 
     20 N          24.9902  -45.4358  -51.4170 N.am      10 UNK        -0.7343 
     21 O          24.1292  -44.1394  -53.0002 O.2       10 UNK        -0.5027 
     22 N          26.0142  -45.0306  -54.8595 N.am      10 UNK        -0.4495 
     23 C          26.2647  -46.0135  -55.7271 C.2       10 UNK         0.4903 
     24 O          26.9361  -47.0176  -55.4809 O.2       10 UNK        -0.4860 
     25 CA         25.6565  -45.8248  -57.1213 C.3       9 UNK         0.0227 
     26 CB         26.5208  -44.8825  -57.9772 C.3       9 UNK        -0.1964 
     27 N          25.5445  -47.1250  -57.7791 N.am      9 UNK        -0.4231 
     28 C          24.4764  -47.5666  -58.4559 C.2       9 UNK         0.5014 
     29 O          23.4644  -46.8890  -58.6436 O.2       9 UNK        -0.5270 
     30 CA         24.5297  -48.9916  -59.0443 C.3       8 UNK         0.0284 
     31 CB         24.4317  -48.9472  -60.5792 C.3       8 UNK        -0.1977 
     32 N          25.7384  -49.7323  -58.6796 N.am      8 UNK        -0.4342 
     33 C          25.9501  -50.3842  -57.5317 C.2       8 UNK         0.5039 
     34 O          25.1088  -50.4800  -56.6381 O.2       8 UNK        -0.5547 
     35 CA         27.3440  -51.0090  -57.3305 C.3       7 UNK         0.0281 
     36 CB         27.4438  -52.3950  -57.9954 C.3       7 UNK        -0.1963 
     37 N          28.4577  -50.1343  -57.7278 N.am      7 UNK        -0.4444 
     38 C          28.8029  -49.6903  -58.9460 C.2       7 UNK         0.5104 
     39 O          28.2114  -49.9951  -59.9819 O.2       7 UNK        -0.5100 
     40 CA         29.9674  -48.6950  -59.0179 C.3       6 UNK         0.0396 
     41 CB         29.4578  -47.2800  -58.6997 C.3       6 UNK        -0.1801 
     42 N          31.0368  -49.0518  -58.0845 N.am      6 UNK        -0.4747 
     43 C          32.2187  -49.5777  -58.4376 C.2       6 UNK         0.5012 
     44 O          32.5538  -49.7848  -59.6046 O.2       6 UNK        -0.5003 
     45 CA         33.2059  -49.9331  -57.3036 C.3       5 UNK         0.0782 
     46 C46        34.2017  -48.7716  -57.0397 C.3       11 UNK        -0.0868 
     47 S47        33.5311  -47.4335  -55.9848 S.3       11 UNK        -0.2515 
     48 C48        33.1352  -46.1485  -57.2046 C.3       11 UNK         0.0199 
     49 N          32.5403  -50.3517  -56.0688 N.am      5 UNK        -0.4607 
     50 C          31.7509  -51.4193  -55.9060 C.2       4 UNK         0.5031 
     51 O          31.5951  -52.2937  -56.7577 O.2       4 UNK        -0.5119 
     52 CA         30.9791  -51.5061  -54.5739 C.3       4 UNK         0.0263 
     53 CB         31.6671  -52.4946  -53.6195 C.3       4 UNK        -0.1967 
     54 N          30.8083  -50.2176  -53.8856 N.am      4 UNK        -0.4237 
     55 C          30.1915  -49.1361  -54.3801 C.2       3 UNK         0.4908 
     56 O          29.7026  -49.0939  -55.5077 O.2       3 UNK        -0.5102 
     57 CA         30.1611  -47.8706  -53.5129 C.3       3 UNK         0.0241 
     58 CB         29.0549  -47.9517  -52.4430 C.3       3 UNK        -0.1971 
     59 N          31.4631  -47.4939  -52.9399 N.am      3 UNK        -0.4139 
     60 C          32.1720  -48.1181  -51.9845 C.2       2 UNK         0.5016 
     61 O          31.8296  -49.1777  -51.4584 O.2       2 UNK        -0.5319 
     62 CA         33.4886  -47.4622  -51.5438 C.3       2 UNK         0.0286 
     63 CB         34.6769  -48.0744  -52.3136 C.3       2 UNK        -0.1963 
     64 N          33.4359  -46.0053  -51.7002 N.am      2 UNK        -0.4790 
     65 C          34.3398  -45.1240  -51.2517 C.2       1 UNK         0.5024 
     66 O          35.3712  -45.4360  -50.6552 O.2       1 UNK        -0.4888 
     67 H67        30.1947  -42.4390  -51.5519 H         1 UNK         0.0892 
     68 H68        29.7085  -43.8068  -50.5403 H         1 UNK         0.0892 
     69 H69        30.0763  -42.2439  -49.8060 H         1 UNK         0.0892 
     70 H70        32.2085  -43.0597  -52.4082 H         1 UNK         0.3107 
     71 H71        34.4681  -43.0709  -50.6851 H         1 UNK         0.0773 
     72 H72        34.5478  -43.8642  -53.6239 H         1 UNK         0.0680 
     73 H73        35.8299  -43.1858  -52.6685 H         1 UNK         0.0680 
     74 H74        35.0202  -41.8124  -55.5858 H         1 UNK         0.0650 
     75 H75        33.6931  -40.6815  -55.5182 H         1 UNK         0.0650 
     76 H76        34.5582  -43.9723  -56.4223 H         1 UNK         0.1397 
     77 H77        30.5824  -45.5764  -56.4059 H         1 UNK         0.1363 
     78 H78        31.3549  -41.7343  -54.6569 H         1 UNK         0.1355 
     79 H79        28.7085  -43.9633  -55.8686 H         1 UNK         0.0707 
     80 H80        29.0581  -42.4809  -55.0024 H         1 UNK         0.0707 
     81 H81        27.1104  -42.9705  -53.5767 H         1 UNK         0.1034 
     82 H82        27.3843  -43.7052  -52.0239 H         1 UNK         0.1034 
     83 H83        26.7751  -45.9937  -53.1521 H         1 UNK         0.0482 
     84 H84        24.1614  -45.3165  -50.8554 H         1 UNK         0.3460 
     85 H85        25.7482  -46.0053  -51.0744 H         1 UNK         0.3460 
     86 H86        25.4083  -44.2738  -55.1452 H         1 UNK         0.2989 
     87 H87        24.6651  -45.3836  -56.9975 H         1 UNK         0.0559 
     88 H88        26.5478  -43.8800  -57.5488 H         1 UNK         0.0848 
     89 H89        26.1255  -44.7899  -58.9889 H         1 UNK         0.0848 
     90 H90        27.5511  -45.2291  -58.0494 H         1 UNK         0.0848 
     91 H91        26.2934  -47.7726  -57.5742 H         1 UNK         0.3144 
     92 H92        23.6606  -49.5312  -58.6621 H         1 UNK         0.0727 
     93 H93        24.4109  -49.9509  -61.0044 H         1 UNK         0.0790 
     94 H94        25.2737  -48.4127  -61.0212 H         1 UNK         0.0790 
     95 H95        23.5194  -48.4431  -60.9011 H         1 UNK         0.0790 
     96 H96        26.5016  -49.7360  -59.3543 H         1 UNK         0.3215 
     97 H97        27.4646  -51.1543  -56.2554 H         1 UNK         0.0863 
     98 H98        28.4101  -52.8588  -57.7964 H         1 UNK         0.0808 
     99 H99        27.3131  -52.3429  -59.0766 H         1 UNK         0.0808 
    100 H100       26.6754  -53.0660  -57.6094 H         1 UNK         0.0808 
    101 H101       28.9729  -49.7487  -56.9350 H         1 UNK         0.3118 
    102 H102       30.3379  -48.6939  -60.0450 H         1 UNK         0.0546 
    103 H103       29.1076  -47.1963  -57.6697 H         1 UNK         0.0828 
    104 H104       28.6259  -47.0121  -59.3526 H         1 UNK         0.0828 
    105 H105       30.2350  -46.5327  -58.8540 H         1 UNK         0.0828 
    106 H106       30.8242  -48.9569  -57.0961 H         1 UNK         0.3005 
    107 H107       33.7791  -50.7910  -57.6627 H         1 UNK         0.1257 
    108 H108       35.0748  -49.1706  -56.5212 H         1 UNK         0.0775 
    109 H109       34.5900  -48.3578  -57.9727 H         1 UNK         0.0775 
    110 H110       34.0247  -45.9162  -57.7923 H         1 UNK         0.0840 
    111 H111       32.3901  -46.5211  -57.9066 H         1 UNK         0.0840 
    112 H112       32.6071  -49.6932  -55.3066 H         1 UNK         0.2987 
    113 H113       29.9823  -51.8863  -54.8063 H         1 UNK         0.0785 
    114 H114       31.0818  -52.6424  -52.7117 H         1 UNK         0.0798 
    115 H115       32.6588  -52.1472  -53.3267 H         1 UNK         0.0798 
    116 H116       31.7879  -53.4724  -54.0882 H         1 UNK         0.0798 
    117 H117       31.1956  -50.1331  -52.9478 H         1 UNK         0.3079 
    118 H118       29.8956  -47.0581  -54.1900 H         1 UNK         0.0794 
    119 H119       28.0832  -48.1210  -52.9092 H         1 UNK         0.0786 
    120 H120       28.9848  -47.0240  -51.8755 H         1 UNK         0.0786 
    121 H121       29.2209  -48.7656  -51.7370 H         1 UNK         0.0786 
    122 H122       31.8955  -46.7016  -53.3929 H         1 UNK         0.3032 
    123 H123       33.6111  -47.6822  -50.4809 H         1 UNK         0.1094 
    124 H124       34.6922  -47.7548  -53.3543 H         1 UNK         0.0794 
    125 H125       35.6310  -47.7942  -51.8680 H         1 UNK         0.0794 
    126 H126       34.6334  -49.1646  -52.3054 H         1 UNK         0.0794 
    127 H127       32.5846  -45.6274  -52.0900 H         1 UNK         0.3016 
@<TRIPOS>BOND
     1    1    2 1    
     2    1   67 1    
     3    1   68 1    
     4    1   69 1    
     5    2    3 2    
     6    2    4 am   BACKBONE|DICT|INTERRES
     7    4    5 1    
     8    4   70 1    
     9    5    6 1    
    10    5   65 1    
    11    5   71 1    
    12    6    7 1    
    13    6   72 1    
    14    6   73 1    
    15    7    8 1    
    16    8    9 1    
    17    8   74 1    
    18    8   75 1    
    19    9   10 ar   
    20    9   14 ar   
    21   10   11 ar   
    22   10   76 1    
    23   11   12 ar   
    24   11   48 1    
    25   12   13 ar   
    26   12   77 1    
    27   13   14 ar   
    28   13   15 1    
    29   14   78 1    
    30   15   16 1    
    31   15   79 1    
    32   15   80 1    
    33   16   17 1    
    34   17   18 1    
    35   17   81 1    
    36   17   82 1    
    37   18   19 1    
    38   18   22 1    
    39   18   83 1    
    40   19   20 am   BACKBONE|DICT|INTERRES
    41   19   21 2    
    42   20   84 1    
    43   20   85 1    
    44   22   23 am   BACKBONE|DICT|INTERRES
    45   22   86 1    
    46   23   24 2    
    47   23   25 1    
    48   25   26 1    
    49   25   27 1    
    50   25   87 1    
    51   26   88 1    
    52   26   89 1    
    53   26   90 1    
    54   27   28 am   BACKBONE|DICT|INTERRES
    55   27   91 1    
    56   28   29 2    
    57   28   30 1    
    58   30   31 1    
    59   30   32 1    
    60   30   92 1    
    61   31   93 1    
    62   31   94 1    
    63   31   95 1    
    64   32   33 am   BACKBONE|DICT|INTERRES
    65   32   96 1    
    66   33   34 2    
    67   33   35 1    
    68   35   36 1    
    69   35   37 1    
    70   35   97 1    
    71   36   98 1    
    72   36   99 1    
    73   36  100 1    
    74   37   38 am   BACKBONE|DICT|INTERRES
    75   37  101 1    
    76   38   39 2    
    77   38   40 1    
    78   40   41 1    
    79   40   42 1    
    80   40  102 1    
    81   41  103 1    
    82   41  104 1    
    83   41  105 1    
    84   42   43 am   BACKBONE|DICT|INTERRES
    85   42  106 1    
    86   43   44 2    
    87   43   45 1    
    88   45   46 1    
    89   45   49 1    
    90   45  107 1    
    91   46   47 1    
    92   46  108 1    
    93   46  109 1    
    94   47   48 1    
    95   48  110 1    
    96   48  111 1    
    97   49   50 am   BACKBONE|DICT|INTERRES
    98   49  112 1    
    99   50   51 2    
   100   50   52 1    
   101   52   53 1    
   102   52   54 1    
   103   52  113 1    
   104   53  114 1    
   105   53  115 1    
   106   53  116 1    
   107   54   55 am   BACKBONE|DICT|INTERRES
   108   54  117 1    
   109   55   56 2    
   110   55   57 1    
   111   57   58 1    
   112   57   59 1    
   113   57  118 1    
   114   58  119 1    
   115   58  120 1    
   116   58  121 1    
   117   59   60 am   BACKBONE|DICT|INTERRES
   118   59  122 1    
   119   60   61 2    
   120   60   62 1    
   121   62   63 1    
   122   62   64 1    
   123   62  123 1    
   124   63  124 1    
   125   63  125 1    
   126   63  126 1    
   127   64   65 am   BACKBONE|DICT|INTERRES
   128   64  127 1    
   129   65   66 2    
@<TRIPOS>SUBSTRUCTURE
     1 UNK         1 GROUP             0       ****    0 ROOT    
