@<TRIPOS>MOLECULE
3R134
127   129    1
SMALL
USER_CHARGES


@<TRIPOS>ATOM
      1 CA         30.1538  -46.1646  -53.5243 C.3       0 UNK        -0.1968 
      2 C          31.0698  -45.6610  -52.4218 C.2       0 UNK         0.4852 
      3 O          30.7337  -45.7873  -51.2424 O.2       0 UNK        -0.5359 
      4 N          32.2267  -45.0940  -52.7886 N.am      1 UNK        -0.4300 
      5 CA         33.2597  -44.6128  -51.8650 C.3       1 UNK         0.0863 
      6 C6         34.2177  -43.5961  -52.5354 C.3       11 UNK        -0.0953 
      7 S7         33.3746  -42.0438  -52.9874 S.3       11 UNK        -0.2369 
      8 C8         33.6489  -41.9708  -54.7844 C.3       11 UNK         0.0226 
      9 C9         32.7407  -42.9299  -55.5383 C.ar      11 UNK        -0.0699 
     10 C10        33.2310  -44.1483  -56.0152 C.ar      11 UNK        -0.0804 
     11 C11        32.3998  -45.0174  -56.7292 C.ar      11 UNK        -0.0871 
     12 C12        31.0684  -44.6590  -56.9691 C.ar      11 UNK        -0.1008 
     13 C13        30.5677  -43.4438  -56.4900 C.ar      11 UNK        -0.0735 
     14 C14        31.4086  -42.5846  -55.7776 C.ar      11 UNK        -0.0945 
     15 C15        29.1228  -43.0439  -56.7392 C.3       11 UNK         0.0169 
     16 S16        28.0681  -43.5204  -55.3374 S.3       11 UNK        -0.2669 
     17 C17        26.6685  -42.3518  -55.5004 C.3       11 UNK        -0.0850 
     18 CA         25.5155  -42.8346  -56.4232 C.3       10 UNK         0.0855 
     19 C          25.8281  -42.6104  -57.9277 C.2       10 UNK         0.5543 
     20 N          26.0168  -43.6423  -58.7385 N.am      10 UNK        -0.7343 
     21 O          25.8770  -41.4670  -58.3748 O.2       10 UNK        -0.5027 
     22 N          25.0561  -44.1905  -56.0851 N.am      10 UNK        -0.4495 
     23 C          24.1188  -44.4779  -55.1713 C.2       10 UNK         0.4903 
     24 O          23.4906  -43.6233  -54.5450 O.2       10 UNK        -0.4860 
     25 CA         23.8176  -45.9652  -54.8916 C.3       9 UNK         0.0227 
     26 CB         22.5512  -46.4053  -55.6441 C.3       9 UNK        -0.1964 
     27 N          24.9216  -46.8572  -55.2494 N.am      9 UNK        -0.4231 
     28 C          26.1087  -46.8988  -54.6293 C.2       9 UNK         0.5014 
     29 O          26.3352  -46.3257  -53.5631 O.2       9 UNK        -0.5270 
     30 CA         27.2449  -47.6953  -55.3079 C.3       8 UNK         0.0284 
     31 CB         27.6339  -48.9098  -54.4460 C.3       8 UNK        -0.1977 
     32 N          26.9961  -48.1383  -56.6910 N.am      8 UNK        -0.4342 
     33 C          26.7138  -47.3421  -57.7345 C.2       8 UNK         0.5039 
     34 O          26.5764  -46.1228  -57.6361 O.2       8 UNK        -0.5547 
     35 CA         26.5432  -48.0189  -59.1022 C.3       7 UNK         0.0281 
     36 CB         26.4400  -47.0106  -60.2631 C.3       7 UNK        -0.1963 
     37 N          27.6656  -48.9208  -59.3402 N.am      7 UNK        -0.4444 
     38 C          27.5713  -50.1904  -59.7509 C.2       7 UNK         0.5104 
     39 O          26.5108  -50.7427  -60.0454 O.2       7 UNK        -0.5100 
     40 CA         28.8861  -50.9898  -59.8331 C.3       6 UNK         0.0396 
     41 CB         29.3929  -51.0352  -61.2836 C.3       6 UNK        -0.1801 
     42 N          29.9572  -50.4845  -58.9624 N.am      6 UNK        -0.4747 
     43 C          29.9097  -50.4646  -57.6219 C.2       6 UNK         0.5012 
     44 O          28.9237  -50.8182  -56.9707 O.2       6 UNK        -0.5003 
     45 CA         31.1551  -49.9132  -56.8981 C.3       5 UNK         0.0782 
     46 C46        31.0514  -48.3790  -56.7080 C.3       11 UNK        -0.0868 
     47 S47        32.6149  -47.6863  -56.0681 S.3       11 UNK        -0.2515 
     48 C48        32.9537  -46.3378  -57.2412 C.3       11 UNK         0.0199 
     49 N          31.3729  -50.5889  -55.6171 N.am      5 UNK        -0.4607 
     50 C          31.6700  -51.8811  -55.4482 C.2       4 UNK         0.5031 
     51 O          31.8329  -52.6749  -56.3768 O.2       4 UNK        -0.5119 
     52 CA         31.8668  -52.3379  -53.9899 C.3       4 UNK         0.0263 
     53 CB         31.9861  -53.8680  -53.8585 C.3       4 UNK        -0.1967 
     54 N          33.0553  -51.7146  -53.4022 N.am      4 UNK        -0.4237 
     55 C          33.1258  -50.4538  -52.9564 C.2       3 UNK         0.4908 
     56 O          32.1686  -49.6741  -52.9535 O.2       3 UNK        -0.5102 
     57 CA         34.5145  -49.9812  -52.4942 C.3       3 UNK         0.0241 
     58 CB         35.3528  -49.5268  -53.7007 C.3       3 UNK        -0.1971 
     59 N          34.4285  -48.8745  -51.5437 N.am      3 UNK        -0.4139 
     60 C          33.9706  -48.9555  -50.2901 C.2       2 UNK         0.5016 
     61 O          33.6511  -50.0153  -49.7486 O.2       2 UNK        -0.5319 
     62 CA         33.8374  -47.6413  -49.4968 C.3       2 UNK         0.0286 
     63 CB         35.1309  -47.3310  -48.7180 C.3       2 UNK        -0.1963 
     64 N          33.3899  -46.4791  -50.2831 N.am      2 UNK        -0.4790 
     65 C          34.0243  -45.8056  -51.2534 C.2       1 UNK         0.5024 
     66 O          35.1348  -46.1158  -51.6886 O.2       1 UNK        -0.4888 
     67 H67        30.1322  -47.2540  -53.5206 H         1 UNK         0.0892 
     68 H68        29.1397  -45.7981  -53.3663 H         1 UNK         0.0892 
     69 H69        30.4821  -45.8328  -54.5075 H         1 UNK         0.0892 
     70 H70        32.4438  -45.0038  -53.7717 H         1 UNK         0.3107 
     71 H71        32.7663  -44.0950  -51.0391 H         1 UNK         0.0773 
     72 H72        35.0258  -43.3287  -51.8517 H         1 UNK         0.0680 
     73 H73        34.6984  -44.0350  -53.4110 H         1 UNK         0.0680 
     74 H74        34.6988  -42.1693  -55.0058 H         1 UNK         0.0650 
     75 H75        33.4566  -40.9521  -55.1243 H         1 UNK         0.0650 
     76 H76        34.2627  -44.4190  -55.8356 H         1 UNK         0.1397 
     77 H77        30.4191  -45.3275  -57.5177 H         1 UNK         0.1363 
     78 H78        31.0242  -41.6446  -55.4053 H         1 UNK         0.1355 
     79 H79        28.7486  -43.5175  -57.6480 H         1 UNK         0.0707 
     80 H80        29.0653  -41.9670  -56.9039 H         1 UNK         0.0707 
     81 H81        26.2677  -42.2016  -54.4970 H         1 UNK         0.1034 
     82 H82        27.0350  -41.3699  -55.8056 H         1 UNK         0.1034 
     83 H83        24.6756  -42.1602  -56.2447 H         1 UNK         0.0482 
     84 H84        26.1060  -44.5867  -58.3686 H         1 UNK         0.3460 
     85 H85        26.2002  -43.4689  -59.7130 H         1 UNK         0.3460 
     86 H86        25.5492  -44.9457  -56.5537 H         1 UNK         0.2989 
     87 H87        23.6329  -46.0687  -53.8204 H         1 UNK         0.0559 
     88 H88        22.6769  -46.3323  -56.7253 H         1 UNK         0.0848 
     89 H89        21.6998  -45.7792  -55.3732 H         1 UNK         0.0848 
     90 H90        22.2824  -47.4342  -55.4042 H         1 UNK         0.0848 
     91 H91        24.8325  -47.3640  -56.1171 H         1 UNK         0.3144 
     92 H92        28.0994  -47.0179  -55.3489 H         1 UNK         0.0727 
     93 H93        28.5508  -49.3780  -54.8006 H         1 UNK         0.0790 
     94 H94        26.8494  -49.6673  -54.4411 H         1 UNK         0.0790 
     95 H95        27.8116  -48.6187  -53.4096 H         1 UNK         0.0790 
     96 H96        27.1031  -49.1298  -56.8647 H         1 UNK         0.3215 
     97 H97        25.6078  -48.5806  -59.0537 H         1 UNK         0.0863 
     98 H98        26.3181  -47.5194  -61.2194 H         1 UNK         0.0808 
     99 H99        27.3272  -46.3794  -60.3295 H         1 UNK         0.0808 
    100 H100       25.5784  -46.3539  -60.1361 H         1 UNK         0.0808 
    101 H101       28.5827  -48.5629  -59.1153 H         1 UNK         0.3118 
    102 H102       28.6620  -52.0117  -59.5198 H         1 UNK         0.0546 
    103 H103       28.6287  -51.4350  -61.9518 H         1 UNK         0.0828 
    104 H104       30.2692  -51.6765  -61.3796 H         1 UNK         0.0828 
    105 H105       29.6585  -50.0431  -61.6510 H         1 UNK         0.0828 
    106 H106       30.7974  -50.1700  -59.4278 H         1 UNK         0.3005 
    107 H107       32.0239  -50.1301  -57.5239 H         1 UNK         0.1257 
    108 H108       30.2520  -48.1254  -56.0110 H         1 UNK         0.0775 
    109 H109       30.7953  -47.8906  -57.6493 H         1 UNK         0.0775 
    110 H110       34.0341  -46.2606  -57.3724 H         1 UNK         0.0840 
    111 H111       32.5534  -46.5662  -58.2297 H         1 UNK         0.0840 
    112 H112       31.3377  -50.0042  -54.7889 H         1 UNK         0.2987 
    113 H113       30.9851  -52.0241  -53.4262 H         1 UNK         0.0785 
    114 H114       31.1085  -54.3641  -54.2755 H         1 UNK         0.0798 
    115 H115       32.0618  -54.1714  -52.8142 H         1 UNK         0.0798 
    116 H116       32.8600  -54.2545  -54.3847 H         1 UNK         0.0798 
    117 H117       33.8978  -52.2720  -53.4083 H         1 UNK         0.3079 
    118 H118       35.0216  -50.8137  -52.0018 H         1 UNK         0.0794 
    119 H119       34.8951  -48.6776  -54.2101 H         1 UNK         0.0786 
    120 H120       35.4590  -50.3274  -54.4339 H         1 UNK         0.0786 
    121 H121       36.3573  -49.2316  -53.3969 H         1 UNK         0.0786 
    122 H122       34.6828  -47.9518  -51.8817 H         1 UNK         0.3032 
    123 H123       33.0494  -47.8133  -48.7612 H         1 UNK         0.1094 
    124 H124       35.9806  -47.1691  -49.3819 H         1 UNK         0.0794 
    125 H125       35.0164  -46.4434  -48.0958 H         1 UNK         0.0794 
    126 H126       35.3927  -48.1581  -48.0566 H         1 UNK         0.0794 
    127 H127       32.4246  -46.2038  -50.1233 H         1 UNK         0.3016 
@<TRIPOS>BOND
     1    1    2 1    
     2    1   67 1    
     3    1   68 1    
     4    1   69 1    
     5    2    3 2    
     6    2    4 am   BACKBONE|DICT|INTERRES
     7    4    5 1    
     8    4   70 1    
     9    5    6 1    
    10    5   65 1    
    11    5   71 1    
    12    6    7 1    
    13    6   72 1    
    14    6   73 1    
    15    7    8 1    
    16    8    9 1    
    17    8   74 1    
    18    8   75 1    
    19    9   10 ar   
    20    9   14 ar   
    21   10   11 ar   
    22   10   76 1    
    23   11   12 ar   
    24   11   48 1    
    25   12   13 ar   
    26   12   77 1    
    27   13   14 ar   
    28   13   15 1    
    29   14   78 1    
    30   15   16 1    
    31   15   79 1    
    32   15   80 1    
    33   16   17 1    
    34   17   18 1    
    35   17   81 1    
    36   17   82 1    
    37   18   19 1    
    38   18   22 1    
    39   18   83 1    
    40   19   20 am   BACKBONE|DICT|INTERRES
    41   19   21 2    
    42   20   84 1    
    43   20   85 1    
    44   22   23 am   BACKBONE|DICT|INTERRES
    45   22   86 1    
    46   23   24 2    
    47   23   25 1    
    48   25   26 1    
    49   25   27 1    
    50   25   87 1    
    51   26   88 1    
    52   26   89 1    
    53   26   90 1    
    54   27   28 am   BACKBONE|DICT|INTERRES
    55   27   91 1    
    56   28   29 2    
    57   28   30 1    
    58   30   31 1    
    59   30   32 1    
    60   30   92 1    
    61   31   93 1    
    62   31   94 1    
    63   31   95 1    
    64   32   33 am   BACKBONE|DICT|INTERRES
    65   32   96 1    
    66   33   34 2    
    67   33   35 1    
    68   35   36 1    
    69   35   37 1    
    70   35   97 1    
    71   36   98 1    
    72   36   99 1    
    73   36  100 1    
    74   37   38 am   BACKBONE|DICT|INTERRES
    75   37  101 1    
    76   38   39 2    
    77   38   40 1    
    78   40   41 1    
    79   40   42 1    
    80   40  102 1    
    81   41  103 1    
    82   41  104 1    
    83   41  105 1    
    84   42   43 am   BACKBONE|DICT|INTERRES
    85   42  106 1    
    86   43   44 2    
    87   43   45 1    
    88   45   46 1    
    89   45   49 1    
    90   45  107 1    
    91   46   47 1    
    92   46  108 1    
    93   46  109 1    
    94   47   48 1    
    95   48  110 1    
    96   48  111 1    
    97   49   50 am   BACKBONE|DICT|INTERRES
    98   49  112 1    
    99   50   51 2    
   100   50   52 1    
   101   52   53 1    
   102   52   54 1    
   103   52  113 1    
   104   53  114 1    
   105   53  115 1    
   106   53  116 1    
   107   54   55 am   BACKBONE|DICT|INTERRES
   108   54  117 1    
   109   55   56 2    
   110   55   57 1    
   111   57   58 1    
   112   57   59 1    
   113   57  118 1    
   114   58  119 1    
   115   58  120 1    
   116   58  121 1    
   117   59   60 am   BACKBONE|DICT|INTERRES
   118   59  122 1    
   119   60   61 2    
   120   60   62 1    
   121   62   63 1    
   122   62   64 1    
   123   62  123 1    
   124   63  124 1    
   125   63  125 1    
   126   63  126 1    
   127   64   65 am   BACKBONE|DICT|INTERRES
   128   64  127 1    
   129   65   66 2    
@<TRIPOS>SUBSTRUCTURE
     1 UNK         1 GROUP             0       ****    0 ROOT    
