@<TRIPOS>MOLECULE
3R134
127   129    1
SMALL
USER_CHARGES


@<TRIPOS>ATOM
      1 CA         35.2034  -45.8568  -49.0619 C.3       0 UNK        -0.1968 
      2 C          34.6770  -44.4286  -49.1931 C.2       0 UNK         0.4852 
      3 O          34.7841  -43.6610  -48.2375 O.2       0 UNK        -0.5359 
      4 N          34.1205  -44.0147  -50.3411 N.am      1 UNK        -0.4300 
      5 CA         33.8451  -44.8116  -51.5430 C.3       1 UNK         0.0863 
      6 C6         33.4431  -43.9163  -52.7373 C.3       11 UNK        -0.0953 
      7 S7         34.8027  -42.8115  -53.2508 S.3       11 UNK        -0.2369 
      8 C8         33.9015  -41.4874  -54.1312 C.3       11 UNK         0.0226 
      9 C9         32.9423  -42.0022  -55.2017 C.ar      11 UNK        -0.0699 
     10 C10        33.3076  -43.0500  -56.0535 C.ar      11 UNK        -0.0804 
     11 C11        32.3924  -43.5775  -56.9674 C.ar      11 UNK        -0.0871 
     12 C12        31.1279  -42.9969  -57.0877 C.ar      11 UNK        -0.1008 
     13 C13        30.7585  -41.9308  -56.2636 C.ar      11 UNK        -0.0735 
     14 C14        31.6673  -41.4398  -55.3213 C.ar      11 UNK        -0.0945 
     15 C15        29.3730  -41.3162  -56.3833 C.3       11 UNK         0.0169 
     16 S16        28.2281  -41.9439  -55.1117 S.3       11 UNK        -0.2669 
     17 C17        27.9849  -43.6878  -55.6002 C.3       11 UNK        -0.0850 
     18 CA         26.7433  -43.8849  -56.5089 C.3       10 UNK         0.0855 
     19 C          27.0638  -43.6210  -58.0029 C.2       10 UNK         0.5543 
     20 N          26.5028  -42.5720  -58.5884 N.am      10 UNK        -0.7343 
     21 O          27.8470  -44.3394  -58.6202 O.2       10 UNK        -0.5027 
     22 N          26.1800  -45.2275  -56.3418 N.am      10 UNK        -0.4495 
     23 C          24.8996  -45.5409  -56.5751 C.2       10 UNK         0.4903 
     24 O          24.0349  -44.7149  -56.8741 O.2       10 UNK        -0.4860 
     25 CA         24.5325  -47.0297  -56.4433 C.3       9 UNK         0.0227 
     26 CB         23.0627  -47.3329  -56.8052 C.3       9 UNK        -0.1964 
     27 N          25.4480  -47.8967  -57.1914 N.am      9 UNK        -0.4231 
     28 C          25.6723  -47.9075  -58.5156 C.2       9 UNK         0.5014 
     29 O          25.0805  -47.1840  -59.3179 O.2       9 UNK        -0.5270 
     30 CA         26.7430  -48.8794  -59.0540 C.3       8 UNK         0.0284 
     31 CB         27.9536  -48.0900  -59.5805 C.3       8 UNK        -0.1977 
     32 N          27.2073  -49.8648  -58.0721 N.am      8 UNK        -0.4342 
     33 C          26.4905  -50.9030  -57.6188 C.2       8 UNK         0.5039 
     34 O          25.3783  -51.2079  -58.0501 O.2       8 UNK        -0.5547 
     35 CA         27.0925  -51.7007  -56.4469 C.3       7 UNK         0.0281 
     36 CB         28.0557  -52.7826  -56.9594 C.3       7 UNK        -0.1963 
     37 N          27.7776  -50.8493  -55.4668 N.am      7 UNK        -0.4444 
     38 C          27.1847  -49.8890  -54.7409 C.2       7 UNK         0.5104 
     39 O          25.9805  -49.6435  -54.7848 O.2       7 UNK        -0.5100 
     40 CA         28.0934  -49.0095  -53.8692 C.3       6 UNK         0.0396 
     41 CB         28.4233  -49.7016  -52.5371 C.3       6 UNK        -0.1801 
     42 N          29.3198  -48.6448  -54.5816 N.am      6 UNK        -0.4747 
     43 C          29.3721  -47.7334  -55.5663 C.2       6 UNK         0.5012 
     44 O          28.4115  -47.0369  -55.8976 O.2       6 UNK        -0.5003 
     45 CA         30.7015  -47.6060  -56.3381 C.3       5 UNK         0.0782 
     46 C46        31.5710  -46.4638  -55.7669 C.3       11 UNK        -0.0868 
     47 S47        33.1250  -46.2420  -56.7065 S.3       11 UNK        -0.2515 
     48 C48        32.7497  -44.8134  -57.7791 C.3       11 UNK         0.0199 
     49 N          31.4249  -48.8801  -56.3831 N.am      5 UNK        -0.4607 
     50 C          31.0659  -49.9183  -57.1485 C.2       4 UNK         0.5031 
     51 O          30.0817  -49.9083  -57.8855 O.2       4 UNK        -0.5119 
     52 CA         31.9119  -51.1989  -57.0394 C.3       4 UNK         0.0263 
     53 CB         33.0869  -51.1497  -58.0280 C.3       4 UNK        -0.1967 
     54 N          32.4191  -51.4473  -55.6871 N.am      4 UNK        -0.4237 
     55 C          31.6521  -51.6001  -54.5991 C.2       3 UNK         0.4908 
     56 O          30.4209  -51.5844  -54.6280 O.2       3 UNK        -0.5102 
     57 CA         32.3592  -51.7423  -53.2401 C.3       3 UNK         0.0241 
     58 CB         33.8733  -52.0412  -53.3399 C.3       3 UNK        -0.1971 
     59 N          32.1182  -50.5700  -52.3886 N.am      3 UNK        -0.4139 
     60 C          32.4240  -49.2924  -52.6640 C.2       2 UNK         0.5016 
     61 O          32.9430  -48.9237  -53.7212 O.2       2 UNK        -0.5319 
     62 CA         32.0938  -48.2462  -51.5856 C.3       2 UNK         0.0286 
     63 CB         32.2413  -48.7905  -50.1453 C.3       2 UNK        -0.1963 
     64 N          32.9571  -47.0824  -51.7811 N.am      2 UNK        -0.4790 
     65 C          32.7536  -45.8650  -51.2668 C.2       1 UNK         0.5024 
     66 O          31.7662  -45.5609  -50.5939 O.2       1 UNK        -0.4888 
     67 H67        35.8672  -45.9371  -48.2013 H         1 UNK         0.0892 
     68 H68        34.3824  -46.5572  -48.9124 H         1 UNK         0.0892 
     69 H69        35.7732  -46.1613  -49.9385 H         1 UNK         0.0892 
     70 H70        33.7874  -43.0631  -50.3872 H         1 UNK         0.3107 
     71 H71        34.7630  -45.3343  -51.8182 H         1 UNK         0.0773 
     72 H72        32.5624  -43.3180  -52.4943 H         1 UNK         0.0680 
     73 H73        33.1716  -44.5289  -53.5996 H         1 UNK         0.0680 
     74 H74        34.6257  -40.8194  -54.5987 H         1 UNK         0.0650 
     75 H75        33.3630  -40.8934  -53.3911 H         1 UNK         0.0650 
     76 H76        34.2864  -43.5010  -55.9646 H         1 UNK         0.1397 
     77 H77        30.4181  -43.3941  -57.8013 H         1 UNK         0.1363 
     78 H78        31.3723  -40.6275  -54.6710 H         1 UNK         0.1355 
     79 H79        29.4492  -40.2330  -56.2778 H         1 UNK         0.0707 
     80 H80        28.9588  -41.4902  -57.3767 H         1 UNK         0.0707 
     81 H81        28.8857  -44.1105  -56.0445 H         1 UNK         0.1034 
     82 H82        27.8478  -44.2408  -54.6695 H         1 UNK         0.1034 
     83 H83        25.9812  -43.1730  -56.1836 H         1 UNK         0.0482 
     84 H84        25.8604  -41.9793  -58.0861 H         1 UNK         0.3460 
     85 H85        26.7090  -42.3818  -59.5563 H         1 UNK         0.3460 
     86 H86        26.8534  -45.9698  -56.1680 H         1 UNK         0.2989 
     87 H87        24.6669  -47.2823  -55.3907 H         1 UNK         0.0559 
     88 H88        22.3804  -46.7714  -56.1658 H         1 UNK         0.0848 
     89 H89        22.8331  -48.3902  -56.6735 H         1 UNK         0.0848 
     90 H90        22.8331  -47.0654  -57.8370 H         1 UNK         0.0848 
     91 H91        25.9723  -48.5480  -56.6198 H         1 UNK         0.3144 
     92 H92        26.2978  -49.4209  -59.8911 H         1 UNK         0.0727 
     93 H93        27.6546  -47.3857  -60.3580 H         1 UNK         0.0790 
     94 H94        28.7039  -48.7510  -60.0147 H         1 UNK         0.0790 
     95 H95        28.4296  -47.5115  -58.7881 H         1 UNK         0.0790 
     96 H96        28.1634  -49.7578  -57.7417 H         1 UNK         0.3215 
     97 H97        26.2690  -52.1965  -55.9285 H         1 UNK         0.0863 
     98 H98        28.4693  -53.3692  -56.1387 H         1 UNK         0.0808 
     99 H99        28.8874  -52.3522  -57.5165 H         1 UNK         0.0808 
    100 H100       27.5417  -53.4749  -57.6275 H         1 UNK         0.0808 
    101 H101       28.7684  -51.0263  -55.3147 H         1 UNK         0.3118 
    102 H102       27.5447  -48.0938  -53.6372 H         1 UNK         0.0546 
    103 H103       29.0086  -50.6099  -52.6757 H         1 UNK         0.0828 
    104 H104       27.5092  -49.9855  -52.0138 H         1 UNK         0.0828 
    105 H105       28.9759  -49.0399  -51.8719 H         1 UNK         0.0828 
    106 H106       30.1311  -49.2270  -54.4263 H         1 UNK         0.3005 
    107 H107       30.4392  -47.3357  -57.3636 H         1 UNK         0.1257 
    108 H108       31.0097  -45.5292  -55.7498 H         1 UNK         0.0775 
    109 H109       31.8363  -46.6672  -54.7281 H         1 UNK         0.0775 
    110 H110       33.6191  -44.5956  -58.4007 H         1 UNK         0.0840 
    111 H111       31.9413  -45.0840  -58.4604 H         1 UNK         0.0840 
    112 H112       32.2258  -48.9624  -55.7665 H         1 UNK         0.2987 
    113 H113       31.2725  -52.0409  -57.3103 H         1 UNK         0.0785 
    114 H114       33.6477  -52.0845  -58.0264 H         1 UNK         0.0798 
    115 H115       33.7795  -50.3402  -57.7930 H         1 UNK         0.0798 
    116 H116       32.7317  -50.9888  -59.0470 H         1 UNK         0.0798 
    117 H117       33.4214  -51.4398  -55.5659 H         1 UNK         0.3079 
    118 H118       31.8880  -52.5921  -52.7439 H         1 UNK         0.0794 
    119 H119       34.0616  -52.9349  -53.9366 H         1 UNK         0.0786 
    120 H120       34.2966  -52.2260  -52.3525 H         1 UNK         0.0786 
    121 H121       34.4343  -51.2179  -53.7837 H         1 UNK         0.0786 
    122 H122       31.6749  -50.7673  -51.5026 H         1 UNK         0.3032 
    123 H123       31.0605  -47.9340  -51.7476 H         1 UNK         0.1094 
    124 H124       33.2432  -49.1824  -49.9648 H         1 UNK         0.0794 
    125 H125       32.0523  -48.0167  -49.4013 H         1 UNK         0.0794 
    126 H126       31.5285  -49.5899  -49.9411 H         1 UNK         0.0794 
    127 H127       33.7371  -47.2489  -52.4060 H         1 UNK         0.3016 
@<TRIPOS>BOND
     1    1    2 1    
     2    1   67 1    
     3    1   68 1    
     4    1   69 1    
     5    2    3 2    
     6    2    4 am   BACKBONE|DICT|INTERRES
     7    4    5 1    
     8    4   70 1    
     9    5    6 1    
    10    5   65 1    
    11    5   71 1    
    12    6    7 1    
    13    6   72 1    
    14    6   73 1    
    15    7    8 1    
    16    8    9 1    
    17    8   74 1    
    18    8   75 1    
    19    9   10 ar   
    20    9   14 ar   
    21   10   11 ar   
    22   10   76 1    
    23   11   12 ar   
    24   11   48 1    
    25   12   13 ar   
    26   12   77 1    
    27   13   14 ar   
    28   13   15 1    
    29   14   78 1    
    30   15   16 1    
    31   15   79 1    
    32   15   80 1    
    33   16   17 1    
    34   17   18 1    
    35   17   81 1    
    36   17   82 1    
    37   18   19 1    
    38   18   22 1    
    39   18   83 1    
    40   19   20 am   BACKBONE|DICT|INTERRES
    41   19   21 2    
    42   20   84 1    
    43   20   85 1    
    44   22   23 am   BACKBONE|DICT|INTERRES
    45   22   86 1    
    46   23   24 2    
    47   23   25 1    
    48   25   26 1    
    49   25   27 1    
    50   25   87 1    
    51   26   88 1    
    52   26   89 1    
    53   26   90 1    
    54   27   28 am   BACKBONE|DICT|INTERRES
    55   27   91 1    
    56   28   29 2    
    57   28   30 1    
    58   30   31 1    
    59   30   32 1    
    60   30   92 1    
    61   31   93 1    
    62   31   94 1    
    63   31   95 1    
    64   32   33 am   BACKBONE|DICT|INTERRES
    65   32   96 1    
    66   33   34 2    
    67   33   35 1    
    68   35   36 1    
    69   35   37 1    
    70   35   97 1    
    71   36   98 1    
    72   36   99 1    
    73   36  100 1    
    74   37   38 am   BACKBONE|DICT|INTERRES
    75   37  101 1    
    76   38   39 2    
    77   38   40 1    
    78   40   41 1    
    79   40   42 1    
    80   40  102 1    
    81   41  103 1    
    82   41  104 1    
    83   41  105 1    
    84   42   43 am   BACKBONE|DICT|INTERRES
    85   42  106 1    
    86   43   44 2    
    87   43   45 1    
    88   45   46 1    
    89   45   49 1    
    90   45  107 1    
    91   46   47 1    
    92   46  108 1    
    93   46  109 1    
    94   47   48 1    
    95   48  110 1    
    96   48  111 1    
    97   49   50 am   BACKBONE|DICT|INTERRES
    98   49  112 1    
    99   50   51 2    
   100   50   52 1    
   101   52   53 1    
   102   52   54 1    
   103   52  113 1    
   104   53  114 1    
   105   53  115 1    
   106   53  116 1    
   107   54   55 am   BACKBONE|DICT|INTERRES
   108   54  117 1    
   109   55   56 2    
   110   55   57 1    
   111   57   58 1    
   112   57   59 1    
   113   57  118 1    
   114   58  119 1    
   115   58  120 1    
   116   58  121 1    
   117   59   60 am   BACKBONE|DICT|INTERRES
   118   59  122 1    
   119   60   61 2    
   120   60   62 1    
   121   62   63 1    
   122   62   64 1    
   123   62  123 1    
   124   63  124 1    
   125   63  125 1    
   126   63  126 1    
   127   64   65 am   BACKBONE|DICT|INTERRES
   128   64  127 1    
   129   65   66 2    
@<TRIPOS>SUBSTRUCTURE
     1 UNK         1 GROUP             0       ****    0 ROOT    
