@<TRIPOS>MOLECULE
3R134
127   129    1
SMALL
USER_CHARGES


@<TRIPOS>ATOM
      1 CA         34.1754  -47.2976  -57.1609 C.3       0 UNK        -0.1968 
      2 C          33.7699  -46.9967  -55.7268 C.2       0 UNK         0.4852 
      3 O          32.9051  -47.6819  -55.1812 O.2       0 UNK        -0.5359 
      4 N          34.3986  -45.9907  -55.1047 N.am      1 UNK        -0.4300 
      5 CA         34.1381  -45.5240  -53.7357 C.3       1 UNK         0.0863 
      6 C6         35.0596  -44.3257  -53.3906 C.3       11 UNK        -0.0953 
      7 S7         34.4627  -43.3184  -51.9945 S.3       11 UNK        -0.2369 
      8 C8         33.5906  -41.9762  -52.8630 C.3       11 UNK         0.0226 
      9 C9         32.2779  -42.4607  -53.4586 C.ar      11 UNK        -0.0699 
     10 C10        31.1919  -42.7162  -52.6155 C.ar      11 UNK        -0.0804 
     11 C11        29.9804  -43.1702  -53.1397 C.ar      11 UNK        -0.0871 
     12 C12        29.8598  -43.3509  -54.5180 C.ar      11 UNK        -0.1008 
     13 C13        30.9400  -43.1269  -55.3731 C.ar      11 UNK        -0.0735 
     14 C14        32.1491  -42.6695  -54.8378 C.ar      11 UNK        -0.0945 
     15 C15        30.7982  -43.4232  -56.8610 C.3       11 UNK         0.0169 
     16 S16        29.6371  -42.2749  -57.6720 S.3       11 UNK        -0.2669 
     17 C17        28.4671  -43.4156  -58.4989 C.3       11 UNK        -0.0850 
     18 CA         27.2845  -43.8602  -57.5851 C.3       10 UNK         0.0855 
     19 C          26.1501  -42.8031  -57.3954 C.2       10 UNK         0.5543 
     20 N          26.4534  -41.5163  -57.4918 N.am      10 UNK        -0.7343 
     21 O          25.0028  -43.1354  -57.1035 O.2       10 UNK        -0.5027 
     22 N          26.8000  -45.2046  -57.9273 N.am      10 UNK        -0.4495 
     23 C          26.0670  -45.5371  -58.9989 C.2       10 UNK         0.4903 
     24 O          25.7692  -44.7462  -59.8952 O.2       10 UNK        -0.4860 
     25 CA         25.5897  -46.9976  -59.1147 C.3       9 UNK         0.0227 
     26 CB         26.2955  -47.6969  -60.2878 C.3       9 UNK        -0.1964 
     27 N          25.7787  -47.7723  -57.8796 N.am      9 UNK        -0.4231 
     28 C          24.9305  -47.7415  -56.8381 C.2       9 UNK         0.5014 
     29 O          23.8853  -47.0884  -56.8512 O.2       9 UNK        -0.5270 
     30 CA         25.2900  -48.5231  -55.5530 C.3       8 UNK         0.0284 
     31 CB         24.0597  -49.2052  -54.9173 C.3       8 UNK        -0.1977 
     32 N          26.4030  -49.4691  -55.6801 N.am      8 UNK        -0.4342 
     33 C          26.4763  -50.5742  -56.4343 C.2       8 UNK         0.5039 
     34 O          25.5484  -51.0074  -57.1201 O.2       8 UNK        -0.5547 
     35 CA         27.8536  -51.2724  -56.4530 C.3       7 UNK         0.0281 
     36 CB         27.9515  -52.3862  -57.5162 C.3       7 UNK        -0.1963 
     37 N          28.9602  -50.3164  -56.6062 N.am      7 UNK        -0.4444 
     38 C          29.0985  -49.3969  -57.5729 C.2       7 UNK         0.5104 
     39 O          28.3321  -49.2953  -58.5292 O.2       7 UNK        -0.5100 
     40 CA         30.2430  -48.3810  -57.4002 C.3       6 UNK         0.0396 
     41 CB         30.2255  -47.2722  -58.4742 C.3       6 UNK        -0.1801 
     42 N          30.2581  -47.7932  -56.0569 N.am      6 UNK        -0.4747 
     43 C          29.2731  -47.1190  -55.4433 C.2       6 UNK         0.5012 
     44 O          28.1992  -46.8351  -55.9780 O.2       6 UNK        -0.5003 
     45 CA         29.5327  -46.7425  -53.9667 C.3       5 UNK         0.0782 
     46 C46        28.3102  -46.0577  -53.2876 C.3       11 UNK        -0.0868 
     47 S47        28.7755  -45.2334  -51.7267 S.3       11 UNK        -0.2515 
     48 C48        28.8056  -43.4779  -52.2219 C.3       11 UNK         0.0199 
     49 N          30.0303  -47.8961  -53.2029 N.am      5 UNK        -0.4607 
     50 C          29.3726  -49.0488  -53.0100 C.2       4 UNK         0.5031 
     51 O          28.2582  -49.2895  -53.4792 O.2       4 UNK        -0.5119 
     52 CA         30.1061  -50.1211  -52.1816 C.3       4 UNK         0.0263 
     53 CB         29.3178  -51.4457  -52.0923 C.3       4 UNK        -0.1967 
     54 N          31.4724  -50.3732  -52.6572 N.am      4 UNK        -0.4237 
     55 C          31.8428  -50.7328  -53.8959 C.2       3 UNK         0.4908 
     56 O          31.0541  -50.8806  -54.8304 O.2       3 UNK        -0.5102 
     57 CA         33.3478  -50.9510  -54.1258 C.3       3 UNK         0.0241 
     58 CB         33.6999  -51.0824  -55.6205 C.3       3 UNK        -0.1971 
     59 N          34.1268  -49.8543  -53.5488 N.am      3 UNK        -0.4139 
     60 C          34.7212  -49.8689  -52.3482 C.2       2 UNK         0.5016 
     61 O          34.6405  -50.8166  -51.5664 O.2       2 UNK        -0.5319 
     62 CA         35.5405  -48.6308  -51.9353 C.3       2 UNK         0.0286 
     63 CB         37.0437  -48.9548  -51.9496 C.3       2 UNK        -0.1963 
     64 N          35.3031  -47.4590  -52.7829 N.am      2 UNK        -0.4790 
     65 C          34.2359  -46.6534  -52.6859 C.2       1 UNK         0.5024 
     66 O          33.3331  -46.8109  -51.8626 O.2       1 UNK        -0.4888 
     67 H67        34.6959  -48.2534  -57.2102 H         1 UNK         0.0892 
     68 H68        33.2933  -47.3584  -57.7963 H         1 UNK         0.0892 
     69 H69        34.8325  -46.5297  -57.5684 H         1 UNK         0.0892 
     70 H70        35.1090  -45.4789  -55.6083 H         1 UNK         0.3107 
     71 H71        33.1023  -45.1795  -53.7291 H         1 UNK         0.0773 
     72 H72        36.0732  -44.6629  -53.1657 H         1 UNK         0.0680 
     73 H73        35.1600  -43.6682  -54.2555 H         1 UNK         0.0680 
     74 H74        33.3875  -41.1735  -52.1527 H         1 UNK         0.0650 
     75 H75        34.2372  -41.5470  -53.6299 H         1 UNK         0.0650 
     76 H76        31.2974  -42.5744  -51.5483 H         1 UNK         0.1397 
     77 H77        28.9240  -43.6906  -54.9248 H         1 UNK         0.1363 
     78 H78        32.9930  -42.4906  -55.4898 H         1 UNK         0.1355 
     79 H79        30.4592  -44.4534  -56.9780 H         1 UNK         0.0707 
     80 H80        31.7646  -43.3608  -57.3634 H         1 UNK         0.0707 
     81 H81        29.0307  -44.2834  -58.8437 H         1 UNK         0.1034 
     82 H82        28.0891  -42.9451  -59.4084 H         1 UNK         0.1034 
     83 H83        27.6778  -44.0061  -56.5843 H         1 UNK         0.0482 
     84 H84        27.4038  -41.2340  -57.6832 H         1 UNK         0.3460 
     85 H85        25.7352  -40.8235  -57.3510 H         1 UNK         0.3460 
     86 H86        27.0256  -45.9268  -57.2493 H         1 UNK         0.2989 
     87 H87        24.5228  -46.9728  -59.3462 H         1 UNK         0.0559 
     88 H88        26.0403  -48.7557  -60.3375 H         1 UNK         0.0848 
     89 H89        26.0040  -47.2472  -61.2377 H         1 UNK         0.0848 
     90 H90        27.3800  -47.6130  -60.2158 H         1 UNK         0.0848 
     91 H91        26.6250  -48.3299  -57.8174 H         1 UNK         0.3144 
     92 H92        25.6414  -47.7685  -54.8478 H         1 UNK         0.0727 
     93 H93        24.3255  -49.7209  -53.9945 H         1 UNK         0.0790 
     94 H94        23.6074  -49.9329  -55.5914 H         1 UNK         0.0790 
     95 H95        23.2902  -48.4742  -54.6663 H         1 UNK         0.0790 
     96 H96        27.2180  -49.2425  -55.1129 H         1 UNK         0.3215 
     97 H97        27.9791  -51.7333  -55.4719 H         1 UNK         0.0863 
     98 H98        28.9243  -52.8769  -57.4864 H         1 UNK         0.0808 
     99 H99        27.8018  -51.9972  -58.5239 H         1 UNK         0.0808 
    100 H100       27.1955  -53.1540  -57.3479 H         1 UNK         0.0808 
    101 H101       29.6715  -50.3510  -55.8750 H         1 UNK         0.3118 
    102 H102       31.1750  -48.9384  -57.5045 H         1 UNK         0.0546 
    103 H103       29.2888  -46.7154  -58.4638 H         1 UNK         0.0828 
    104 H104       30.3376  -47.6964  -59.4725 H         1 UNK         0.0828 
    105 H105       31.0383  -46.5617  -58.3298 H         1 UNK         0.0828 
    106 H106       31.1241  -47.9432  -55.5403 H         1 UNK         0.3005 
    107 H107       30.3532  -46.0241  -53.9958 H         1 UNK         0.1257 
    108 H108       27.8358  -45.3271  -53.9418 H         1 UNK         0.0775 
    109 H109       27.5277  -46.7859  -53.0711 H         1 UNK         0.0775 
    110 H110       27.8638  -43.2126  -52.7050 H         1 UNK         0.0840 
    111 H111       28.8657  -42.8620  -51.3233 H         1 UNK         0.0840 
    112 H112       30.9568  -47.7960  -52.8108 H         1 UNK         0.2987 
    113 H113       30.1946  -49.7195  -51.1710 H         1 UNK         0.0785 
    114 H114       29.8330  -52.1726  -51.4645 H         1 UNK         0.0798 
    115 H115       29.1697  -51.8964  -53.0742 H         1 UNK         0.0798 
    116 H116       28.3307  -51.2846  -51.6569 H         1 UNK         0.0798 
    117 H117       32.2046  -50.2733  -51.9669 H         1 UNK         0.3079 
    118 H118       33.6125  -51.8925  -53.6400 H         1 UNK         0.0794 
    119 H119       33.2035  -51.9467  -56.0636 H         1 UNK         0.0786 
    120 H120       34.7718  -51.2159  -55.7667 H         1 UNK         0.0786 
    121 H121       33.3890  -50.2046  -56.1875 H         1 UNK         0.0786 
    122 H122       34.1272  -48.9921  -54.0808 H         1 UNK         0.3032 
    123 H123       35.2544  -48.3845  -50.9098 H         1 UNK         0.1094 
    124 H124       37.2677  -49.8013  -51.2987 H         1 UNK         0.0794 
    125 H125       37.3927  -49.2127  -52.9503 H         1 UNK         0.0794 
    126 H126       37.6352  -48.1111  -51.5933 H         1 UNK         0.0794 
    127 H127       35.9866  -47.2700  -53.5025 H         1 UNK         0.3016 
@<TRIPOS>BOND
     1    1    2 1    
     2    1   67 1    
     3    1   68 1    
     4    1   69 1    
     5    2    3 2    
     6    2    4 am   BACKBONE|DICT|INTERRES
     7    4    5 1    
     8    4   70 1    
     9    5    6 1    
    10    5   65 1    
    11    5   71 1    
    12    6    7 1    
    13    6   72 1    
    14    6   73 1    
    15    7    8 1    
    16    8    9 1    
    17    8   74 1    
    18    8   75 1    
    19    9   10 ar   
    20    9   14 ar   
    21   10   11 ar   
    22   10   76 1    
    23   11   12 ar   
    24   11   48 1    
    25   12   13 ar   
    26   12   77 1    
    27   13   14 ar   
    28   13   15 1    
    29   14   78 1    
    30   15   16 1    
    31   15   79 1    
    32   15   80 1    
    33   16   17 1    
    34   17   18 1    
    35   17   81 1    
    36   17   82 1    
    37   18   19 1    
    38   18   22 1    
    39   18   83 1    
    40   19   20 am   BACKBONE|DICT|INTERRES
    41   19   21 2    
    42   20   84 1    
    43   20   85 1    
    44   22   23 am   BACKBONE|DICT|INTERRES
    45   22   86 1    
    46   23   24 2    
    47   23   25 1    
    48   25   26 1    
    49   25   27 1    
    50   25   87 1    
    51   26   88 1    
    52   26   89 1    
    53   26   90 1    
    54   27   28 am   BACKBONE|DICT|INTERRES
    55   27   91 1    
    56   28   29 2    
    57   28   30 1    
    58   30   31 1    
    59   30   32 1    
    60   30   92 1    
    61   31   93 1    
    62   31   94 1    
    63   31   95 1    
    64   32   33 am   BACKBONE|DICT|INTERRES
    65   32   96 1    
    66   33   34 2    
    67   33   35 1    
    68   35   36 1    
    69   35   37 1    
    70   35   97 1    
    71   36   98 1    
    72   36   99 1    
    73   36  100 1    
    74   37   38 am   BACKBONE|DICT|INTERRES
    75   37  101 1    
    76   38   39 2    
    77   38   40 1    
    78   40   41 1    
    79   40   42 1    
    80   40  102 1    
    81   41  103 1    
    82   41  104 1    
    83   41  105 1    
    84   42   43 am   BACKBONE|DICT|INTERRES
    85   42  106 1    
    86   43   44 2    
    87   43   45 1    
    88   45   46 1    
    89   45   49 1    
    90   45  107 1    
    91   46   47 1    
    92   46  108 1    
    93   46  109 1    
    94   47   48 1    
    95   48  110 1    
    96   48  111 1    
    97   49   50 am   BACKBONE|DICT|INTERRES
    98   49  112 1    
    99   50   51 2    
   100   50   52 1    
   101   52   53 1    
   102   52   54 1    
   103   52  113 1    
   104   53  114 1    
   105   53  115 1    
   106   53  116 1    
   107   54   55 am   BACKBONE|DICT|INTERRES
   108   54  117 1    
   109   55   56 2    
   110   55   57 1    
   111   57   58 1    
   112   57   59 1    
   113   57  118 1    
   114   58  119 1    
   115   58  120 1    
   116   58  121 1    
   117   59   60 am   BACKBONE|DICT|INTERRES
   118   59  122 1    
   119   60   61 2    
   120   60   62 1    
   121   62   63 1    
   122   62   64 1    
   123   62  123 1    
   124   63  124 1    
   125   63  125 1    
   126   63  126 1    
   127   64   65 am   BACKBONE|DICT|INTERRES
   128   64  127 1    
   129   65   66 2    
@<TRIPOS>SUBSTRUCTURE
     1 UNK         1 GROUP             0       ****    0 ROOT    
