@<TRIPOS>MOLECULE
3R134
127   129    1
SMALL
USER_CHARGES


@<TRIPOS>ATOM
      1 CA         29.0252  -44.6313  -52.9253 C.3       0 UNK        -0.1968 
      2 C          30.2653  -45.2059  -52.2644 C.2       0 UNK         0.4852 
      3 O          30.2083  -45.6149  -51.1030 O.2       0 UNK        -0.5359 
      4 N          31.3853  -45.2556  -52.9977 N.am      1 UNK        -0.4300 
      5 CA         32.6525  -45.8465  -52.5557 C.3       1 UNK         0.0863 
      6 C6         33.8701  -45.2624  -53.3169 C.3       11 UNK        -0.0953 
      7 S7         34.0297  -43.4623  -53.0444 S.3       11 UNK        -0.2369 
      8 C8         34.0127  -42.7850  -54.7365 C.3       11 UNK         0.0226 
      9 C9         32.7293  -43.1102  -55.4879 C.ar      11 UNK        -0.0699 
     10 C10        32.7510  -44.0379  -56.5331 C.ar      11 UNK        -0.0804 
     11 C11        31.5789  -44.3645  -57.2204 C.ar      11 UNK        -0.0871 
     12 C12        30.3816  -43.7416  -56.8614 C.ar      11 UNK        -0.1008 
     13 C13        30.3479  -42.7913  -55.8360 C.ar      11 UNK        -0.0735 
     14 C14        31.5267  -42.4801  -55.1502 C.ar      11 UNK        -0.0945 
     15 C15        29.0291  -42.1304  -55.4570 C.3       11 UNK         0.0169 
     16 S16        28.3275  -41.1641  -56.8297 S.3       11 UNK        -0.2669 
     17 C17        26.5701  -41.0592  -56.3288 C.3       11 UNK        -0.0850 
     18 CA         25.5853  -41.6976  -57.3465 C.3       10 UNK         0.0855 
     19 C          25.4746  -40.8498  -58.6503 C.2       10 UNK         0.5543 
     20 N          25.8846  -41.3516  -59.8088 N.am      10 UNK        -0.7343 
     21 O          24.9954  -39.7192  -58.6068 O.2       10 UNK        -0.5027 
     22 N          25.8388  -43.1374  -57.5407 N.am      10 UNK        -0.4495 
     23 C          24.9888  -44.0003  -58.1124 C.2       10 UNK         0.4903 
     24 O          23.8501  -43.7009  -58.4722 O.2       10 UNK        -0.4860 
     25 CA         25.4858  -45.4399  -58.3390 C.3       9 UNK         0.0227 
     26 CB         26.7101  -45.4828  -59.2777 C.3       9 UNK        -0.1964 
     27 N          25.7256  -46.1931  -57.1029 N.am      9 UNK        -0.4231 
     28 C          26.6468  -45.9766  -56.1568 C.2       9 UNK         0.5014 
     29 O          27.4600  -45.0567  -56.1926 O.2       9 UNK        -0.5270 
     30 CA         26.6960  -46.9629  -54.9783 C.3       8 UNK         0.0284 
     31 CB         25.6086  -46.6500  -53.9326 C.3       8 UNK        -0.1977 
     32 N          26.6956  -48.3771  -55.3772 N.am      8 UNK        -0.4342 
     33 C          25.7187  -49.0978  -55.9501 C.2       8 UNK         0.5039 
     34 O          24.6074  -48.6366  -56.2170 O.2       8 UNK        -0.5547 
     35 CA         26.0282  -50.5572  -56.3456 C.3       7 UNK         0.0281 
     36 CB         25.8804  -50.7438  -57.8659 C.3       7 UNK        -0.1963 
     37 N          27.3660  -51.0054  -55.9491 N.am      7 UNK        -0.4444 
     38 C          27.7163  -51.4041  -54.7190 C.2       7 UNK         0.5104 
     39 O          26.9232  -51.5166  -53.7846 O.2       7 UNK        -0.5100 
     40 CA         29.2125  -51.6929  -54.4817 C.3       6 UNK         0.0396 
     41 CB         29.4937  -53.1994  -54.5855 C.3       6 UNK        -0.1801 
     42 N          30.1291  -50.9679  -55.3749 N.am      6 UNK        -0.4747 
     43 C          30.2172  -49.6339  -55.4814 C.2       6 UNK         0.5012 
     44 O          29.4983  -48.8581  -54.8505 O.2       6 UNK        -0.5003 
     45 CA         31.2928  -49.0879  -56.4337 C.3       5 UNK         0.0782 
     46 C46        31.1535  -47.5610  -56.6632 C.3       11 UNK        -0.0868 
     47 S47        32.3490  -46.9600  -57.9002 S.3       11 UNK        -0.2515 
     48 C48        31.6061  -45.3648  -58.3698 C.3       11 UNK         0.0199 
     49 N          32.6075  -49.4285  -55.8919 N.am      5 UNK        -0.4607 
     50 C          33.3550  -50.4734  -56.2615 C.2       4 UNK         0.5031 
     51 O          32.9825  -51.3248  -57.0690 O.2       4 UNK        -0.5119 
     52 CA         34.7411  -50.5959  -55.6152 C.3       4 UNK         0.0263 
     53 CB         35.7093  -49.5555  -56.2035 C.3       4 UNK        -0.1967 
     54 N          34.6574  -50.4213  -54.1646 N.am      4 UNK        -0.4237 
     55 C          35.1168  -51.2934  -53.2561 C.2       3 UNK         0.4908 
     56 O          35.7303  -52.3231  -53.5405 O.2       3 UNK        -0.5102 
     57 CA         34.8507  -50.9751  -51.7704 C.3       3 UNK         0.0241 
     58 CB         36.0807  -50.3048  -51.1368 C.3       3 UNK        -0.1971 
     59 N          33.6766  -50.1260  -51.5519 N.am      3 UNK        -0.4139 
     60 C          32.4152  -50.4716  -51.8428 C.2       2 UNK         0.5016 
     61 O          32.0864  -51.5972  -52.2170 O.2       2 UNK        -0.5319 
     62 CA         31.3346  -49.3819  -51.7252 C.3       2 UNK         0.0286 
     63 CB         30.4847  -49.6056  -50.4645 C.3       2 UNK        -0.1963 
     64 N          31.7935  -47.9856  -51.7449 N.am      2 UNK        -0.4790 
     65 C          32.5604  -47.3819  -52.6652 C.2       1 UNK         0.5024 
     66 O          33.1390  -47.9754  -53.5774 O.2       1 UNK        -0.4888 
     67 H67        28.9478  -43.5640  -52.7213 H         1 UNK         0.0892 
     68 H68        29.0557  -44.7838  -54.0032 H         1 UNK         0.0892 
     69 H69        28.1290  -45.1196  -52.5438 H         1 UNK         0.0892 
     70 H70        31.3829  -44.8905  -53.9404 H         1 UNK         0.3107 
     71 H71        32.7951  -45.6109  -51.4985 H         1 UNK         0.0773 
     72 H72        34.7930  -45.7299  -52.9689 H         1 UNK         0.0680 
     73 H73        33.8063  -45.4818  -54.3832 H         1 UNK         0.0680 
     74 H74        34.8843  -43.1600  -55.2753 H         1 UNK         0.0650 
     75 H75        34.1314  -41.7020  -54.6820 H         1 UNK         0.0650 
     76 H76        33.6806  -44.5168  -56.8093 H         1 UNK         0.1397 
     77 H77        29.4697  -43.9836  -57.3891 H         1 UNK         0.1363 
     78 H78        31.5111  -41.7562  -54.3467 H         1 UNK         0.1355 
     79 H79        29.1524  -41.4771  -54.5919 H         1 UNK         0.0707 
     80 H80        28.3204  -42.9011  -55.1608 H         1 UNK         0.0707 
     81 H81        26.4342  -41.5319  -55.3551 H         1 UNK         0.1034 
     82 H82        26.3228  -40.0081  -56.1677 H         1 UNK         0.1034 
     83 H83        24.5955  -41.6326  -56.8905 H         1 UNK         0.0482 
     84 H84        25.8042  -40.7970  -60.6462 H         1 UNK         0.3460 
     85 H85        26.2881  -42.2729  -59.8463 H         1 UNK         0.3460 
     86 H86        26.7295  -43.4957  -57.2120 H         1 UNK         0.2989 
     87 H87        24.6791  -45.9718  -58.8460 H         1 UNK         0.0559 
     88 H88        26.4906  -44.9901  -60.2255 H         1 UNK         0.0848 
     89 H89        26.9938  -46.5099  -59.5070 H         1 UNK         0.0848 
     90 H90        27.5813  -44.9866  -58.8497 H         1 UNK         0.0848 
     91 H91        25.1070  -46.9863  -56.9388 H         1 UNK         0.3144 
     92 H92        27.6607  -46.8107  -54.4926 H         1 UNK         0.0727 
     93 H93        24.6026  -46.7705  -54.3349 H         1 UNK         0.0790 
     94 H94        25.6939  -45.6206  -53.5821 H         1 UNK         0.0790 
     95 H95        25.7012  -47.2980  -53.0611 H         1 UNK         0.0790 
     96 H96        27.5918  -48.8332  -55.2287 H         1 UNK         0.3215 
     97 H97        25.2862  -51.1875  -55.8505 H         1 UNK         0.0863 
     98 H98        26.0482  -51.7808  -58.1573 H         1 UNK         0.0808 
     99 H99        26.5821  -50.1195  -58.4205 H         1 UNK         0.0808 
    100 H100       24.8760  -50.4773  -58.1981 H         1 UNK         0.0808 
    101 H101       28.0886  -50.9602  -56.6526 H         1 UNK         0.3118 
    102 H102       29.4378  -51.3806  -53.4606 H         1 UNK         0.0546 
    103 H103       29.3290  -53.5736  -55.5964 H         1 UNK         0.0828 
    104 H104       28.8430  -53.7657  -53.9175 H         1 UNK         0.0828 
    105 H105       30.5212  -53.4293  -54.3024 H         1 UNK         0.0828 
    106 H106       30.7786  -51.5307  -55.9093 H         1 UNK         0.3005 
    107 H107       31.1466  -49.5808  -57.3978 H         1 UNK         0.1257 
    108 H108       30.1466  -47.3149  -57.0071 H         1 UNK         0.0775 
    109 H109       31.3069  -47.0086  -55.7339 H         1 UNK         0.0775 
    110 H110       32.1825  -44.9376  -59.1913 H         1 UNK         0.0840 
    111 H111       30.6022  -45.5422  -58.7594 H         1 UNK         0.0840 
    112 H112       32.9499  -48.7965  -55.1732 H         1 UNK         0.2987 
    113 H113       35.1209  -51.5905  -55.8585 H         1 UNK         0.0785 
    114 H114       35.7748  -49.6518  -57.2881 H         1 UNK         0.0798 
    115 H115       36.7156  -49.6845  -55.8048 H         1 UNK         0.0798 
    116 H116       35.3915  -48.5351  -55.9843 H         1 UNK         0.0798 
    117 H117       34.1534  -49.6034  -53.8350 H         1 UNK         0.3079 
    118 H118       34.6745  -51.9245  -51.2603 H         1 UNK         0.0794 
    119 H119       35.9413  -50.1482  -50.0669 H         1 UNK         0.0786 
    120 H120       36.2945  -49.3380  -51.5945 H         1 UNK         0.0786 
    121 H121       36.9692  -50.9262  -51.2580 H         1 UNK         0.0786 
    122 H122       33.8457  -49.1801  -51.2427 H         1 UNK         0.3032 
    123 H123       30.6831  -49.5041  -52.5896 H         1 UNK         0.1094 
    124 H124       31.0668  -49.4534  -49.5547 H         1 UNK         0.0794 
    125 H125       29.6313  -48.9276  -50.4359 H         1 UNK         0.0794 
    126 H126       30.0879  -50.6216  -50.4331 H         1 UNK         0.0794 
    127 H127       31.3210  -47.3643  -51.0953 H         1 UNK         0.3016 
@<TRIPOS>BOND
     1    1    2 1    
     2    1   67 1    
     3    1   68 1    
     4    1   69 1    
     5    2    3 2    
     6    2    4 am   BACKBONE|DICT|INTERRES
     7    4    5 1    
     8    4   70 1    
     9    5    6 1    
    10    5   65 1    
    11    5   71 1    
    12    6    7 1    
    13    6   72 1    
    14    6   73 1    
    15    7    8 1    
    16    8    9 1    
    17    8   74 1    
    18    8   75 1    
    19    9   10 ar   
    20    9   14 ar   
    21   10   11 ar   
    22   10   76 1    
    23   11   12 ar   
    24   11   48 1    
    25   12   13 ar   
    26   12   77 1    
    27   13   14 ar   
    28   13   15 1    
    29   14   78 1    
    30   15   16 1    
    31   15   79 1    
    32   15   80 1    
    33   16   17 1    
    34   17   18 1    
    35   17   81 1    
    36   17   82 1    
    37   18   19 1    
    38   18   22 1    
    39   18   83 1    
    40   19   20 am   BACKBONE|DICT|INTERRES
    41   19   21 2    
    42   20   84 1    
    43   20   85 1    
    44   22   23 am   BACKBONE|DICT|INTERRES
    45   22   86 1    
    46   23   24 2    
    47   23   25 1    
    48   25   26 1    
    49   25   27 1    
    50   25   87 1    
    51   26   88 1    
    52   26   89 1    
    53   26   90 1    
    54   27   28 am   BACKBONE|DICT|INTERRES
    55   27   91 1    
    56   28   29 2    
    57   28   30 1    
    58   30   31 1    
    59   30   32 1    
    60   30   92 1    
    61   31   93 1    
    62   31   94 1    
    63   31   95 1    
    64   32   33 am   BACKBONE|DICT|INTERRES
    65   32   96 1    
    66   33   34 2    
    67   33   35 1    
    68   35   36 1    
    69   35   37 1    
    70   35   97 1    
    71   36   98 1    
    72   36   99 1    
    73   36  100 1    
    74   37   38 am   BACKBONE|DICT|INTERRES
    75   37  101 1    
    76   38   39 2    
    77   38   40 1    
    78   40   41 1    
    79   40   42 1    
    80   40  102 1    
    81   41  103 1    
    82   41  104 1    
    83   41  105 1    
    84   42   43 am   BACKBONE|DICT|INTERRES
    85   42  106 1    
    86   43   44 2    
    87   43   45 1    
    88   45   46 1    
    89   45   49 1    
    90   45  107 1    
    91   46   47 1    
    92   46  108 1    
    93   46  109 1    
    94   47   48 1    
    95   48  110 1    
    96   48  111 1    
    97   49   50 am   BACKBONE|DICT|INTERRES
    98   49  112 1    
    99   50   51 2    
   100   50   52 1    
   101   52   53 1    
   102   52   54 1    
   103   52  113 1    
   104   53  114 1    
   105   53  115 1    
   106   53  116 1    
   107   54   55 am   BACKBONE|DICT|INTERRES
   108   54  117 1    
   109   55   56 2    
   110   55   57 1    
   111   57   58 1    
   112   57   59 1    
   113   57  118 1    
   114   58  119 1    
   115   58  120 1    
   116   58  121 1    
   117   59   60 am   BACKBONE|DICT|INTERRES
   118   59  122 1    
   119   60   61 2    
   120   60   62 1    
   121   62   63 1    
   122   62   64 1    
   123   62  123 1    
   124   63  124 1    
   125   63  125 1    
   126   63  126 1    
   127   64   65 am   BACKBONE|DICT|INTERRES
   128   64  127 1    
   129   65   66 2    
@<TRIPOS>SUBSTRUCTURE
     1 UNK         1 GROUP             0       ****    0 ROOT    
