@<TRIPOS>MOLECULE
3R134
127   129    1
SMALL
USER_CHARGES


@<TRIPOS>ATOM
      1 CA         38.2830  -47.4348  -56.0796 C.3       0 UNK        -0.1968 
      2 C          36.8226  -47.0080  -56.0495 C.2       0 UNK         0.4852 
      3 O          35.9856  -47.6550  -56.6795 O.2       0 UNK        -0.5359 
      4 N          36.5150  -45.9215  -55.3273 N.am      1 UNK        -0.4300 
      5 CA         35.1562  -45.3885  -55.1561 C.3       1 UNK         0.0863 
      6 C6         35.1866  -43.8760  -54.8006 C.3       11 UNK        -0.0953 
      7 S7         33.9285  -42.9172  -55.7100 S.3       11 UNK        -0.2369 
      8 C8         33.3464  -41.7487  -54.4420 C.3       11 UNK         0.0226 
      9 C9         32.0480  -42.2143  -53.8013 C.ar      11 UNK        -0.0699 
     10 C10        32.0650  -43.1136  -52.7316 C.ar      11 UNK        -0.0804 
     11 C11        30.8696  -43.5280  -52.1356 C.ar      11 UNK        -0.0871 
     12 C12        29.6531  -43.0289  -52.6078 C.ar      11 UNK        -0.1008 
     13 C13        29.6234  -42.1448  -53.6890 C.ar      11 UNK        -0.0735 
     14 C14        30.8237  -41.7364  -54.2782 C.ar      11 UNK        -0.0945 
     15 C15        28.2920  -41.6500  -54.2346 C.3       11 UNK         0.0169 
     16 S16        27.3671  -42.9839  -55.0604 S.3       11 UNK        -0.2669 
     17 C17        28.5722  -43.5325  -56.3180 C.3       11 UNK        -0.0850 
     18 CA         27.9010  -44.1391  -57.5739 C.3       10 UNK         0.0855 
     19 C          28.9776  -44.4673  -58.6421 C.2       10 UNK         0.5543 
     20 N          29.3994  -45.7168  -58.7899 N.am      10 UNK        -0.7343 
     21 O          29.4318  -43.5727  -59.3506 O.2       10 UNK        -0.5027 
     22 N          27.0617  -45.3036  -57.2463 N.am      10 UNK        -0.4495 
     23 C          25.7853  -45.4527  -57.6189 C.2       10 UNK         0.4903 
     24 O          25.1338  -44.5898  -58.2114 O.2       10 UNK        -0.4860 
     25 CA         25.1369  -46.8117  -57.2864 C.3       9 UNK         0.0227 
     26 CB         23.7084  -46.9565  -57.8524 C.3       9 UNK        -0.1964 
     27 N          25.9670  -47.9519  -57.6924 N.am      9 UNK        -0.4231 
     28 C          26.4452  -48.2311  -58.9170 C.2       9 UNK         0.5014 
     29 O          26.2034  -47.5590  -59.9201 O.2       9 UNK        -0.5270 
     30 CA         27.3448  -49.4739  -59.0576 C.3       8 UNK         0.0284 
     31 CB         28.7308  -49.1089  -59.6174 C.3       8 UNK        -0.1977 
     32 N          27.5226  -50.1726  -57.7820 N.am      8 UNK        -0.4342 
     33 C          27.1068  -51.4183  -57.5230 C.2       8 UNK         0.5039 
     34 O          26.5762  -52.1582  -58.3524 O.2       8 UNK        -0.5547 
     35 CA         27.3012  -51.9215  -56.0833 C.3       7 UNK         0.0281 
     36 CB         28.6714  -52.6025  -55.9316 C.3       7 UNK        -0.1963 
     37 N          27.1552  -50.8694  -55.0694 N.am      7 UNK        -0.4444 
     38 C          25.9979  -50.2484  -54.7892 C.2       7 UNK         0.5104 
     39 O          24.9522  -50.4523  -55.4045 O.2       7 UNK        -0.5100 
     40 CA         25.9919  -49.2156  -53.6546 C.3       6 UNK         0.0396 
     41 CB         25.7608  -49.9086  -52.3023 C.3       6 UNK        -0.1801 
     42 N          27.2394  -48.4549  -53.5992 N.am      6 UNK        -0.4747 
     43 C          27.3347  -47.1177  -53.6649 C.2       6 UNK         0.5012 
     44 O          26.3760  -46.3609  -53.8124 O.2       6 UNK        -0.5003 
     45 CA         28.7575  -46.5344  -53.5246 C.3       5 UNK         0.0782 
     46 C46        29.1115  -46.4965  -52.0075 C.3       11 UNK        -0.0868 
     47 S47        30.8747  -46.2342  -51.6094 S.3       11 UNK        -0.2515 
     48 C48        30.8951  -44.5247  -50.9900 C.3       11 UNK         0.0199 
     49 N          29.7537  -47.2802  -54.3010 N.am      5 UNK        -0.4607 
     50 C          29.6718  -47.7437  -55.5569 C.2       4 UNK         0.5031 
     51 O          28.7779  -47.4513  -56.3538 O.2       4 UNK        -0.5119 
     52 CA         30.7232  -48.7918  -55.9714 C.3       4 UNK         0.0263 
     53 CB         31.7795  -48.1650  -56.8937 C.3       4 UNK        -0.1967 
     54 N          31.3920  -49.4500  -54.8407 N.am      4 UNK        -0.4237 
     55 C          30.8062  -50.1191  -53.8357 C.2       3 UNK         0.4908 
     56 O          29.5926  -50.3294  -53.7749 O.2       3 UNK        -0.5102 
     57 CA         31.6981  -50.5435  -52.6550 C.3       3 UNK         0.0241 
     58 CB         32.3954  -51.8889  -52.9346 C.3       3 UNK        -0.1971 
     59 N          32.6442  -49.4990  -52.2209 N.am      3 UNK        -0.4139 
     60 C          33.7036  -49.0080  -52.8809 C.2       2 UNK         0.5016 
     61 O          34.0995  -49.4443  -53.9647 O.2       2 UNK        -0.5319 
     62 CA         34.4289  -47.8176  -52.2284 C.3       2 UNK         0.0286 
     63 CB         35.5362  -48.3148  -51.2855 C.3       2 UNK        -0.1963 
     64 N          35.0197  -46.9190  -53.2248 N.am      2 UNK        -0.4790 
     65 C          34.3335  -46.2032  -54.1316 C.2       1 UNK         0.5024 
     66 O          33.1049  -46.1709  -54.1813 O.2       1 UNK        -0.4888 
     67 H67        38.6526  -47.4343  -57.1047 H         1 UNK         0.0892 
     68 H68        38.9160  -46.7708  -55.4912 H         1 UNK         0.0892 
     69 H69        38.3865  -48.4436  -55.6806 H         1 UNK         0.0892 
     70 H70        37.2496  -45.4219  -54.8458 H         1 UNK         0.3107 
     71 H71        34.6491  -45.5077  -56.1165 H         1 UNK         0.0773 
     72 H72        35.0932  -43.7121  -53.7253 H         1 UNK         0.0680 
     73 H73        36.1469  -43.4359  -55.0742 H         1 UNK         0.0680 
     74 H74        34.1123  -41.5927  -53.6811 H         1 UNK         0.0650 
     75 H75        33.1971  -40.7770  -54.9151 H         1 UNK         0.0650 
     76 H76        33.0073  -43.5020  -52.3710 H         1 UNK         0.1397 
     77 H77        28.7246  -43.3481  -52.1548 H         1 UNK         0.1363 
     78 H78        30.8063  -41.0511  -55.1146 H         1 UNK         0.1355 
     79 H79        27.6896  -41.2529  -53.4163 H         1 UNK         0.0707 
     80 H80        28.4383  -40.8273  -54.9364 H         1 UNK         0.0707 
     81 H81        29.1834  -42.6744  -56.6051 H         1 UNK         0.1034 
     82 H82        29.2563  -44.2499  -55.8610 H         1 UNK         0.1034 
     83 H83        27.2801  -43.3546  -58.0105 H         1 UNK         0.0482 
     84 H84        30.0904  -45.9208  -59.4933 H         1 UNK         0.3460 
     85 H85        29.0634  -46.4421  -58.1727 H         1 UNK         0.3460 
     86 H86        27.5359  -46.0792  -56.7937 H         1 UNK         0.2989 
     87 H87        25.0639  -46.8574  -56.1990 H         1 UNK         0.0559 
     88 H88        23.0566  -46.1677  -57.4748 H         1 UNK         0.0848 
     89 H89        23.2631  -47.9088  -57.5646 H         1 UNK         0.0848 
     90 H90        23.6963  -46.8955  -58.9412 H         1 UNK         0.0848 
     91 H91        26.2056  -48.5911  -56.9505 H         1 UNK         0.3144 
     92 H92        26.8510  -50.1228  -59.7838 H         1 UNK         0.0727 
     93 H93        29.3016  -48.5023  -58.9168 H         1 UNK         0.0790 
     94 H94        28.6481  -48.5469  -60.5487 H         1 UNK         0.0790 
     95 H95        29.3148  -50.0040  -59.8321 H         1 UNK         0.0790 
     96 H96        27.9620  -49.6466  -57.0395 H         1 UNK         0.3215 
     97 H97        26.5299  -52.6713  -55.8935 H         1 UNK         0.0863 
     98 H98        28.8048  -53.0086  -54.9287 H         1 UNK         0.0808 
     99 H99        29.4928  -51.9124  -56.1250 H         1 UNK         0.0808 
    100 H100       28.7730  -53.4321  -56.6327 H         1 UNK         0.0808 
    101 H101       27.9840  -50.6673  -54.5129 H         1 UNK         0.3118 
    102 H102       25.1487  -48.5464  -53.8382 H         1 UNK         0.0546 
    103 H103       26.5734  -50.5923  -52.0531 H         1 UNK         0.0828 
    104 H104       24.8364  -50.4879  -52.3121 H         1 UNK         0.0828 
    105 H105       25.6771  -49.1806  -51.4953 H         1 UNK         0.0828 
    106 H106       28.0961  -48.9909  -53.5028 H         1 UNK         0.3005 
    107 H107       28.7439  -45.5148  -53.9109 H         1 UNK         0.1257 
    108 H108       28.5067  -45.7415  -51.5025 H         1 UNK         0.0775 
    109 H109       28.8509  -47.4426  -51.5276 H         1 UNK         0.0775 
    110 H110       30.0589  -44.3587  -50.3092 H         1 UNK         0.0840 
    111 H111       31.7993  -44.3792  -50.3971 H         1 UNK         0.0840 
    112 H112       30.5826  -47.5251  -53.7782 H         1 UNK         0.2987 
    113 H113       30.2013  -49.5679  -56.5324 H         1 UNK         0.0785 
    114 H114       31.3188  -47.7043  -57.7676 H         1 UNK         0.0798 
    115 H115       32.4838  -48.9134  -57.2573 H         1 UNK         0.0798 
    116 H116       32.3516  -47.3897  -56.3848 H         1 UNK         0.0798 
    117 H117       32.4020  -49.3368  -54.7793 H         1 UNK         0.3079 
    118 H118       31.0291  -50.6985  -51.8069 H         1 UNK         0.0794 
    119 H119       32.9889  -52.2124  -52.0795 H         1 UNK         0.0786 
    120 H120       33.0548  -51.8406  -53.8014 H         1 UNK         0.0786 
    121 H121       31.6607  -52.6703  -53.1338 H         1 UNK         0.0786 
    122 H122       32.4014  -49.0565  -51.3445 H         1 UNK         0.3032 
    123 H123       33.7051  -47.2398  -51.6500 H         1 UNK         0.1094 
    124 H124       36.2945  -48.8877  -51.8213 H         1 UNK         0.0794 
    125 H125       36.0336  -47.4848  -50.7832 H         1 UNK         0.0794 
    126 H126       35.1280  -48.9627  -50.5085 H         1 UNK         0.0794 
    127 H127       36.0264  -46.9172  -53.2876 H         1 UNK         0.3016 
@<TRIPOS>BOND
     1    1    2 1    
     2    1   67 1    
     3    1   68 1    
     4    1   69 1    
     5    2    3 2    
     6    2    4 am   BACKBONE|DICT|INTERRES
     7    4    5 1    
     8    4   70 1    
     9    5    6 1    
    10    5   65 1    
    11    5   71 1    
    12    6    7 1    
    13    6   72 1    
    14    6   73 1    
    15    7    8 1    
    16    8    9 1    
    17    8   74 1    
    18    8   75 1    
    19    9   10 ar   
    20    9   14 ar   
    21   10   11 ar   
    22   10   76 1    
    23   11   12 ar   
    24   11   48 1    
    25   12   13 ar   
    26   12   77 1    
    27   13   14 ar   
    28   13   15 1    
    29   14   78 1    
    30   15   16 1    
    31   15   79 1    
    32   15   80 1    
    33   16   17 1    
    34   17   18 1    
    35   17   81 1    
    36   17   82 1    
    37   18   19 1    
    38   18   22 1    
    39   18   83 1    
    40   19   20 am   BACKBONE|DICT|INTERRES
    41   19   21 2    
    42   20   84 1    
    43   20   85 1    
    44   22   23 am   BACKBONE|DICT|INTERRES
    45   22   86 1    
    46   23   24 2    
    47   23   25 1    
    48   25   26 1    
    49   25   27 1    
    50   25   87 1    
    51   26   88 1    
    52   26   89 1    
    53   26   90 1    
    54   27   28 am   BACKBONE|DICT|INTERRES
    55   27   91 1    
    56   28   29 2    
    57   28   30 1    
    58   30   31 1    
    59   30   32 1    
    60   30   92 1    
    61   31   93 1    
    62   31   94 1    
    63   31   95 1    
    64   32   33 am   BACKBONE|DICT|INTERRES
    65   32   96 1    
    66   33   34 2    
    67   33   35 1    
    68   35   36 1    
    69   35   37 1    
    70   35   97 1    
    71   36   98 1    
    72   36   99 1    
    73   36  100 1    
    74   37   38 am   BACKBONE|DICT|INTERRES
    75   37  101 1    
    76   38   39 2    
    77   38   40 1    
    78   40   41 1    
    79   40   42 1    
    80   40  102 1    
    81   41  103 1    
    82   41  104 1    
    83   41  105 1    
    84   42   43 am   BACKBONE|DICT|INTERRES
    85   42  106 1    
    86   43   44 2    
    87   43   45 1    
    88   45   46 1    
    89   45   49 1    
    90   45  107 1    
    91   46   47 1    
    92   46  108 1    
    93   46  109 1    
    94   47   48 1    
    95   48  110 1    
    96   48  111 1    
    97   49   50 am   BACKBONE|DICT|INTERRES
    98   49  112 1    
    99   50   51 2    
   100   50   52 1    
   101   52   53 1    
   102   52   54 1    
   103   52  113 1    
   104   53  114 1    
   105   53  115 1    
   106   53  116 1    
   107   54   55 am   BACKBONE|DICT|INTERRES
   108   54  117 1    
   109   55   56 2    
   110   55   57 1    
   111   57   58 1    
   112   57   59 1    
   113   57  118 1    
   114   58  119 1    
   115   58  120 1    
   116   58  121 1    
   117   59   60 am   BACKBONE|DICT|INTERRES
   118   59  122 1    
   119   60   61 2    
   120   60   62 1    
   121   62   63 1    
   122   62   64 1    
   123   62  123 1    
   124   63  124 1    
   125   63  125 1    
   126   63  126 1    
   127   64   65 am   BACKBONE|DICT|INTERRES
   128   64  127 1    
   129   65   66 2    
@<TRIPOS>SUBSTRUCTURE
     1 UNK         1 GROUP             0       ****    0 ROOT    
