@<TRIPOS>MOLECULE
3R134
127   129    1
SMALL
USER_CHARGES


@<TRIPOS>ATOM
      1 CA         29.2268  -44.8457  -50.7349 C.3       0 UNK        -0.1968 
      2 C          30.6908  -45.1015  -50.4065 C.2       0 UNK         0.4852 
      3 O          31.0251  -45.3350  -49.2436 O.2       0 UNK        -0.5359 
      4 N          31.5620  -45.0537  -51.4217 N.am      1 UNK        -0.4300 
      5 CA         32.9967  -45.3448  -51.3163 C.3       1 UNK         0.0863 
      6 C6         33.7816  -44.7352  -52.5046 C.3       11 UNK        -0.0953 
      7 S7         33.6904  -42.9135  -52.4724 S.3       11 UNK        -0.2369 
      8 C8         34.0855  -42.4745  -54.1954 C.3       11 UNK         0.0226 
      9 C9         33.0005  -42.8706  -55.1915 C.ar      11 UNK        -0.0699 
     10 C10        33.3444  -43.5822  -56.3460 C.ar      11 UNK        -0.0804 
     11 C11        32.3725  -43.9158  -57.2943 C.ar      11 UNK        -0.0871 
     12 C12        31.0465  -43.5335  -57.0758 C.ar      11 UNK        -0.1008 
     13 C13        30.6827  -42.8444  -55.9185 C.ar      11 UNK        -0.0735 
     14 C14        31.6657  -42.5002  -54.9858 C.ar      11 UNK        -0.0945 
     15 C15        29.2223  -42.5027  -55.6752 C.3       11 UNK         0.0169 
     16 S16        28.4733  -43.7351  -54.5721 S.3       11 UNK        -0.2669 
     17 C17        26.6889  -43.4633  -54.8387 C.3       11 UNK        -0.0850 
     18 CA         25.9757  -44.7752  -55.2790 C.3       10 UNK         0.0855 
     19 C          24.4262  -44.7342  -55.0953 C.2       10 UNK         0.5543 
     20 N          23.6591  -45.5281  -55.8330 N.am      10 UNK        -0.7343 
     21 O          23.9086  -43.9975  -54.2589 O.2       10 UNK        -0.5027 
     22 N          26.4308  -45.2703  -56.5944 N.am      10 UNK        -0.4495 
     23 C          26.1571  -44.7094  -57.7812 C.2       10 UNK         0.4903 
     24 O          25.5231  -43.6618  -57.9116 O.2       10 UNK        -0.4860 
     25 CA         26.6448  -45.4307  -59.0479 C.3       9 UNK         0.0227 
     26 CB         27.9717  -44.8269  -59.5322 C.3       9 UNK        -0.1964 
     27 N          26.8238  -46.8737  -58.8538 N.am      9 UNK        -0.4231 
     28 C          26.2224  -47.8266  -59.5780 C.2       9 UNK         0.5014 
     29 O          25.3818  -47.5997  -60.4499 O.2       9 UNK        -0.5270 
     30 CA         26.6446  -49.2848  -59.3205 C.3       8 UNK         0.0284 
     31 CB         27.9239  -49.6215  -60.1037 C.3       8 UNK        -0.1977 
     32 N          26.8304  -49.6267  -57.9078 N.am      8 UNK        -0.4342 
     33 C          25.8307  -49.7308  -57.0195 C.2       8 UNK         0.5039 
     34 O          24.6563  -49.4603  -57.2715 O.2       8 UNK        -0.5547 
     35 CA         26.2003  -50.2331  -55.6165 C.3       7 UNK         0.0281 
     36 CB         26.4322  -51.7538  -55.6183 C.3       7 UNK        -0.1963 
     37 N          27.3949  -49.5480  -55.1260 N.am      7 UNK        -0.4444 
     38 C          27.3622  -48.4415  -54.3725 C.2       7 UNK         0.5104 
     39 O          26.3283  -47.9766  -53.8939 O.2       7 UNK        -0.5100 
     40 CA         28.6942  -47.7142  -54.1077 C.3       6 UNK         0.0396 
     41 CB         29.1998  -48.0325  -52.6958 C.3       6 UNK        -0.1801 
     42 N          29.7489  -48.0051  -55.0855 N.am      6 UNK        -0.4747 
     43 C          29.6982  -47.6568  -56.3826 C.2       6 UNK         0.5012 
     44 O          28.7625  -47.0242  -56.8704 O.2       6 UNK        -0.5003 
     45 CA         30.8139  -48.1885  -57.3139 C.3       5 UNK         0.0782 
     46 C46        31.9596  -47.1631  -57.5072 C.3       11 UNK        -0.0868 
     47 S47        31.6547  -46.0721  -58.9330 S.3       11 UNK        -0.2515 
     48 C48        32.7631  -44.6724  -58.5596 C.3       11 UNK         0.0199 
     49 N          31.3372  -49.4872  -56.8898 N.am      5 UNK        -0.4607 
     50 C          30.6214  -50.6015  -56.6914 C.2       4 UNK         0.5031 
     51 O          29.4204  -50.6890  -56.9533 O.2       4 UNK        -0.5119 
     52 CA         31.3522  -51.7916  -56.0370 C.3       4 UNK         0.0263 
     53 CB         31.5999  -52.8986  -57.0735 C.3       4 UNK        -0.1967 
     54 N          32.6259  -51.4366  -55.3880 N.am      4 UNK        -0.4237 
     55 C          32.7617  -50.5761  -54.3672 C.2       3 UNK         0.4908 
     56 O          31.8129  -49.9988  -53.8297 O.2       3 UNK        -0.5102 
     57 CA         34.1972  -50.2431  -53.9424 C.3       3 UNK         0.0241 
     58 CB         34.8818  -49.3501  -54.9980 C.3       3 UNK        -0.1971 
     59 N          34.1598  -49.5509  -52.6579 N.am      3 UNK        -0.4139 
     60 C          35.1779  -49.3939  -51.8069 C.2       2 UNK         0.5016 
     61 O          36.3160  -49.8160  -52.0234 O.2       2 UNK        -0.5319 
     62 CA         34.8722  -48.6273  -50.5013 C.3       2 UNK         0.0286 
     63 CB         36.0650  -48.6223  -49.5260 C.3       2 UNK        -0.1963 
     64 N          34.4535  -47.2395  -50.7372 N.am      2 UNK        -0.4790 
     65 C          33.2483  -46.8629  -51.1854 C.2       1 UNK         0.5024 
     66 O          32.3685  -47.6701  -51.4903 O.2       1 UNK        -0.4888 
     67 H67        28.6053  -45.6423  -50.3269 H         1 UNK         0.0892 
     68 H68        29.0532  -44.8026  -51.8096 H         1 UNK         0.0892 
     69 H69        28.9027  -43.9013  -50.2988 H         1 UNK         0.0892 
     70 H70        31.2283  -44.8605  -52.3546 H         1 UNK         0.3107 
     71 H71        33.3644  -44.8860  -50.3955 H         1 UNK         0.0773 
     72 H72        34.8365  -45.0131  -52.4680 H         1 UNK         0.0680 
     73 H73        33.3944  -45.1089  -53.4546 H         1 UNK         0.0680 
     74 H74        35.0432  -42.9265  -54.4583 H         1 UNK         0.0650 
     75 H75        34.2290  -41.3950  -54.2533 H         1 UNK         0.0650 
     76 H76        34.3747  -43.8654  -56.5133 H         1 UNK         0.1397 
     77 H77        30.2900  -43.7881  -57.8022 H         1 UNK         0.1363 
     78 H78        31.3887  -41.9566  -54.0929 H         1 UNK         0.1355 
     79 H79        28.6785  -42.4778  -56.6213 H         1 UNK         0.0707 
     80 H80        29.1319  -41.5097  -55.2326 H         1 UNK         0.0707 
     81 H81        26.5185  -42.6665  -55.5638 H         1 UNK         0.1034 
     82 H82        26.2854  -43.0984  -53.8927 H         1 UNK         0.1034 
     83 H83        26.2864  -45.5362  -54.5674 H         1 UNK         0.0482 
     84 H84        22.6596  -45.5074  -55.7068 H         1 UNK         0.3460 
     85 H85        24.0723  -46.1535  -56.5062 H         1 UNK         0.3460 
     86 H86        27.0418  -46.0778  -56.5715 H         1 UNK         0.2989 
     87 H87        25.8932  -45.2422  -59.8170 H         1 UNK         0.0559 
     88 H88        28.2540  -45.2238  -60.5073 H         1 UNK         0.0848 
     89 H89        28.7802  -45.0495  -58.8379 H         1 UNK         0.0848 
     90 H90        27.9049  -43.7423  -59.6282 H         1 UNK         0.0848 
     91 H91        27.5137  -47.1430  -58.1550 H         1 UNK         0.3144 
     92 H92        25.8469  -49.9246  -59.7048 H         1 UNK         0.0727 
     93 H93        28.2182  -50.6616  -59.9608 H         1 UNK         0.0790 
     94 H94        28.7600  -48.9908  -59.8055 H         1 UNK         0.0790 
     95 H95        27.7734  -49.4718  -61.1738 H         1 UNK         0.0790 
     96 H96        27.7613  -49.9185  -57.6232 H         1 UNK         0.3215 
     97 H97        25.3544  -50.0308  -54.9554 H         1 UNK         0.0863 
     98 H98        26.6647  -52.1185  -54.6178 H         1 UNK         0.0808 
     99 H99        27.2487  -52.0471  -56.2784 H         1 UNK         0.0808 
    100 H100       25.5385  -52.2810  -55.9550 H         1 UNK         0.0808 
    101 H101       28.2839  -49.8618  -55.4984 H         1 UNK         0.3118 
    102 H102       28.4882  -46.6444  -54.1541 H         1 UNK         0.0546 
    103 H103       29.5064  -49.0745  -52.5973 H         1 UNK         0.0828 
    104 H104       28.4294  -47.8438  -51.9470 H         1 UNK         0.0828 
    105 H105       30.0510  -47.4051  -52.4438 H         1 UNK         0.0828 
    106 H106       30.5276  -48.5659  -54.7543 H         1 UNK         0.3005 
    107 H107       30.3453  -48.3715  -58.2815 H         1 UNK         0.1257 
    108 H108       32.1297  -46.5765  -56.6020 H         1 UNK         0.0775 
    109 H109       32.9046  -47.6698  -57.7104 H         1 UNK         0.0775 
    110 H110       33.7858  -45.0463  -58.4902 H         1 UNK         0.0840 
    111 H111       32.7451  -43.9776  -59.4003 H         1 UNK         0.0840 
    112 H112       32.3158  -49.5154  -56.6495 H         1 UNK         0.2987 
    113 H113       30.6872  -52.1854  -55.2655 H         1 UNK         0.0785 
    114 H114       32.2768  -52.5694  -57.8630 H         1 UNK         0.0798 
    115 H115       30.6669  -53.2028  -57.5507 H         1 UNK         0.0798 
    116 H116       32.0281  -53.7880  -56.6109 H         1 UNK         0.0798 
    117 H117       33.4575  -51.8604  -55.7755 H         1 UNK         0.3079 
    118 H118       34.7501  -51.1778  -53.8276 H         1 UNK         0.0794 
    119 H119       34.3528  -48.4048  -55.1280 H         1 UNK         0.0786 
    120 H120       34.9240  -49.8410  -55.9708 H         1 UNK         0.0786 
    121 H121       35.9092  -49.1177  -54.7171 H         1 UNK         0.0786 
    122 H122       33.2504  -49.1625  -52.4111 H         1 UNK         0.3032 
    123 H123       34.0518  -49.1575  -50.0113 H         1 UNK         0.1094 
    124 H124       35.8033  -48.1465  -48.5806 H         1 UNK         0.0794 
    125 H125       36.3855  -49.6392  -49.2951 H         1 UNK         0.0794 
    126 H126       36.9252  -48.0955  -49.9410 H         1 UNK         0.0794 
    127 H127       35.1406  -46.5267  -50.5358 H         1 UNK         0.3016 
@<TRIPOS>BOND
     1    1    2 1    
     2    1   67 1    
     3    1   68 1    
     4    1   69 1    
     5    2    3 2    
     6    2    4 am   BACKBONE|DICT|INTERRES
     7    4    5 1    
     8    4   70 1    
     9    5    6 1    
    10    5   65 1    
    11    5   71 1    
    12    6    7 1    
    13    6   72 1    
    14    6   73 1    
    15    7    8 1    
    16    8    9 1    
    17    8   74 1    
    18    8   75 1    
    19    9   10 ar   
    20    9   14 ar   
    21   10   11 ar   
    22   10   76 1    
    23   11   12 ar   
    24   11   48 1    
    25   12   13 ar   
    26   12   77 1    
    27   13   14 ar   
    28   13   15 1    
    29   14   78 1    
    30   15   16 1    
    31   15   79 1    
    32   15   80 1    
    33   16   17 1    
    34   17   18 1    
    35   17   81 1    
    36   17   82 1    
    37   18   19 1    
    38   18   22 1    
    39   18   83 1    
    40   19   20 am   BACKBONE|DICT|INTERRES
    41   19   21 2    
    42   20   84 1    
    43   20   85 1    
    44   22   23 am   BACKBONE|DICT|INTERRES
    45   22   86 1    
    46   23   24 2    
    47   23   25 1    
    48   25   26 1    
    49   25   27 1    
    50   25   87 1    
    51   26   88 1    
    52   26   89 1    
    53   26   90 1    
    54   27   28 am   BACKBONE|DICT|INTERRES
    55   27   91 1    
    56   28   29 2    
    57   28   30 1    
    58   30   31 1    
    59   30   32 1    
    60   30   92 1    
    61   31   93 1    
    62   31   94 1    
    63   31   95 1    
    64   32   33 am   BACKBONE|DICT|INTERRES
    65   32   96 1    
    66   33   34 2    
    67   33   35 1    
    68   35   36 1    
    69   35   37 1    
    70   35   97 1    
    71   36   98 1    
    72   36   99 1    
    73   36  100 1    
    74   37   38 am   BACKBONE|DICT|INTERRES
    75   37  101 1    
    76   38   39 2    
    77   38   40 1    
    78   40   41 1    
    79   40   42 1    
    80   40  102 1    
    81   41  103 1    
    82   41  104 1    
    83   41  105 1    
    84   42   43 am   BACKBONE|DICT|INTERRES
    85   42  106 1    
    86   43   44 2    
    87   43   45 1    
    88   45   46 1    
    89   45   49 1    
    90   45  107 1    
    91   46   47 1    
    92   46  108 1    
    93   46  109 1    
    94   47   48 1    
    95   48  110 1    
    96   48  111 1    
    97   49   50 am   BACKBONE|DICT|INTERRES
    98   49  112 1    
    99   50   51 2    
   100   50   52 1    
   101   52   53 1    
   102   52   54 1    
   103   52  113 1    
   104   53  114 1    
   105   53  115 1    
   106   53  116 1    
   107   54   55 am   BACKBONE|DICT|INTERRES
   108   54  117 1    
   109   55   56 2    
   110   55   57 1    
   111   57   58 1    
   112   57   59 1    
   113   57  118 1    
   114   58  119 1    
   115   58  120 1    
   116   58  121 1    
   117   59   60 am   BACKBONE|DICT|INTERRES
   118   59  122 1    
   119   60   61 2    
   120   60   62 1    
   121   62   63 1    
   122   62   64 1    
   123   62  123 1    
   124   63  124 1    
   125   63  125 1    
   126   63  126 1    
   127   64   65 am   BACKBONE|DICT|INTERRES
   128   64  127 1    
   129   65   66 2    
@<TRIPOS>SUBSTRUCTURE
     1 UNK         1 GROUP             0       ****    0 ROOT    
