@<TRIPOS>MOLECULE
3R134
127   129    1
SMALL
USER_CHARGES


@<TRIPOS>ATOM
      1 CA         33.1580  -45.9725  -48.7202 C.3       0 UNK        -0.1968 
      2 C          33.4476  -46.1786  -50.1989 C.2       0 UNK         0.4852 
      3 O          33.3724  -47.3074  -50.6826 O.2       0 UNK        -0.5359 
      4 N          33.7631  -45.0979  -50.9259 N.am      1 UNK        -0.4300 
      5 CA         34.0821  -45.1041  -52.3606 C.3       1 UNK         0.0863 
      6 C6         34.5738  -43.7087  -52.8215 C.3       11 UNK        -0.0953 
      7 S7         35.7331  -43.7972  -54.2232 S.3       11 UNK        -0.2369 
      8 C8         34.9652  -42.6486  -55.4078 C.3       11 UNK         0.0226 
      9 C9         33.7318  -43.2448  -56.0695 C.ar      11 UNK        -0.0699 
     10 C10        33.8757  -44.2757  -57.0002 C.ar      11 UNK        -0.0804 
     11 C11        32.7591  -44.8157  -57.6418 C.ar      11 UNK        -0.0871 
     12 C12        31.4904  -44.3046  -57.3578 C.ar      11 UNK        -0.1008 
     13 C13        31.3260  -43.2720  -56.4238 C.ar      11 UNK        -0.0735 
     14 C14        32.4554  -42.7507  -55.7825 C.ar      11 UNK        -0.0945 
     15 C15        29.9558  -42.6628  -56.1262 C.3       11 UNK         0.0169 
     16 S16        28.5699  -43.8379  -56.2721 S.3       11 UNK        -0.2669 
     17 C17        27.1392  -42.7766  -55.8715 C.3       11 UNK        -0.0850 
     18 CA         26.0846  -43.5136  -55.0043 C.3       10 UNK         0.0855 
     19 C          24.9238  -42.5603  -54.5976 C.2       10 UNK         0.5543 
     20 N          23.6765  -42.8346  -54.9602 N.am      10 UNK        -0.7343 
     21 O          25.1609  -41.5547  -53.9330 O.2       10 UNK        -0.5027 
     22 N          25.6535  -44.7647  -55.6466 N.am      10 UNK        -0.4495 
     23 C          25.1598  -45.8407  -55.0297 C.2       10 UNK         0.4903 
     24 O          24.9734  -45.9056  -53.8146 O.2       10 UNK        -0.4860 
     25 CA         24.8240  -47.0632  -55.9066 C.3       9 UNK         0.0227 
     26 CB         23.3956  -46.9586  -56.4750 C.3       9 UNK        -0.1964 
     27 N          25.8028  -47.3693  -56.9642 N.am      9 UNK        -0.4231 
     28 C          26.1280  -46.6556  -58.0567 C.2       9 UNK         0.5014 
     29 O          25.6259  -45.5657  -58.3353 O.2       9 UNK        -0.5270 
     30 CA         27.2097  -47.2271  -58.9956 C.3       8 UNK         0.0284 
     31 CB         28.5452  -46.4947  -58.7883 C.3       8 UNK        -0.1977 
     32 N          27.4323  -48.6628  -58.8301 N.am      8 UNK        -0.4342 
     33 C          26.5808  -49.6264  -59.2044 C.2       8 UNK         0.5039 
     34 O          25.5360  -49.4174  -59.8217 O.2       8 UNK        -0.5547 
     35 CA         26.9468  -51.0665  -58.8016 C.3       7 UNK         0.0281 
     36 CB         27.5614  -51.8190  -59.9927 C.3       7 UNK        -0.1963 
     37 N          27.8626  -51.1508  -57.6576 N.am      7 UNK        -0.4444 
     38 C          27.6023  -50.7388  -56.4103 C.2       7 UNK         0.5104 
     39 O          26.5547  -50.1827  -56.0802 O.2       7 UNK        -0.5100 
     40 CA         28.7095  -50.9477  -55.3658 C.3       6 UNK         0.0396 
     41 CB         28.9630  -52.4446  -55.0982 C.3       6 UNK        -0.1801 
     42 N          29.9533  -50.2276  -55.6672 N.am      6 UNK        -0.4747 
     43 C          30.8261  -50.4242  -56.6669 C.2       6 UNK         0.5012 
     44 O          30.6677  -51.2589  -57.5592 O.2       6 UNK        -0.5003 
     45 CA         32.1036  -49.5610  -56.6643 C.3       5 UNK         0.0782 
     46 C46        31.8777  -48.1969  -57.3597 C.3       11 UNK        -0.0868 
     47 S47        33.4693  -47.4818  -57.8814 S.3       11 UNK        -0.2515 
     48 C48        32.9390  -45.9274  -58.6641 C.3       11 UNK         0.0199 
     49 N          32.6484  -49.4129  -55.3096 N.am      5 UNK        -0.4607 
     50 C          33.2896  -50.3891  -54.6513 C.2       4 UNK         0.5031 
     51 O          33.5786  -51.4767  -55.1516 O.2       4 UNK        -0.5119 
     52 CA         33.6497  -50.1239  -53.1792 C.3       4 UNK         0.0263 
     53 CB         34.9588  -49.3260  -53.0675 C.3       4 UNK        -0.1967 
     54 N          32.5810  -49.4316  -52.4562 N.am      4 UNK        -0.4237 
     55 C          31.3711  -49.9523  -52.2031 C.2       3 UNK         0.4908 
     56 O          31.0563  -51.1130  -52.4637 O.2       3 UNK        -0.5102 
     57 CA         30.3241  -49.0228  -51.5685 C.3       3 UNK         0.0241 
     58 CB         30.3786  -49.1038  -50.0343 C.3       3 UNK        -0.1971 
     59 N          30.4648  -47.6284  -51.9945 N.am      3 UNK        -0.4139 
     60 C          30.1925  -47.1754  -53.2267 C.2       2 UNK         0.5016 
     61 O          29.7888  -47.8847  -54.1464 O.2       2 UNK        -0.5319 
     62 CA         30.4410  -45.6805  -53.4797 C.3       2 UNK         0.0286 
     63 CB         29.2620  -44.8518  -52.9465 C.3       2 UNK        -0.1963 
     64 N          31.6859  -45.2026  -52.8749 N.am      2 UNK        -0.4790 
     65 C          32.9108  -45.6271  -53.2223 C.2       1 UNK         0.5024 
     66 O          33.1210  -46.4456  -54.1182 O.2       1 UNK        -0.4888 
     67 H67        33.8533  -46.5576  -48.1191 H         1 UNK         0.0892 
     68 H68        32.1459  -46.3019  -48.4868 H         1 UNK         0.0892 
     69 H69        33.2517  -44.9272  -48.4267 H         1 UNK         0.0892 
     70 H70        33.8084  -44.1975  -50.4702 H         1 UNK         0.3107 
     71 H71        34.9033  -45.8149  -52.4790 H         1 UNK         0.0773 
     72 H72        35.1230  -43.2190  -52.0157 H         1 UNK         0.0680 
     73 H73        33.7375  -43.0452  -53.0490 H         1 UNK         0.0680 
     74 H74        34.7282  -41.7097  -54.9050 H         1 UNK         0.0650 
     75 H75        35.6970  -42.4034  -56.1788 H         1 UNK         0.0650 
     76 H76        34.8609  -44.6624  -57.2230 H         1 UNK         0.1397 
     77 H77        30.6328  -44.7067  -57.8766 H         1 UNK         0.1363 
     78 H78        32.3427  -41.9444  -55.0706 H         1 UNK         0.1355 
     79 H79        29.7892  -41.8321  -56.8130 H         1 UNK         0.0707 
     80 H80        29.9474  -42.2456  -55.1180 H         1 UNK         0.0707 
     81 H81        26.6934  -42.4335  -56.8070 H         1 UNK         0.1034 
     82 H82        27.4923  -41.8816  -55.3556 H         1 UNK         0.1034 
     83 H83        26.5714  -43.7840  -54.0663 H         1 UNK         0.0482 
     84 H84        23.4767  -43.6588  -55.5034 H         1 UNK         0.3460 
     85 H85        22.9318  -42.2124  -54.6880 H         1 UNK         0.3460 
     86 H86        25.7475  -44.8104  -56.6584 H         1 UNK         0.2989 
     87 H87        24.8445  -47.9300  -55.2439 H         1 UNK         0.0559 
     88 H88        23.1217  -47.8601  -57.0233 H         1 UNK         0.0848 
     89 H89        23.2836  -46.1097  -57.1500 H         1 UNK         0.0848 
     90 H90        22.6663  -46.8330  -55.6736 H         1 UNK         0.0848 
     91 H91        26.2794  -48.2550  -56.8302 H         1 UNK         0.3144 
     92 H92        26.8773  -47.0503  -60.0207 H         1 UNK         0.0727 
     93 H93        29.3057  -46.8437  -59.4870 H         1 UNK         0.0790 
     94 H94        28.9275  -46.6301  -57.7753 H         1 UNK         0.0790 
     95 H95        28.4274  -45.4225  -58.9513 H         1 UNK         0.0790 
     96 H96        28.2691  -48.9428  -58.3408 H         1 UNK         0.3215 
     97 H97        26.0184  -51.5673  -58.5188 H         1 UNK         0.0863 
     98 H98        27.7390  -52.8672  -59.7512 H         1 UNK         0.0808 
     99 H99        28.5111  -51.3796  -60.3008 H         1 UNK         0.0808 
    100 H100       26.8951  -51.7958  -60.8563 H         1 UNK         0.0808 
    101 H101       28.7958  -51.5159  -57.8326 H         1 UNK         0.3118 
    102 H102       28.3461  -50.5128  -54.4331 H         1 UNK         0.0546 
    103 H103       28.0429  -52.9456  -54.7948 H         1 UNK         0.0828 
    104 H104       29.6859  -52.5841  -54.2949 H         1 UNK         0.0828 
    105 H105       29.3404  -52.9670  -55.9774 H         1 UNK         0.0828 
    106 H106       30.1271  -49.4400  -55.0433 H         1 UNK         0.3005 
    107 H107       32.8327  -50.1201  -57.2565 H         1 UNK         0.1257 
    108 H108       31.3576  -47.4977  -56.7012 H         1 UNK         0.0775 
    109 H109       31.2596  -48.3082  -58.2529 H         1 UNK         0.0775 
    110 H110       33.6981  -45.6232  -59.3862 H         1 UNK         0.0840 
    111 H111       32.0249  -46.0923  -59.2366 H         1 UNK         0.0840 
    112 H112       32.4982  -48.5235  -54.8488 H         1 UNK         0.2987 
    113 H113       33.8014  -51.0914  -52.6958 H         1 UNK         0.0785 
    114 H114       35.7800  -49.8571  -53.5504 H         1 UNK         0.0798 
    115 H115       35.2402  -49.1695  -52.0259 H         1 UNK         0.0798 
    116 H116       34.8805  -48.3481  -53.5426 H         1 UNK         0.0798 
    117 H117       32.7914  -48.5024  -52.1013 H         1 UNK         0.3079 
    118 H118       29.3406  -49.3717  -51.8915 H         1 UNK         0.0794 
    119 H119       31.3395  -48.7681  -49.6432 H         1 UNK         0.0786 
    120 H120       30.2311  -50.1299  -49.6946 H         1 UNK         0.0786 
    121 H121       29.5977  -48.4967  -49.5760 H         1 UNK         0.0786 
    122 H122       30.8421  -46.9817  -51.3180 H         1 UNK         0.3032 
    123 H123       30.5126  -45.5359  -54.5605 H         1 UNK         0.1094 
    124 H124       29.1677  -44.9231  -51.8625 H         1 UNK         0.0794 
    125 H125       29.3656  -43.7986  -53.2067 H         1 UNK         0.0794 
    126 H126       28.3231  -45.2013  -53.3780 H         1 UNK         0.0794 
    127 H127       31.6037  -44.5371  -52.1202 H         1 UNK         0.3016 
@<TRIPOS>BOND
     1    1    2 1    
     2    1   67 1    
     3    1   68 1    
     4    1   69 1    
     5    2    3 2    
     6    2    4 am   BACKBONE|DICT|INTERRES
     7    4    5 1    
     8    4   70 1    
     9    5    6 1    
    10    5   65 1    
    11    5   71 1    
    12    6    7 1    
    13    6   72 1    
    14    6   73 1    
    15    7    8 1    
    16    8    9 1    
    17    8   74 1    
    18    8   75 1    
    19    9   10 ar   
    20    9   14 ar   
    21   10   11 ar   
    22   10   76 1    
    23   11   12 ar   
    24   11   48 1    
    25   12   13 ar   
    26   12   77 1    
    27   13   14 ar   
    28   13   15 1    
    29   14   78 1    
    30   15   16 1    
    31   15   79 1    
    32   15   80 1    
    33   16   17 1    
    34   17   18 1    
    35   17   81 1    
    36   17   82 1    
    37   18   19 1    
    38   18   22 1    
    39   18   83 1    
    40   19   20 am   BACKBONE|DICT|INTERRES
    41   19   21 2    
    42   20   84 1    
    43   20   85 1    
    44   22   23 am   BACKBONE|DICT|INTERRES
    45   22   86 1    
    46   23   24 2    
    47   23   25 1    
    48   25   26 1    
    49   25   27 1    
    50   25   87 1    
    51   26   88 1    
    52   26   89 1    
    53   26   90 1    
    54   27   28 am   BACKBONE|DICT|INTERRES
    55   27   91 1    
    56   28   29 2    
    57   28   30 1    
    58   30   31 1    
    59   30   32 1    
    60   30   92 1    
    61   31   93 1    
    62   31   94 1    
    63   31   95 1    
    64   32   33 am   BACKBONE|DICT|INTERRES
    65   32   96 1    
    66   33   34 2    
    67   33   35 1    
    68   35   36 1    
    69   35   37 1    
    70   35   97 1    
    71   36   98 1    
    72   36   99 1    
    73   36  100 1    
    74   37   38 am   BACKBONE|DICT|INTERRES
    75   37  101 1    
    76   38   39 2    
    77   38   40 1    
    78   40   41 1    
    79   40   42 1    
    80   40  102 1    
    81   41  103 1    
    82   41  104 1    
    83   41  105 1    
    84   42   43 am   BACKBONE|DICT|INTERRES
    85   42  106 1    
    86   43   44 2    
    87   43   45 1    
    88   45   46 1    
    89   45   49 1    
    90   45  107 1    
    91   46   47 1    
    92   46  108 1    
    93   46  109 1    
    94   47   48 1    
    95   48  110 1    
    96   48  111 1    
    97   49   50 am   BACKBONE|DICT|INTERRES
    98   49  112 1    
    99   50   51 2    
   100   50   52 1    
   101   52   53 1    
   102   52   54 1    
   103   52  113 1    
   104   53  114 1    
   105   53  115 1    
   106   53  116 1    
   107   54   55 am   BACKBONE|DICT|INTERRES
   108   54  117 1    
   109   55   56 2    
   110   55   57 1    
   111   57   58 1    
   112   57   59 1    
   113   57  118 1    
   114   58  119 1    
   115   58  120 1    
   116   58  121 1    
   117   59   60 am   BACKBONE|DICT|INTERRES
   118   59  122 1    
   119   60   61 2    
   120   60   62 1    
   121   62   63 1    
   122   62   64 1    
   123   62  123 1    
   124   63  124 1    
   125   63  125 1    
   126   63  126 1    
   127   64   65 am   BACKBONE|DICT|INTERRES
   128   64  127 1    
   129   65   66 2    
@<TRIPOS>SUBSTRUCTURE
     1 UNK         1 GROUP             0       ****    0 ROOT    
