@<TRIPOS>MOLECULE
3R134
127   129    1
SMALL
USER_CHARGES


@<TRIPOS>ATOM
      1 CA         33.3797  -47.9840  -59.4096 C.3       0 UNK        -0.1968 
      2 C          33.1863  -48.3383  -57.9436 C.2       0 UNK         0.4852 
      3 O          32.9261  -49.4974  -57.6225 O.2       0 UNK        -0.5359 
      4 N          33.3289  -47.3542  -57.0466 N.am      1 UNK        -0.4300 
      5 CA         33.1156  -47.4406  -55.5941 C.3       1 UNK         0.0863 
      6 C6         32.7850  -46.0518  -54.9827 C.3       11 UNK        -0.0953 
      7 S7         33.9310  -44.7215  -55.4952 S.3       11 UNK        -0.2369 
      8 C8         33.5163  -43.3820  -54.3253 C.3       11 UNK         0.0226 
      9 C9         32.0209  -43.0932  -54.2231 C.ar      11 UNK        -0.0699 
     10 C10        31.4262  -42.9664  -52.9654 C.ar      11 UNK        -0.0804 
     11 C11        30.0498  -42.7575  -52.8464 C.ar      11 UNK        -0.0871 
     12 C12        29.2623  -42.6736  -53.9988 C.ar      11 UNK        -0.1008 
     13 C13        29.8465  -42.7749  -55.2657 C.ar      11 UNK        -0.0735 
     14 C14        31.2275  -42.9688  -55.3688 C.ar      11 UNK        -0.0945 
     15 C15        28.9975  -42.7649  -56.5300 C.3       11 UNK         0.0169 
     16 S16        27.7485  -41.4407  -56.5911 S.3       11 UNK        -0.2669 
     17 C17        27.1207  -41.6817  -58.2913 C.3       11 UNK        -0.0850 
     18 CA         25.8394  -42.5550  -58.3877 C.3       10 UNK         0.0855 
     19 C          25.3783  -42.6559  -59.8726 C.2       10 UNK         0.5543 
     20 N          25.5295  -43.7962  -60.5386 N.am      10 UNK        -0.7343 
     21 O          24.8789  -41.6798  -60.4263 O.2       10 UNK        -0.5027 
     22 N          26.0039  -43.8591  -57.7255 N.am      10 UNK        -0.4495 
     23 C          25.0128  -44.7129  -57.4413 C.2       10 UNK         0.4903 
     24 O          23.8206  -44.4413  -57.5917 O.2       10 UNK        -0.4860 
     25 CA         25.4096  -46.1003  -56.8919 C.3       9 UNK         0.0227 
     26 CB         24.4953  -47.2182  -57.4346 C.3       9 UNK        -0.1964 
     27 N          26.8229  -46.4667  -57.0724 N.am      9 UNK        -0.4231 
     28 C          27.5046  -46.6074  -58.2211 C.2       9 UNK         0.5014 
     29 O          27.0377  -46.3495  -59.3317 O.2       9 UNK        -0.5270 
     30 CA         28.9562  -47.1036  -58.1110 C.3       8 UNK         0.0284 
     31 CB         29.9094  -45.9468  -57.7751 C.3       8 UNK        -0.1977 
     32 N          29.0901  -48.1536  -57.0982 N.am      8 UNK        -0.4342 
     33 C          29.0931  -49.4681  -57.3613 C.2       8 UNK         0.5039 
     34 O          29.0676  -49.9403  -58.4988 O.2       8 UNK        -0.5547 
     35 CA         29.0966  -50.4284  -56.1567 C.3       7 UNK         0.0281 
     36 CB         30.5180  -50.8968  -55.8170 C.3       7 UNK        -0.1963 
     37 N          28.4765  -49.8459  -54.9644 N.am      7 UNK        -0.4444 
     38 C          27.1524  -49.6831  -54.8253 C.2       7 UNK         0.5104 
     39 O          26.3293  -50.0706  -55.6545 O.2       7 UNK        -0.5100 
     40 CA         26.6440  -48.9595  -53.5650 C.3       6 UNK         0.0396 
     41 CB         26.1153  -49.9787  -52.5434 C.3       6 UNK        -0.1801 
     42 N          27.6273  -48.0946  -52.9079 N.am      6 UNK        -0.4747 
     43 C          28.2231  -47.0241  -53.4527 C.2       6 UNK         0.5012 
     44 O          28.0676  -46.6692  -54.6214 O.2       6 UNK        -0.5003 
     45 CA         29.1908  -46.2478  -52.5420 C.3       5 UNK         0.0782 
     46 C46        28.3839  -45.2660  -51.6544 C.3       11 UNK        -0.0868 
     47 S47        29.4447  -44.2379  -50.5847 S.3       11 UNK        -0.2515 
     48 C48        29.4162  -42.6459  -51.4680 C.3       11 UNK         0.0199 
     49 N          30.0629  -47.1188  -51.7406 N.am      5 UNK        -0.4607 
     50 C          30.8255  -48.1257  -52.1888 C.2       4 UNK         0.5031 
     51 O          30.8428  -48.4989  -53.3635 O.2       4 UNK        -0.5119 
     52 CA         31.7315  -48.7945  -51.1371 C.3       4 UNK         0.0263 
     53 CB         30.9489  -49.2269  -49.8764 C.3       4 UNK        -0.1967 
     54 N          32.5225  -49.9083  -51.6762 N.am      4 UNK        -0.4237 
     55 C          32.0868  -51.1031  -52.1057 C.2       3 UNK         0.4908 
     56 O          30.9099  -51.4677  -52.0832 O.2       3 UNK        -0.5102 
     57 CA         33.1725  -52.0332  -52.6702 C.3       3 UNK         0.0241 
     58 CB         32.6170  -53.3556  -53.2332 C.3       3 UNK        -0.1971 
     59 N          33.9044  -51.3262  -53.7200 N.am      3 UNK        -0.4139 
     60 C          35.2151  -51.0541  -53.7113 C.2       2 UNK         0.5016 
     61 O          35.9928  -51.4355  -52.8361 O.2       2 UNK        -0.5319 
     62 CA         35.7477  -50.1873  -54.8658 C.3       2 UNK         0.0286 
     63 CB         36.3205  -51.0716  -55.9847 C.3       2 UNK        -0.1963 
     64 N          34.7299  -49.2975  -55.4327 N.am      2 UNK        -0.4790 
     65 C          34.2235  -48.2119  -54.8323 C.2       1 UNK         0.5024 
     66 O          34.5925  -47.8362  -53.7182 O.2       1 UNK        -0.4888 
     67 H67        34.1933  -48.5718  -59.8336 H         1 UNK         0.0892 
     68 H68        33.6140  -46.9286  -59.5473 H         1 UNK         0.0892 
     69 H69        32.4708  -48.2054  -59.9683 H         1 UNK         0.0892 
     70 H70        33.6021  -46.4346  -57.3650 H         1 UNK         0.3107 
     71 H71        32.2197  -48.0454  -55.4594 H         1 UNK         0.0773 
     72 H72        32.7305  -46.0919  -53.8932 H         1 UNK         0.0680 
     73 H73        31.7842  -45.7635  -55.3042 H         1 UNK         0.0680 
     74 H74        33.9218  -43.6505  -53.3485 H         1 UNK         0.0650 
     75 H75        34.0314  -42.4720  -54.6350 H         1 UNK         0.0650 
     76 H76        32.0293  -43.0528  -52.0716 H         1 UNK         0.1397 
     77 H77        28.1927  -42.5394  -53.9123 H         1 UNK         0.1363 
     78 H78        31.6847  -43.0676  -56.3438 H         1 UNK         0.1355 
     79 H79        28.4861  -43.7233  -56.5926 H         1 UNK         0.0707 
     80 H80        29.6368  -42.6859  -57.4108 H         1 UNK         0.0707 
     81 H81        27.9133  -42.0965  -58.9170 H         1 UNK         0.1034 
     82 H82        26.9199  -40.6891  -58.6999 H         1 UNK         0.1034 
     83 H83        25.0451  -42.0287  -57.8549 H         1 UNK         0.0482 
     84 H84        25.2272  -43.8515  -61.4982 H         1 UNK         0.3460 
     85 H85        25.9496  -44.6032  -60.0939 H         1 UNK         0.3460 
     86 H86        26.9501  -44.1688  -57.5778 H         1 UNK         0.2989 
     87 H87        25.2569  -46.0465  -55.8131 H         1 UNK         0.0559 
     88 H88        24.5543  -47.2955  -58.5208 H         1 UNK         0.0848 
     89 H89        23.4514  -47.0350  -57.1778 H         1 UNK         0.0848 
     90 H90        24.7630  -48.1879  -57.0150 H         1 UNK         0.0848 
     91 H91        27.3253  -46.6225  -56.1982 H         1 UNK         0.3144 
     92 H92        29.2410  -47.4904  -59.0919 H         1 UNK         0.0727 
     93 H93        30.9470  -46.2469  -57.9060 H         1 UNK         0.0790 
     94 H94        29.7920  -45.6116  -56.7448 H         1 UNK         0.0790 
     95 H95        29.7417  -45.0922  -58.4318 H         1 UNK         0.0790 
     96 H96        29.0681  -47.8604  -56.1292 H         1 UNK         0.3215 
     97 H97        28.5196  -51.3099  -56.4453 H         1 UNK         0.0863 
     98 H98        30.5036  -51.6261  -55.0085 H         1 UNK         0.0808 
     99 H99        31.1544  -50.0693  -55.5097 H         1 UNK         0.0808 
    100 H100       30.9911  -51.3695  -56.6789 H         1 UNK         0.0808 
    101 H101       29.0990  -49.4970  -54.2431 H         1 UNK         0.3118 
    102 H102       25.8114  -48.3250  -53.8760 H         1 UNK         0.0546 
    103 H103       25.3558  -50.6223  -52.9900 H         1 UNK         0.0828 
    104 H104       25.6536  -49.4840  -51.6888 H         1 UNK         0.0828 
    105 H105       26.9110  -50.6250  -52.1704 H         1 UNK         0.0828 
    106 H106       27.8566  -48.3222  -51.9509 H         1 UNK         0.3005 
    107 H107       29.8415  -45.6669  -53.1997 H         1 UNK         0.1257 
    108 H108       27.6976  -45.8132  -51.0050 H         1 UNK         0.0775 
    109 H109       27.7572  -44.6155  -52.2679 H         1 UNK         0.0775 
    110 H110       28.3883  -42.2859  -51.5357 H         1 UNK         0.0840 
    111 H111       29.9604  -41.9049  -50.8808 H         1 UNK         0.0840 
    112 H112       30.1296  -46.8663  -50.7652 H         1 UNK         0.2987 
    113 H113       32.4588  -48.0384  -50.8372 H         1 UNK         0.0785 
    114 H114       30.1078  -49.8764  -50.1217 H         1 UNK         0.0798 
    115 H115       30.5480  -48.3674  -49.3387 H         1 UNK         0.0798 
    116 H116       31.5906  -49.7640  -49.1778 H         1 UNK         0.0798 
    117 H117       33.5056  -49.7075  -51.7990 H         1 UNK         0.3079 
    118 H118       33.8343  -52.2780  -51.8367 H         1 UNK         0.0794 
    119 H119       31.9447  -53.1916  -54.0745 H         1 UNK         0.0786 
    120 H120       32.0613  -53.9030  -52.4707 H         1 UNK         0.0786 
    121 H121       33.4227  -54.0059  -53.5740 H         1 UNK         0.0786 
    122 H122       33.3479  -50.9400  -54.4697 H         1 UNK         0.3032 
    123 H123       36.5557  -49.5708  -54.4647 H         1 UNK         0.1094 
    124 H124       36.7719  -50.4697  -56.7737 H         1 UNK         0.0794 
    125 H125       37.0969  -51.7346  -55.6001 H         1 UNK         0.0794 
    126 H126       35.5512  -51.6979  -56.4387 H         1 UNK         0.0794 
    127 H127       34.3256  -49.5572  -56.3295 H         1 UNK         0.3016 
@<TRIPOS>BOND
     1    1    2 1    
     2    1   67 1    
     3    1   68 1    
     4    1   69 1    
     5    2    3 2    
     6    2    4 am   BACKBONE|DICT|INTERRES
     7    4    5 1    
     8    4   70 1    
     9    5    6 1    
    10    5   65 1    
    11    5   71 1    
    12    6    7 1    
    13    6   72 1    
    14    6   73 1    
    15    7    8 1    
    16    8    9 1    
    17    8   74 1    
    18    8   75 1    
    19    9   10 ar   
    20    9   14 ar   
    21   10   11 ar   
    22   10   76 1    
    23   11   12 ar   
    24   11   48 1    
    25   12   13 ar   
    26   12   77 1    
    27   13   14 ar   
    28   13   15 1    
    29   14   78 1    
    30   15   16 1    
    31   15   79 1    
    32   15   80 1    
    33   16   17 1    
    34   17   18 1    
    35   17   81 1    
    36   17   82 1    
    37   18   19 1    
    38   18   22 1    
    39   18   83 1    
    40   19   20 am   BACKBONE|DICT|INTERRES
    41   19   21 2    
    42   20   84 1    
    43   20   85 1    
    44   22   23 am   BACKBONE|DICT|INTERRES
    45   22   86 1    
    46   23   24 2    
    47   23   25 1    
    48   25   26 1    
    49   25   27 1    
    50   25   87 1    
    51   26   88 1    
    52   26   89 1    
    53   26   90 1    
    54   27   28 am   BACKBONE|DICT|INTERRES
    55   27   91 1    
    56   28   29 2    
    57   28   30 1    
    58   30   31 1    
    59   30   32 1    
    60   30   92 1    
    61   31   93 1    
    62   31   94 1    
    63   31   95 1    
    64   32   33 am   BACKBONE|DICT|INTERRES
    65   32   96 1    
    66   33   34 2    
    67   33   35 1    
    68   35   36 1    
    69   35   37 1    
    70   35   97 1    
    71   36   98 1    
    72   36   99 1    
    73   36  100 1    
    74   37   38 am   BACKBONE|DICT|INTERRES
    75   37  101 1    
    76   38   39 2    
    77   38   40 1    
    78   40   41 1    
    79   40   42 1    
    80   40  102 1    
    81   41  103 1    
    82   41  104 1    
    83   41  105 1    
    84   42   43 am   BACKBONE|DICT|INTERRES
    85   42  106 1    
    86   43   44 2    
    87   43   45 1    
    88   45   46 1    
    89   45   49 1    
    90   45  107 1    
    91   46   47 1    
    92   46  108 1    
    93   46  109 1    
    94   47   48 1    
    95   48  110 1    
    96   48  111 1    
    97   49   50 am   BACKBONE|DICT|INTERRES
    98   49  112 1    
    99   50   51 2    
   100   50   52 1    
   101   52   53 1    
   102   52   54 1    
   103   52  113 1    
   104   53  114 1    
   105   53  115 1    
   106   53  116 1    
   107   54   55 am   BACKBONE|DICT|INTERRES
   108   54  117 1    
   109   55   56 2    
   110   55   57 1    
   111   57   58 1    
   112   57   59 1    
   113   57  118 1    
   114   58  119 1    
   115   58  120 1    
   116   58  121 1    
   117   59   60 am   BACKBONE|DICT|INTERRES
   118   59  122 1    
   119   60   61 2    
   120   60   62 1    
   121   62   63 1    
   122   62   64 1    
   123   62  123 1    
   124   63  124 1    
   125   63  125 1    
   126   63  126 1    
   127   64   65 am   BACKBONE|DICT|INTERRES
   128   64  127 1    
   129   65   66 2    
@<TRIPOS>SUBSTRUCTURE
     1 UNK         1 GROUP             0       ****    0 ROOT    
