@<TRIPOS>MOLECULE
3R134
127   129    1
SMALL
USER_CHARGES


@<TRIPOS>ATOM
      1 CA         27.0841  -45.4984  -50.1434 C.3       0 UNK        -0.1968 
      2 C          28.5114  -45.1112  -50.5029 C.2       0 UNK         0.4852 
      3 O          28.9840  -44.0589  -50.0708 O.2       0 UNK        -0.5359 
      4 N          29.1921  -45.9582  -51.2818 N.am      1 UNK        -0.4300 
      5 CA         30.5824  -45.8016  -51.7165 C.3       1 UNK         0.0863 
      6 C6         30.6779  -45.4298  -53.2185 C.3       11 UNK        -0.0953 
      7 S7         30.1079  -43.7233  -53.5226 S.3       11 UNK        -0.2369 
      8 C8         31.6628  -42.8543  -53.8986 C.3       11 UNK         0.0226 
      9 C9         32.0702  -43.0756  -55.3459 C.ar      11 UNK        -0.0699 
     10 C10        32.9626  -44.0955  -55.6827 C.ar      11 UNK        -0.0804 
     11 C11        33.2766  -44.3480  -57.0202 C.ar      11 UNK        -0.0871 
     12 C12        32.7153  -43.5511  -58.0222 C.ar      11 UNK        -0.1008 
     13 C13        31.8309  -42.5160  -57.6996 C.ar      11 UNK        -0.0735 
     14 C14        31.5247  -42.2768  -56.3544 C.ar      11 UNK        -0.0945 
     15 C15        31.2172  -41.6812  -58.8234 C.3       11 UNK         0.0169 
     16 S16        29.4959  -41.1381  -58.5298 S.3       11 UNK        -0.2669 
     17 C17        28.6106  -42.7197  -58.2934 C.3       11 UNK        -0.0850 
     18 CA         27.5461  -42.6360  -57.1610 C.3       10 UNK         0.0855 
     19 C          26.1715  -42.1379  -57.7064 C.2       10 UNK         0.5543 
     20 N          25.1310  -42.9631  -57.7552 N.am      10 UNK        -0.7343 
     21 O          26.0434  -40.9772  -58.0870 O.2       10 UNK        -0.5027 
     22 N          27.4854  -43.8918  -56.3981 N.am      10 UNK        -0.4495 
     23 C          26.8554  -44.0588  -55.2264 C.2       10 UNK         0.4903 
     24 O          26.3494  -43.1378  -54.5837 O.2       10 UNK        -0.4860 
     25 CA         26.7620  -45.5080  -54.7011 C.3       9 UNK         0.0227 
     26 CB         25.5711  -45.7229  -53.7448 C.3       9 UNK        -0.1964 
     27 N          26.7535  -46.5157  -55.7713 N.am      9 UNK        -0.4231 
     28 C          25.8849  -46.6185  -56.7911 C.2       9 UNK         0.5014 
     29 O          24.9259  -45.8641  -56.9587 O.2       9 UNK        -0.5270 
     30 CA         26.1629  -47.7130  -57.8310 C.3       8 UNK         0.0284 
     31 CB         27.1790  -47.2089  -58.8705 C.3       8 UNK        -0.1977 
     32 N          26.6724  -48.9370  -57.2112 N.am      8 UNK        -0.4342 
     33 C          25.9216  -49.9968  -56.8822 C.2       8 UNK         0.5039 
     34 O          24.7102  -50.0712  -57.0925 O.2       8 UNK        -0.5547 
     35 CA         26.6378  -51.1873  -56.2164 C.3       7 UNK         0.0281 
     36 CB         27.0323  -52.2334  -57.2715 C.3       7 UNK        -0.1963 
     37 N          27.8304  -50.7980  -55.4616 N.am      7 UNK        -0.4444 
     38 C          27.8111  -50.1210  -54.3044 C.2       7 UNK         0.5104 
     39 O          26.7802  -49.8068  -53.7100 O.2       7 UNK        -0.5100 
     40 CA         29.1730  -49.6993  -53.7228 C.3       6 UNK         0.0396 
     41 CB         29.6537  -50.7590  -52.7197 C.3       6 UNK        -0.1801 
     42 N          30.2178  -49.4713  -54.7303 N.am      6 UNK        -0.4747 
     43 C          30.1328  -48.6050  -55.7543 C.2       6 UNK         0.5012 
     44 O          29.1499  -47.8893  -55.9456 O.2       6 UNK        -0.5003 
     45 CA         31.2902  -48.5412  -56.7711 C.3       5 UNK         0.0782 
     46 C46        32.0448  -47.1996  -56.6457 C.3       11 UNK        -0.0868 
     47 S47        33.2377  -46.9414  -58.0015 S.3       11 UNK        -0.2515 
     48 C48        34.1862  -45.5142  -57.3798 C.3       11 UNK         0.0199 
     49 N          32.1893  -49.6936  -56.6876 N.am      5 UNK        -0.4607 
     50 C          31.8657  -50.9469  -57.0335 C.2       4 UNK         0.5031 
     51 O          30.7688  -51.2636  -57.4950 O.2       4 UNK        -0.5119 
     52 CA         32.9276  -52.0354  -56.7908 C.3       4 UNK         0.0263 
     53 CB         33.6762  -52.3519  -58.0953 C.3       4 UNK        -0.1967 
     54 N          33.9001  -51.6930  -55.7452 N.am      4 UNK        -0.4237 
     55 C          33.6015  -51.4908  -54.4535 C.2       3 UNK         0.4908 
     56 O          32.4615  -51.6031  -54.0000 O.2       3 UNK        -0.5102 
     57 CA         34.7592  -51.1055  -53.5101 C.3       3 UNK         0.0241 
     58 CB         35.9992  -50.5366  -54.2396 C.3       3 UNK        -0.1971 
     59 N          34.3349  -50.1943  -52.4385 N.am      3 UNK        -0.4139 
     60 C          33.8145  -48.9658  -52.5775 C.2       2 UNK         0.5016 
     61 O          33.5952  -48.4209  -53.6627 O.2       2 UNK        -0.5319 
     62 CA         33.5570  -48.2017  -51.2671 C.3       2 UNK         0.0286 
     63 CB         34.8829  -47.6851  -50.6812 C.3       2 UNK        -0.1963 
     64 N          32.6687  -47.0565  -51.4755 N.am      2 UNK        -0.4790 
     65 C          31.3335  -47.1105  -51.4125 C.2       1 UNK         0.5024 
     66 O          30.7055  -48.1289  -51.1143 O.2       1 UNK        -0.4888 
     67 H67        26.3981  -44.6988  -50.4217 H         1 UNK         0.0892 
     68 H68        26.7667  -46.4083  -50.6527 H         1 UNK         0.0892 
     69 H69        26.9987  -45.6619  -49.0695 H         1 UNK         0.0892 
     70 H70        28.7895  -46.8554  -51.5149 H         1 UNK         0.3107 
     71 H71        31.0713  -45.0233  -51.1262 H         1 UNK         0.0773 
     72 H72        31.6992  -45.5327  -53.5834 H         1 UNK         0.0680 
     73 H73        30.0783  -46.1106  -53.8247 H         1 UNK         0.0680 
     74 H74        32.4483  -43.1796  -53.2148 H         1 UNK         0.0650 
     75 H75        31.5212  -41.7880  -53.7168 H         1 UNK         0.0650 
     76 H76        33.3891  -44.7162  -54.9074 H         1 UNK         0.1397 
     77 H77        32.9529  -43.7550  -59.0576 H         1 UNK         0.1363 
     78 H78        30.8366  -41.4868  -56.0877 H         1 UNK         0.1355 
     79 H79        31.8384  -40.7979  -58.9756 H         1 UNK         0.0707 
     80 H80        31.2387  -42.2386  -59.7612 H         1 UNK         0.0707 
     81 H81        28.1687  -43.0308  -59.2421 H         1 UNK         0.1034 
     82 H82        29.3471  -43.4889  -58.0587 H         1 UNK         0.1034 
     83 H83        27.8738  -41.8824  -56.4420 H         1 UNK         0.0482 
     84 H84        25.1999  -43.9205  -57.4276 H         1 UNK         0.3460 
     85 H85        24.2514  -42.6204  -58.1065 H         1 UNK         0.3460 
     86 H86        27.8688  -44.7086  -56.8473 H         1 UNK         0.2989 
     87 H87        27.6749  -45.6812  -54.1308 H         1 UNK         0.0559 
     88 H88        24.6180  -45.5278  -54.2373 H         1 UNK         0.0848 
     89 H89        25.6337  -45.0571  -52.8837 H         1 UNK         0.0848 
     90 H90        25.5495  -46.7441  -53.3637 H         1 UNK         0.0848 
     91 H91        27.5629  -47.1355  -55.7760 H         1 UNK         0.3144 
     92 H92        25.2261  -47.9222  -58.3523 H         1 UNK         0.0727 
     93 H93        28.1479  -46.9853  -58.4222 H         1 UNK         0.0790 
     94 H94        26.8238  -46.2971  -59.3532 H         1 UNK         0.0790 
     95 H95        27.3381  -47.9479  -59.6560 H         1 UNK         0.0790 
     96 H96        27.6505  -48.9398  -56.9503 H         1 UNK         0.3215 
     97 H97        25.9312  -51.6490  -55.5231 H         1 UNK         0.0863 
     98 H98        27.4631  -53.1213  -56.8085 H         1 UNK         0.0808 
     99 H99        27.7611  -51.8379  -57.9804 H         1 UNK         0.0808 
    100 H100       26.1622  -52.5579  -57.8441 H         1 UNK         0.0808 
    101 H101       28.7279  -51.0197  -55.8724 H         1 UNK         0.3118 
    102 H102       29.0253  -48.7577  -53.1914 H         1 UNK         0.0546 
    103 H103       30.6081  -50.4835  -52.2720 H         1 UNK         0.0828 
    104 H104       29.7805  -51.7338  -53.1922 H         1 UNK         0.0828 
    105 H105       28.9380  -50.8792  -51.9056 H         1 UNK         0.0828 
    106 H106       31.0599  -50.0290  -54.6358 H         1 UNK         0.3005 
    107 H107       30.8207  -48.5668  -57.7573 H         1 UNK         0.1257 
    108 H108       31.3407  -46.3647  -56.6655 H         1 UNK         0.0775 
    109 H109       32.5679  -47.1382  -55.6905 H         1 UNK         0.0775 
    110 H110       34.7756  -45.8261  -56.5160 H         1 UNK         0.0840 
    111 H111       34.9018  -45.2013  -58.1414 H         1 UNK         0.0840 
    112 H112       33.1031  -49.5148  -56.2969 H         1 UNK         0.2987 
    113 H113       32.3991  -52.9358  -56.4703 H         1 UNK         0.0785 
    114 H114       34.2417  -51.4914  -58.4558 H         1 UNK         0.0798 
    115 H115       32.9798  -52.6376  -58.8851 H         1 UNK         0.0798 
    116 H116       34.3710  -53.1816  -57.9643 H         1 UNK         0.0798 
    117 H117       34.8607  -51.5848  -56.0373 H         1 UNK         0.3079 
    118 H118       35.0615  -52.0306  -53.0174 H         1 UNK         0.0794 
    119 H119       35.7536  -49.6600  -54.8407 H         1 UNK         0.0786 
    120 H120       36.4540  -51.2777  -54.8976 H         1 UNK         0.0786 
    121 H121       36.7687  -50.2389  -53.5271 H         1 UNK         0.0786 
    122 H122       34.4487  -50.5559  -51.5019 H         1 UNK         0.3032 
    123 H123       33.1010  -48.8898  -50.5508 H         1 UNK         0.1094 
    124 H124       34.7204  -47.1471  -49.7470 H         1 UNK         0.0794 
    125 H125       35.5667  -48.5064  -50.4624 H         1 UNK         0.0794 
    126 H126       35.3943  -47.0123  -51.3711 H         1 UNK         0.0794 
    127 H127       33.1119  -46.1991  -51.7712 H         1 UNK         0.3016 
@<TRIPOS>BOND
     1    1    2 1    
     2    1   67 1    
     3    1   68 1    
     4    1   69 1    
     5    2    3 2    
     6    2    4 am   BACKBONE|DICT|INTERRES
     7    4    5 1    
     8    4   70 1    
     9    5    6 1    
    10    5   65 1    
    11    5   71 1    
    12    6    7 1    
    13    6   72 1    
    14    6   73 1    
    15    7    8 1    
    16    8    9 1    
    17    8   74 1    
    18    8   75 1    
    19    9   10 ar   
    20    9   14 ar   
    21   10   11 ar   
    22   10   76 1    
    23   11   12 ar   
    24   11   48 1    
    25   12   13 ar   
    26   12   77 1    
    27   13   14 ar   
    28   13   15 1    
    29   14   78 1    
    30   15   16 1    
    31   15   79 1    
    32   15   80 1    
    33   16   17 1    
    34   17   18 1    
    35   17   81 1    
    36   17   82 1    
    37   18   19 1    
    38   18   22 1    
    39   18   83 1    
    40   19   20 am   BACKBONE|DICT|INTERRES
    41   19   21 2    
    42   20   84 1    
    43   20   85 1    
    44   22   23 am   BACKBONE|DICT|INTERRES
    45   22   86 1    
    46   23   24 2    
    47   23   25 1    
    48   25   26 1    
    49   25   27 1    
    50   25   87 1    
    51   26   88 1    
    52   26   89 1    
    53   26   90 1    
    54   27   28 am   BACKBONE|DICT|INTERRES
    55   27   91 1    
    56   28   29 2    
    57   28   30 1    
    58   30   31 1    
    59   30   32 1    
    60   30   92 1    
    61   31   93 1    
    62   31   94 1    
    63   31   95 1    
    64   32   33 am   BACKBONE|DICT|INTERRES
    65   32   96 1    
    66   33   34 2    
    67   33   35 1    
    68   35   36 1    
    69   35   37 1    
    70   35   97 1    
    71   36   98 1    
    72   36   99 1    
    73   36  100 1    
    74   37   38 am   BACKBONE|DICT|INTERRES
    75   37  101 1    
    76   38   39 2    
    77   38   40 1    
    78   40   41 1    
    79   40   42 1    
    80   40  102 1    
    81   41  103 1    
    82   41  104 1    
    83   41  105 1    
    84   42   43 am   BACKBONE|DICT|INTERRES
    85   42  106 1    
    86   43   44 2    
    87   43   45 1    
    88   45   46 1    
    89   45   49 1    
    90   45  107 1    
    91   46   47 1    
    92   46  108 1    
    93   46  109 1    
    94   47   48 1    
    95   48  110 1    
    96   48  111 1    
    97   49   50 am   BACKBONE|DICT|INTERRES
    98   49  112 1    
    99   50   51 2    
   100   50   52 1    
   101   52   53 1    
   102   52   54 1    
   103   52  113 1    
   104   53  114 1    
   105   53  115 1    
   106   53  116 1    
   107   54   55 am   BACKBONE|DICT|INTERRES
   108   54  117 1    
   109   55   56 2    
   110   55   57 1    
   111   57   58 1    
   112   57   59 1    
   113   57  118 1    
   114   58  119 1    
   115   58  120 1    
   116   58  121 1    
   117   59   60 am   BACKBONE|DICT|INTERRES
   118   59  122 1    
   119   60   61 2    
   120   60   62 1    
   121   62   63 1    
   122   62   64 1    
   123   62  123 1    
   124   63  124 1    
   125   63  125 1    
   126   63  126 1    
   127   64   65 am   BACKBONE|DICT|INTERRES
   128   64  127 1    
   129   65   66 2    
@<TRIPOS>SUBSTRUCTURE
     1 UNK         1 GROUP             0       ****    0 ROOT    
