@<TRIPOS>MOLECULE
3R134
127   129    1
SMALL
USER_CHARGES


@<TRIPOS>ATOM
      1 CA         38.0026  -42.5584  -50.4781 C.3       0 UNK        -0.1968 
      2 C          36.8506  -43.2529  -51.1904 C.2       0 UNK         0.4852 
      3 O          35.9652  -43.7898  -50.5244 O.2       0 UNK        -0.5359 
      4 N          36.8633  -43.2322  -52.5314 N.am      1 UNK        -0.4300 
      5 CA         35.8984  -43.8642  -53.4385 C.3       1 UNK         0.0863 
      6 C6         34.4473  -43.3286  -53.2722 C.3       11 UNK        -0.0953 
      7 S7         33.5420  -43.3323  -54.8544 S.3       11 UNK        -0.2369 
      8 C8         32.5530  -44.8529  -54.7290 C.3       11 UNK         0.0226 
      9 C9         31.2622  -44.6379  -53.9572 C.ar      11 UNK        -0.0699 
     10 C10        31.1709  -44.9686  -52.6021 C.ar      11 UNK        -0.0804 
     11 C11        29.9605  -44.8158  -51.9164 C.ar      11 UNK        -0.0871 
     12 C12        28.8375  -44.3341  -52.5968 C.ar      11 UNK        -0.1008 
     13 C13        28.9175  -44.0170  -53.9552 C.ar      11 UNK        -0.0735 
     14 C14        30.1366  -44.1509  -54.6237 C.ar      11 UNK        -0.0945 
     15 C15        27.6814  -43.5664  -54.7168 C.3       11 UNK         0.0169 
     16 S16        26.6011  -44.9670  -55.1623 S.3       11 UNK        -0.2669 
     17 C17        27.7189  -46.0616  -56.1107 C.3       11 UNK        -0.0850 
     18 CA         27.9367  -45.5776  -57.5674 C.3       10 UNK         0.0855 
     19 C          29.0912  -46.3577  -58.2624 C.2       10 UNK         0.5543 
     20 N          28.8663  -47.0511  -59.3735 N.am      10 UNK        -0.7343 
     21 O          30.2244  -46.3144  -57.7917 O.2       10 UNK        -0.5027 
     22 N          26.6763  -45.5612  -58.3245 N.am      10 UNK        -0.4495 
     23 C          26.4400  -44.7816  -59.3884 C.2       10 UNK         0.4903 
     24 O          27.2230  -43.9156  -59.7826 O.2       10 UNK        -0.4860 
     25 CA         25.1104  -45.0068  -60.1432 C.3       9 UNK         0.0227 
     26 CB         25.1866  -44.5627  -61.6199 C.3       9 UNK        -0.1964 
     27 N          24.5983  -46.3811  -60.0455 N.am      9 UNK        -0.4231 
     28 C          25.2323  -47.5043  -60.4120 C.2       9 UNK         0.5014 
     29 O          26.3512  -47.5380  -60.9302 O.2       9 UNK        -0.5270 
     30 CA         24.5150  -48.8238  -60.0851 C.3       8 UNK         0.0284 
     31 CB         24.2102  -49.6168  -61.3669 C.3       8 UNK        -0.1977 
     32 N          25.3160  -49.6485  -59.1772 N.am      8 UNK        -0.4342 
     33 C          25.6951  -49.2859  -57.9441 C.2       8 UNK         0.5039 
     34 O          25.3850  -48.2125  -57.4195 O.2       8 UNK        -0.5547 
     35 CA         26.6032  -50.2792  -57.1978 C.3       7 UNK         0.0281 
     36 CB         28.0694  -50.0823  -57.6132 C.3       7 UNK        -0.1963 
     37 N          26.4935  -50.1607  -55.7405 N.am      7 UNK        -0.4444 
     38 C          25.4071  -50.5137  -55.0356 C.2       7 UNK         0.5104 
     39 O          24.3955  -50.9943  -55.5500 O.2       7 UNK        -0.5100 
     40 CA         25.4462  -50.3550  -53.5022 C.3       6 UNK         0.0396 
     41 CB         25.3008  -51.7246  -52.8162 C.3       6 UNK        -0.1801 
     42 N          26.6740  -49.7237  -53.0161 N.am      6 UNK        -0.4747 
     43 C          26.8520  -48.4086  -52.8251 C.2       6 UNK         0.5012 
     44 O          25.9629  -47.5746  -52.9875 O.2       6 UNK        -0.5003 
     45 CA         28.2530  -47.9490  -52.3586 C.3       5 UNK         0.0782 
     46 C46        28.1984  -47.4546  -50.8886 C.3       11 UNK        -0.0868 
     47 S47        29.8310  -46.9940  -50.2075 S.3       11 UNK        -0.2515 
     48 C48        29.8627  -45.1893  -50.4452 C.3       11 UNK         0.0199 
     49 N          29.2857  -48.9754  -52.5580 N.am      5 UNK        -0.4607 
     50 C          29.7573  -49.3585  -53.7488 C.2       4 UNK         0.5031 
     51 O          29.3249  -48.9388  -54.8227 O.2       4 UNK        -0.5119 
     52 CA         30.8397  -50.4478  -53.7350 C.3       4 UNK         0.0263 
     53 CB         30.2505  -51.7959  -54.1829 C.3       4 UNK        -0.1967 
     54 N          31.9704  -50.0991  -54.5956 N.am      4 UNK        -0.4237 
     55 C          32.8495  -49.1267  -54.3238 C.2       3 UNK         0.4908 
     56 O          32.8040  -48.4203  -53.3133 O.2       3 UNK        -0.5102 
     57 CA         33.9805  -48.9260  -55.3400 C.3       3 UNK         0.0241 
     58 CB         33.4861  -48.2049  -56.6077 C.3       3 UNK        -0.1971 
     59 N          35.0493  -48.1641  -54.6981 N.am      3 UNK        -0.4139 
     60 C          36.3407  -48.1721  -55.0406 C.2       2 UNK         0.5016 
     61 O          36.7767  -48.7617  -56.0318 O.2       2 UNK        -0.5319 
     62 CA         37.3035  -47.3929  -54.1188 C.3       2 UNK         0.0286 
     63 CB         38.7804  -47.5696  -54.5207 C.3       2 UNK        -0.1963 
     64 N          37.0002  -45.9589  -54.0685 N.am      2 UNK        -0.4790 
     65 C          36.0062  -45.4029  -53.3629 C.2       1 UNK         0.5024 
     66 O          35.2287  -46.0578  -52.6665 O.2       1 UNK        -0.4888 
     67 H67        38.5414  -43.2708  -49.8539 H         1 UNK         0.0892 
     68 H68        38.7120  -42.1180  -51.1786 H         1 UNK         0.0892 
     69 H69        37.6223  -41.7633  -49.8373 H         1 UNK         0.0892 
     70 H70        37.6355  -42.7722  -52.9940 H         1 UNK         0.3107 
     71 H71        36.2399  -43.5746  -54.4340 H         1 UNK         0.0773 
     72 H72        34.4743  -42.2888  -52.9429 H         1 UNK         0.0680 
     73 H73        33.8905  -43.8602  -52.4995 H         1 UNK         0.0680 
     74 H74        33.1390  -45.6578  -54.2856 H         1 UNK         0.0650 
     75 H75        32.3075  -45.1775  -55.7407 H         1 UNK         0.0650 
     76 H76        32.0349  -45.3660  -52.0862 H         1 UNK         0.1397 
     77 H77        27.8924  -44.2339  -52.0804 H         1 UNK         0.1363 
     78 H78        30.2022  -43.9137  -55.6770 H         1 UNK         0.1355 
     79 H79        27.1131  -42.8629  -54.1068 H         1 UNK         0.0707 
     80 H80        27.9617  -43.0249  -55.6215 H         1 UNK         0.0707 
     81 H81        28.6645  -46.1682  -55.5790 H         1 UNK         0.1034 
     82 H82        27.2908  -47.0643  -56.1071 H         1 UNK         0.1034 
     83 H83        28.2951  -44.5487  -57.5082 H         1 UNK         0.0482 
     84 H84        29.6346  -47.5342  -59.8092 H         1 UNK         0.3460 
     85 H85        27.9455  -47.0877  -59.7975 H         1 UNK         0.3460 
     86 H86        26.0042  -46.2767  -58.0687 H         1 UNK         0.2989 
     87 H87        24.3742  -44.3733  -59.6464 H         1 UNK         0.0559 
     88 H88        25.4290  -43.5023  -61.6998 H         1 UNK         0.0848 
     89 H89        24.2356  -44.7137  -62.1304 H         1 UNK         0.0848 
     90 H90        25.9526  -45.1127  -62.1678 H         1 UNK         0.0848 
     91 H91        23.7009  -46.4754  -59.5890 H         1 UNK         0.3144 
     92 H92        23.5685  -48.6049  -59.5862 H         1 UNK         0.0727 
     93 H93        25.1221  -49.8948  -61.8972 H         1 UNK         0.0790 
     94 H94        23.6019  -49.0268  -62.0539 H         1 UNK         0.0790 
     95 H95        23.6562  -50.5300  -61.1482 H         1 UNK         0.0790 
     96 H96        25.6479  -50.5274  -59.5473 H         1 UNK         0.3215 
     97 H97        26.3003  -51.2919  -57.4732 H         1 UNK         0.0863 
     98 H98        28.7172  -50.8279  -57.1534 H         1 UNK         0.0808 
     99 H99        28.4384  -49.0984  -57.3253 H         1 UNK         0.0808 
    100 H100       28.1917  -50.1701  -58.6936 H         1 UNK         0.0808 
    101 H101       27.2742  -49.7318  -55.2596 H         1 UNK         0.3118 
    102 H102       24.5864  -49.7444  -53.2191 H         1 UNK         0.0546 
    103 H103       26.1175  -52.3980  -53.0792 H         1 UNK         0.0828 
    104 H104       24.3700  -52.2131  -53.1081 H         1 UNK         0.0828 
    105 H105       25.2827  -51.6252  -51.7308 H         1 UNK         0.0828 
    106 H106       27.4587  -50.3345  -52.8410 H         1 UNK         0.3005 
    107 H107       28.5189  -47.1004  -52.9927 H         1 UNK         0.1257 
    108 H108       27.7884  -48.2341  -50.2434 H         1 UNK         0.0775 
    109 H109       27.5206  -46.6038  -50.7970 H         1 UNK         0.0775 
    110 H110       28.9803  -44.7427  -49.9840 H         1 UNK         0.0840 
    111 H111       30.7227  -44.7796  -49.9132 H         1 UNK         0.0840 
    112 H112       29.7005  -49.3500  -51.7167 H         1 UNK         0.2987 
    113 H113       31.2161  -50.5620  -52.7158 H         1 UNK         0.0785 
    114 H114       29.4186  -52.0924  -53.5428 H         1 UNK         0.0798 
    115 H115       30.9947  -52.5908  -54.1314 H         1 UNK         0.0798 
    116 H116       29.8750  -51.7541  -55.2057 H         1 UNK         0.0798 
    117 H117       32.0526  -50.6077  -55.4638 H         1 UNK         0.3079 
    118 H118       34.3669  -49.9109  -55.6115 H         1 UNK         0.0794 
    119 H119       34.2884  -48.0821  -57.3352 H         1 UNK         0.0786 
    120 H120       33.0889  -47.2177  -56.3803 H         1 UNK         0.0786 
    121 H121       32.6901  -48.7670  -57.0977 H         1 UNK         0.0786 
    122 H122       34.7654  -47.6629  -53.8584 H         1 UNK         0.3032 
    123 H123       37.1861  -47.8103  -53.1157 H         1 UNK         0.1094 
    124 H124       38.9810  -47.1668  -55.5144 H         1 UNK         0.0794 
    125 H125       39.4463  -47.0717  -53.8155 H         1 UNK         0.0794 
    126 H126       39.0585  -48.6244  -54.5340 H         1 UNK         0.0794 
    127 H127       37.5894  -45.3605  -54.6303 H         1 UNK         0.3016 
@<TRIPOS>BOND
     1    1    2 1    
     2    1   67 1    
     3    1   68 1    
     4    1   69 1    
     5    2    3 2    
     6    2    4 am   BACKBONE|DICT|INTERRES
     7    4    5 1    
     8    4   70 1    
     9    5    6 1    
    10    5   65 1    
    11    5   71 1    
    12    6    7 1    
    13    6   72 1    
    14    6   73 1    
    15    7    8 1    
    16    8    9 1    
    17    8   74 1    
    18    8   75 1    
    19    9   10 ar   
    20    9   14 ar   
    21   10   11 ar   
    22   10   76 1    
    23   11   12 ar   
    24   11   48 1    
    25   12   13 ar   
    26   12   77 1    
    27   13   14 ar   
    28   13   15 1    
    29   14   78 1    
    30   15   16 1    
    31   15   79 1    
    32   15   80 1    
    33   16   17 1    
    34   17   18 1    
    35   17   81 1    
    36   17   82 1    
    37   18   19 1    
    38   18   22 1    
    39   18   83 1    
    40   19   20 am   BACKBONE|DICT|INTERRES
    41   19   21 2    
    42   20   84 1    
    43   20   85 1    
    44   22   23 am   BACKBONE|DICT|INTERRES
    45   22   86 1    
    46   23   24 2    
    47   23   25 1    
    48   25   26 1    
    49   25   27 1    
    50   25   87 1    
    51   26   88 1    
    52   26   89 1    
    53   26   90 1    
    54   27   28 am   BACKBONE|DICT|INTERRES
    55   27   91 1    
    56   28   29 2    
    57   28   30 1    
    58   30   31 1    
    59   30   32 1    
    60   30   92 1    
    61   31   93 1    
    62   31   94 1    
    63   31   95 1    
    64   32   33 am   BACKBONE|DICT|INTERRES
    65   32   96 1    
    66   33   34 2    
    67   33   35 1    
    68   35   36 1    
    69   35   37 1    
    70   35   97 1    
    71   36   98 1    
    72   36   99 1    
    73   36  100 1    
    74   37   38 am   BACKBONE|DICT|INTERRES
    75   37  101 1    
    76   38   39 2    
    77   38   40 1    
    78   40   41 1    
    79   40   42 1    
    80   40  102 1    
    81   41  103 1    
    82   41  104 1    
    83   41  105 1    
    84   42   43 am   BACKBONE|DICT|INTERRES
    85   42  106 1    
    86   43   44 2    
    87   43   45 1    
    88   45   46 1    
    89   45   49 1    
    90   45  107 1    
    91   46   47 1    
    92   46  108 1    
    93   46  109 1    
    94   47   48 1    
    95   48  110 1    
    96   48  111 1    
    97   49   50 am   BACKBONE|DICT|INTERRES
    98   49  112 1    
    99   50   51 2    
   100   50   52 1    
   101   52   53 1    
   102   52   54 1    
   103   52  113 1    
   104   53  114 1    
   105   53  115 1    
   106   53  116 1    
   107   54   55 am   BACKBONE|DICT|INTERRES
   108   54  117 1    
   109   55   56 2    
   110   55   57 1    
   111   57   58 1    
   112   57   59 1    
   113   57  118 1    
   114   58  119 1    
   115   58  120 1    
   116   58  121 1    
   117   59   60 am   BACKBONE|DICT|INTERRES
   118   59  122 1    
   119   60   61 2    
   120   60   62 1    
   121   62   63 1    
   122   62   64 1    
   123   62  123 1    
   124   63  124 1    
   125   63  125 1    
   126   63  126 1    
   127   64   65 am   BACKBONE|DICT|INTERRES
   128   64  127 1    
   129   65   66 2    
@<TRIPOS>SUBSTRUCTURE
     1 UNK         1 GROUP             0       ****    0 ROOT    
