@<TRIPOS>MOLECULE
3R134
127   129    1
SMALL
USER_CHARGES


@<TRIPOS>ATOM
      1 CA         38.4890  -44.0766  -54.5078 C.3       0 UNK        -0.1968 
      2 C          37.3070  -44.9030  -54.9928 C.2       0 UNK         0.4852 
      3 O          37.4571  -45.6945  -55.9246 O.2       0 UNK        -0.5359 
      4 N          36.1346  -44.7242  -54.3680 N.am      1 UNK        -0.4300 
      5 CA         34.8868  -45.4265  -54.7029 C.3       1 UNK         0.0863 
      6 C6         33.6439  -44.7071  -54.1232 C.3       11 UNK        -0.0953 
      7 S7         33.4946  -42.9923  -54.7385 S.3       11 UNK        -0.2369 
      8 C8         32.8522  -42.1099  -53.2800 C.3       11 UNK         0.0226 
      9 C9         31.3797  -42.4166  -53.0556 C.ar      11 UNK        -0.0699 
     10 C10        31.0047  -43.5060  -52.2659 C.ar      11 UNK        -0.0804 
     11 C11        29.6572  -43.8407  -52.1182 C.ar      11 UNK        -0.0871 
     12 C12        28.6778  -43.0390  -52.7081 C.ar      11 UNK        -0.1008 
     13 C13        29.0381  -41.9473  -53.5022 C.ar      11 UNK        -0.0735 
     14 C14        30.3924  -41.6379  -53.6699 C.ar      11 UNK        -0.0945 
     15 C15        27.9631  -41.1314  -54.2103 C.3       11 UNK         0.0169 
     16 S16        26.8864  -42.1646  -55.2630 S.3       11 UNK        -0.2669 
     17 C17        28.1064  -42.9116  -56.3951 C.3       11 UNK        -0.0850 
     18 CA         27.4514  -43.4808  -57.6784 C.3       10 UNK         0.0855 
     19 C          28.5387  -43.9380  -58.6831 C.2       10 UNK         0.5543 
     20 N          28.7837  -43.1686  -59.7340 N.am      10 UNK        -0.7343 
     21 O          29.1886  -44.9629  -58.4881 O.2       10 UNK        -0.5027 
     22 N          26.5425  -44.5983  -57.3867 N.am      10 UNK        -0.4495 
     23 C          25.4869  -44.9271  -58.1396 C.2       10 UNK         0.4903 
     24 O          25.0564  -44.2360  -59.0650 O.2       10 UNK        -0.4860 
     25 CA         24.8389  -46.2848  -57.8126 C.3       9 UNK         0.0227 
     26 CB         23.4952  -46.5121  -58.5381 C.3       9 UNK        -0.1964 
     27 N          25.7737  -47.3905  -58.0627 N.am      9 UNK        -0.4231 
     28 C          26.3371  -47.7324  -59.2340 C.2       9 UNK         0.5014 
     29 O          26.0806  -47.1895  -60.3095 O.2       9 UNK        -0.5270 
     30 CA         27.3759  -48.8685  -59.2237 C.3       8 UNK         0.0284 
     31 CB         28.8022  -48.2955  -59.2148 C.3       8 UNK        -0.1977 
     32 N          27.2353  -49.8147  -58.1152 N.am      8 UNK        -0.4342 
     33 C          26.2619  -50.7301  -58.0089 C.2       8 UNK         0.5039 
     34 O          25.3278  -50.8342  -58.8045 O.2       8 UNK        -0.5547 
     35 CA         26.3531  -51.7023  -56.8238 C.3       7 UNK         0.0281 
     36 CB         27.3783  -52.8116  -57.1134 C.3       7 UNK        -0.1963 
     37 N          26.7304  -51.0022  -55.5965 N.am      7 UNK        -0.4444 
     38 C          25.8658  -50.5863  -54.6616 C.2       7 UNK         0.5104 
     39 O          24.6556  -50.8111  -54.6949 O.2       7 UNK        -0.5100 
     40 CA         26.4429  -49.7724  -53.4878 C.3       6 UNK         0.0396 
     41 CB         26.7751  -50.6960  -52.3056 C.3       6 UNK        -0.1801 
     42 N          27.6353  -48.9979  -53.8385 N.am      6 UNK        -0.4747 
     43 C          27.6652  -47.9886  -54.7211 C.2       6 UNK         0.5012 
     44 O          26.6778  -47.5802  -55.3315 O.2       6 UNK        -0.5003 
     45 CA         29.0365  -47.3493  -55.0119 C.3       5 UNK         0.0782 
     46 C46        29.2871  -46.1400  -54.0806 C.3       11 UNK        -0.0868 
     47 S47        29.7877  -46.5907  -52.3729 S.3       11 UNK        -0.2515 
     48 C48        29.2629  -45.1288  -51.4139 C.3       11 UNK         0.0199 
     49 N          30.1606  -48.2878  -54.9771 N.am      5 UNK        -0.4607 
     50 C          30.2671  -49.4714  -55.5940 C.2       4 UNK         0.5031 
     51 O          29.4062  -49.9368  -56.3410 O.2       4 UNK        -0.5119 
     52 CA         31.5320  -50.2912  -55.2904 C.3       4 UNK         0.0263 
     53 CB         32.5118  -50.2200  -56.4714 C.3       4 UNK        -0.1967 
     54 N          32.2079  -49.8514  -54.0631 N.am      4 UNK        -0.4237 
     55 C          31.7517  -50.0817  -52.8203 C.2       3 UNK         0.4908 
     56 O          30.7243  -50.7237  -52.5950 O.2       3 UNK        -0.5102 
     57 CA         32.5175  -49.4575  -51.6317 C.3       3 UNK         0.0241 
     58 CB         32.6393  -50.4337  -50.4421 C.3       3 UNK        -0.1971 
     59 N          33.8221  -48.8746  -51.9776 N.am      3 UNK        -0.4139 
     60 C          34.9090  -49.5115  -52.4394 C.2       2 UNK         0.5016 
     61 O          34.9817  -50.7341  -52.5725 O.2       2 UNK        -0.5319 
     62 CA         36.1045  -48.6256  -52.8527 C.3       2 UNK         0.0286 
     63 CB         36.9847  -49.3049  -53.9236 C.3       2 UNK        -0.1963 
     64 N          35.7523  -47.2650  -53.2967 N.am      2 UNK        -0.4790 
     65 C          34.9097  -46.9146  -54.2851 C.2       1 UNK         0.5024 
     66 O          34.1674  -47.7112  -54.8609 O.2       1 UNK        -0.4888 
     67 H67        39.2894  -44.7319  -54.1653 H         1 UNK         0.0892 
     68 H68        38.8754  -43.4623  -55.3206 H         1 UNK         0.0892 
     69 H69        38.2158  -43.4162  -53.6849 H         1 UNK         0.0892 
     70 H70        36.0650  -44.0382  -53.6298 H         1 UNK         0.3107 
     71 H71        34.7908  -45.4201  -55.7911 H         1 UNK         0.0773 
     72 H72        32.7274  -45.2365  -54.3918 H         1 UNK         0.0680 
     73 H73        33.6909  -44.7023  -53.0333 H         1 UNK         0.0680 
     74 H74        33.4399  -42.3682  -52.3978 H         1 UNK         0.0650 
     75 H75        32.9867  -41.0380  -53.4318 H         1 UNK         0.0650 
     76 H76        31.7604  -44.1317  -51.8124 H         1 UNK         0.1397 
     77 H77        27.6330  -43.2985  -52.6030 H         1 UNK         0.1363 
     78 H78        30.6821  -40.8049  -54.2959 H         1 UNK         0.1355 
     79 H79        27.3492  -40.6285  -53.4619 H         1 UNK         0.0707 
     80 H80        28.4089  -40.3462  -54.8229 H         1 UNK         0.0707 
     81 H81        28.8388  -42.1446  -56.6556 H         1 UNK         0.1034 
     82 H82        28.6584  -43.6873  -55.8617 H         1 UNK         0.1034 
     83 H83        26.8775  -42.6726  -58.1374 H         1 UNK         0.0482 
     84 H84        29.4999  -43.4463  -60.3866 H         1 UNK         0.3460 
     85 H85        28.2585  -42.3234  -59.8965 H         1 UNK         0.3460 
     86 H86        26.8373  -45.2384  -56.6645 H         1 UNK         0.2989 
     87 H87        24.6338  -46.2875  -56.7409 H         1 UNK         0.0559 
     88 H88        22.7780  -45.7331  -58.2774 H         1 UNK         0.0848 
     89 H89        23.0523  -47.4682  -58.2596 H         1 UNK         0.0848 
     90 H90        23.6057  -46.4983  -59.6228 H         1 UNK         0.0848 
     91 H91        26.0939  -47.8659  -57.2249 H         1 UNK         0.3144 
     92 H92        27.2472  -49.4271  -60.1534 H         1 UNK         0.0727 
     93 H93        29.0109  -47.7475  -58.2965 H         1 UNK         0.0790 
     94 H94        28.9524  -47.6037  -60.0449 H         1 UNK         0.0790 
     95 H95        29.5488  -49.0842  -59.3101 H         1 UNK         0.0790 
     96 H96        27.9983  -49.8351  -57.4397 H         1 UNK         0.3215 
     97 H97        25.3753  -52.1738  -56.7019 H         1 UNK         0.0863 
     98 H98        27.4105  -53.5402  -56.3032 H         1 UNK         0.0808 
     99 H99        28.3854  -52.4135  -57.2447 H         1 UNK         0.0808 
    100 H100       27.1198  -53.3524  -58.0248 H         1 UNK         0.0808 
    101 H101       27.7040  -50.7338  -55.5078 H         1 UNK         0.3118 
    102 H102       25.6725  -49.0684  -53.1663 H         1 UNK         0.0546 
    103 H103       27.5691  -51.4015  -52.5549 H         1 UNK         0.0828 
    104 H104       25.9024  -51.2782  -52.0065 H         1 UNK         0.0828 
    105 H105       27.0962  -50.1252  -51.4341 H         1 UNK         0.0828 
    106 H106       28.5014  -49.2622  -53.3880 H         1 UNK         0.3005 
    107 H107       28.9834  -46.9722  -56.0351 H         1 UNK         0.1257 
    108 H108       30.0804  -45.5196  -54.5014 H         1 UNK         0.0775 
    109 H109       28.4033  -45.4999  -54.0463 H         1 UNK         0.0775 
    110 H110       28.1836  -45.1743  -51.2603 H         1 UNK         0.0840 
    111 H111       29.7185  -45.1630  -50.4234 H         1 UNK         0.0840 
    112 H112       30.9227  -48.0138  -54.3751 H         1 UNK         0.2987 
    113 H113       31.2257  -51.3314  -55.1615 H         1 UNK         0.0785 
    114 H114       32.0516  -50.6059  -57.3822 H         1 UNK         0.0798 
    115 H115       33.4059  -50.8144  -56.2823 H         1 UNK         0.0798 
    116 H116       32.8263  -49.1959  -56.6755 H         1 UNK         0.0798 
    117 H117       33.0400  -49.2827  -54.1862 H         1 UNK         0.3079 
    118 H118       31.9026  -48.6205  -51.2984 H         1 UNK         0.0794 
    119 H119       33.1599  -49.9735  -49.6023 H         1 UNK         0.0786 
    120 H120       33.1771  -51.3421  -50.7144 H         1 UNK         0.0786 
    121 H121       31.6553  -50.7376  -50.0826 H         1 UNK         0.0786 
    122 H122       33.8769  -47.8674  -51.9173 H         1 UNK         0.3032 
    123 H123       36.7103  -48.5104  -51.9522 H         1 UNK         0.1094 
    124 H124       36.4223  -49.5081  -54.8358 H         1 UNK         0.0794 
    125 H125       37.8384  -48.6814  -54.1897 H         1 UNK         0.0794 
    126 H126       37.3811  -50.2560  -53.5656 H         1 UNK         0.0794 
    127 H127       36.2884  -46.5211  -52.8710 H         1 UNK         0.3016 
@<TRIPOS>BOND
     1    1    2 1    
     2    1   67 1    
     3    1   68 1    
     4    1   69 1    
     5    2    3 2    
     6    2    4 am   BACKBONE|DICT|INTERRES
     7    4    5 1    
     8    4   70 1    
     9    5    6 1    
    10    5   65 1    
    11    5   71 1    
    12    6    7 1    
    13    6   72 1    
    14    6   73 1    
    15    7    8 1    
    16    8    9 1    
    17    8   74 1    
    18    8   75 1    
    19    9   10 ar   
    20    9   14 ar   
    21   10   11 ar   
    22   10   76 1    
    23   11   12 ar   
    24   11   48 1    
    25   12   13 ar   
    26   12   77 1    
    27   13   14 ar   
    28   13   15 1    
    29   14   78 1    
    30   15   16 1    
    31   15   79 1    
    32   15   80 1    
    33   16   17 1    
    34   17   18 1    
    35   17   81 1    
    36   17   82 1    
    37   18   19 1    
    38   18   22 1    
    39   18   83 1    
    40   19   20 am   BACKBONE|DICT|INTERRES
    41   19   21 2    
    42   20   84 1    
    43   20   85 1    
    44   22   23 am   BACKBONE|DICT|INTERRES
    45   22   86 1    
    46   23   24 2    
    47   23   25 1    
    48   25   26 1    
    49   25   27 1    
    50   25   87 1    
    51   26   88 1    
    52   26   89 1    
    53   26   90 1    
    54   27   28 am   BACKBONE|DICT|INTERRES
    55   27   91 1    
    56   28   29 2    
    57   28   30 1    
    58   30   31 1    
    59   30   32 1    
    60   30   92 1    
    61   31   93 1    
    62   31   94 1    
    63   31   95 1    
    64   32   33 am   BACKBONE|DICT|INTERRES
    65   32   96 1    
    66   33   34 2    
    67   33   35 1    
    68   35   36 1    
    69   35   37 1    
    70   35   97 1    
    71   36   98 1    
    72   36   99 1    
    73   36  100 1    
    74   37   38 am   BACKBONE|DICT|INTERRES
    75   37  101 1    
    76   38   39 2    
    77   38   40 1    
    78   40   41 1    
    79   40   42 1    
    80   40  102 1    
    81   41  103 1    
    82   41  104 1    
    83   41  105 1    
    84   42   43 am   BACKBONE|DICT|INTERRES
    85   42  106 1    
    86   43   44 2    
    87   43   45 1    
    88   45   46 1    
    89   45   49 1    
    90   45  107 1    
    91   46   47 1    
    92   46  108 1    
    93   46  109 1    
    94   47   48 1    
    95   48  110 1    
    96   48  111 1    
    97   49   50 am   BACKBONE|DICT|INTERRES
    98   49  112 1    
    99   50   51 2    
   100   50   52 1    
   101   52   53 1    
   102   52   54 1    
   103   52  113 1    
   104   53  114 1    
   105   53  115 1    
   106   53  116 1    
   107   54   55 am   BACKBONE|DICT|INTERRES
   108   54  117 1    
   109   55   56 2    
   110   55   57 1    
   111   57   58 1    
   112   57   59 1    
   113   57  118 1    
   114   58  119 1    
   115   58  120 1    
   116   58  121 1    
   117   59   60 am   BACKBONE|DICT|INTERRES
   118   59  122 1    
   119   60   61 2    
   120   60   62 1    
   121   62   63 1    
   122   62   64 1    
   123   62  123 1    
   124   63  124 1    
   125   63  125 1    
   126   63  126 1    
   127   64   65 am   BACKBONE|DICT|INTERRES
   128   64  127 1    
   129   65   66 2    
@<TRIPOS>SUBSTRUCTURE
     1 UNK         1 GROUP             0       ****    0 ROOT    
