@<TRIPOS>MOLECULE
3R134
127   129    1
SMALL
USER_CHARGES


@<TRIPOS>ATOM
      1 CA         33.3538  -46.7390  -51.5958 C.3       0 UNK        -0.1968 
      2 C          33.4042  -46.6285  -53.1116 C.2       0 UNK         0.4852 
      3 O          32.4225  -46.9599  -53.7735 O.2       0 UNK        -0.5359 
      4 N          34.5445  -46.1846  -53.6637 N.am      1 UNK        -0.4300 
      5 CA         34.8345  -45.9414  -55.0890 C.3       1 UNK         0.0863 
      6 C6         33.9138  -44.8722  -55.7411 C.3       11 UNK        -0.0953 
      7 S7         34.4688  -43.1731  -55.3761 S.3       11 UNK        -0.2369 
      8 C8         33.7068  -42.8211  -53.7538 C.3       11 UNK         0.0226 
      9 C9         32.1797  -42.8307  -53.7315 C.ar      11 UNK        -0.0699 
     10 C10        31.5212  -43.2136  -52.5592 C.ar      11 UNK        -0.0804 
     11 C11        30.1253  -43.2044  -52.4850 C.ar      11 UNK        -0.0871 
     12 C12        29.3792  -42.8244  -53.6052 C.ar      11 UNK        -0.1008 
     13 C13        30.0238  -42.4243  -54.7803 C.ar      11 UNK        -0.0735 
     14 C14        31.4206  -42.4199  -54.8330 C.ar      11 UNK        -0.0945 
     15 C15        29.2217  -41.9693  -55.9896 C.3       11 UNK         0.0169 
     16 S16        29.3324  -43.1803  -57.3388 S.3       11 UNK        -0.2669 
     17 C17        28.2707  -42.4003  -58.6027 C.3       11 UNK        -0.0850 
     18 CA         26.7924  -42.8640  -58.5221 C.3       10 UNK         0.0855 
     19 C          25.9246  -42.1564  -59.6030 C.2       10 UNK         0.5543 
     20 N          25.3023  -42.8717  -60.5321 N.am      10 UNK        -0.7343 
     21 O          25.8111  -40.9332  -59.5931 O.2       10 UNK        -0.5027 
     22 N          26.6878  -44.3310  -58.5035 N.am      10 UNK        -0.4495 
     23 C          25.6590  -45.0328  -58.0215 C.2       10 UNK         0.4903 
     24 O          24.6249  -44.5222  -57.5902 O.2       10 UNK        -0.4860 
     25 CA         25.8074  -46.5634  -57.9841 C.3       9 UNK         0.0227 
     26 CB         25.3302  -47.2068  -59.3001 C.3       9 UNK        -0.1964 
     27 N          27.1429  -47.0411  -57.5976 N.am      9 UNK        -0.4231 
     28 C          28.3037  -46.9896  -58.2692 C.2       9 UNK         0.5014 
     29 O          28.4445  -46.4357  -59.3605 O.2       9 UNK        -0.5270 
     30 CA         29.5135  -47.6826  -57.6134 C.3       8 UNK         0.0284 
     31 CB         30.2735  -46.7099  -56.6966 C.3       8 UNK        -0.1977 
     32 N          29.1387  -48.8821  -56.8566 N.am      8 UNK        -0.4342 
     33 C          28.6471  -50.0047  -57.4042 C.2       8 UNK         0.5039 
     34 O          28.5421  -50.1885  -58.6175 O.2       8 UNK        -0.5547 
     35 CA         28.1554  -51.0941  -56.4385 C.3       7 UNK         0.0281 
     36 CB         29.3047  -52.0201  -56.0105 C.3       7 UNK        -0.1963 
     37 N          27.5178  -50.5107  -55.2570 N.am      7 UNK        -0.4444 
     38 C          26.2533  -50.0652  -55.2283 C.2       7 UNK         0.5104 
     39 O          25.4649  -50.1789  -56.1667 O.2       7 UNK        -0.5100 
     40 CA         25.7858  -49.3605  -53.9415 C.3       6 UNK         0.0396 
     41 CB         25.1281  -50.3693  -52.9869 C.3       6 UNK        -0.1801 
     42 N          26.8629  -48.6595  -53.2378 N.am      6 UNK        -0.4747 
     43 C          27.5006  -47.5730  -53.7000 C.2       6 UNK         0.5012 
     44 O          27.2173  -47.0194  -54.7605 O.2       6 UNK        -0.5003 
     45 CA         28.6809  -47.0494  -52.8559 C.3       5 UNK         0.0782 
     46 C46        28.1762  -45.9960  -51.8411 C.3       11 UNK        -0.0868 
     47 S47        29.5105  -45.3257  -50.7928 S.3       11 UNK        -0.2515 
     48 C48        29.4367  -43.5478  -51.1717 C.3       11 UNK         0.0199 
     49 N          29.4258  -48.1360  -52.2052 N.am      5 UNK        -0.4607 
     50 C          30.0586  -49.1245  -52.8474 C.2       4 UNK         0.5031 
     51 O          30.0272  -49.2827  -54.0703 O.2       4 UNK        -0.5119 
     52 CA         30.7843  -50.1451  -51.9699 C.3       4 UNK         0.0263 
     53 CB         29.8857  -51.3642  -51.7002 C.3       4 UNK        -0.1967 
     54 N          31.9992  -50.5723  -52.6528 N.am      4 UNK        -0.4237 
     55 C          33.1646  -50.8530  -52.0617 C.2       3 UNK         0.4908 
     56 O          33.3261  -50.8402  -50.8408 O.2       3 UNK        -0.5102 
     57 CA         34.3736  -51.1768  -52.9608 C.3       3 UNK         0.0241 
     58 CB         34.4914  -52.6939  -53.2096 C.3       3 UNK        -0.1971 
     59 N          34.4325  -50.4075  -54.2139 N.am      3 UNK        -0.4139 
     60 C          33.6351  -50.4877  -55.2891 C.2       2 UNK         0.5016 
     61 O          32.6963  -51.2772  -55.3880 O.2       2 UNK        -0.5319 
     62 CA         33.9022  -49.4608  -56.3979 C.3       2 UNK         0.0286 
     63 CB         32.8414  -49.4941  -57.5123 C.3       2 UNK        -0.1963 
     64 N          33.9384  -48.1284  -55.7954 N.am      2 UNK        -0.4790 
     65 C          34.9172  -47.2308  -55.9369 C.2       1 UNK         0.5024 
     66 O          35.8872  -47.3999  -56.6769 O.2       1 UNK        -0.4888 
     67 H67        33.1938  -47.7755  -51.3005 H         1 UNK         0.0892 
     68 H68        32.5269  -46.1447  -51.2082 H         1 UNK         0.0892 
     69 H69        34.2732  -46.3881  -51.1279 H         1 UNK         0.0892 
     70 H70        35.3183  -45.9739  -53.0488 H         1 UNK         0.3107 
     71 H71        35.8520  -45.5462  -55.0994 H         1 UNK         0.0773 
     72 H72        33.9261  -44.9608  -56.8292 H         1 UNK         0.0680 
     73 H73        32.8695  -44.9988  -55.4534 H         1 UNK         0.0680 
     74 H74        34.0428  -41.8358  -53.4292 H         1 UNK         0.0650 
     75 H75        34.1006  -43.5301  -53.0254 H         1 UNK         0.0650 
     76 H76        32.0960  -43.5058  -51.6909 H         1 UNK         0.1397 
     77 H77        28.2989  -42.8149  -53.5550 H         1 UNK         0.1363 
     78 H78        31.9111  -42.0988  -55.7413 H         1 UNK         0.1355 
     79 H79        28.1737  -41.8207  -55.7248 H         1 UNK         0.0707 
     80 H80        29.5984  -41.0046  -56.3329 H         1 UNK         0.0707 
     81 H81        28.3418  -41.3148  -58.5096 H         1 UNK         0.1034 
     82 H82        28.6865  -42.6442  -59.5822 H         1 UNK         0.1034 
     83 H83        26.4031  -42.5116  -57.5649 H         1 UNK         0.0482 
     84 H84        25.3898  -43.8751  -60.5415 H         1 UNK         0.3460 
     85 H85        24.7398  -42.4040  -61.2254 H         1 UNK         0.3460 
     86 H86        27.4869  -44.8493  -58.8567 H         1 UNK         0.2989 
     87 H87        25.1447  -46.9175  -57.1928 H         1 UNK         0.0559 
     88 H88        24.2974  -46.9299  -59.5156 H         1 UNK         0.0848 
     89 H89        25.3692  -48.2949  -59.2432 H         1 UNK         0.0848 
     90 H90        25.9336  -46.8939  -60.1525 H         1 UNK         0.0848 
     91 H91        27.1948  -47.3822  -56.6411 H         1 UNK         0.3144 
     92 H92        30.1889  -47.9942  -58.4127 H         1 UNK         0.0727 
     93 H93        29.6216  -46.2649  -55.9448 H         1 UNK         0.0790 
     94 H94        30.7045  -45.8920  -57.2746 H         1 UNK         0.0790 
     95 H95        31.0943  -47.2025  -56.1760 H         1 UNK         0.0790 
     96 H96        29.2785  -48.8586  -55.8503 H         1 UNK         0.3215 
     97 H97        27.4206  -51.7017  -56.9719 H         1 UNK         0.0863 
     98 H98        28.9455  -52.8345  -55.3815 H         1 UNK         0.0808 
     99 H99        30.0740  -51.4845  -55.4562 H         1 UNK         0.0808 
    100 H100       29.7878  -52.4688  -56.8794 H         1 UNK         0.0808 
    101 H101       28.1192  -50.3217  -54.4661 H         1 UNK         0.3118 
    102 H102       25.0342  -48.6209  -54.2260 H         1 UNK         0.0546 
    103 H103       25.8351  -51.1278  -52.6484 H         1 UNK         0.0828 
    104 H104       24.3037  -50.8890  -53.4773 H         1 UNK         0.0828 
    105 H105       24.7174  -49.8745  -52.1067 H         1 UNK         0.0828 
    106 H106       27.1609  -49.0470  -52.3541 H         1 UNK         0.3005 
    107 H107       29.3750  -46.5558  -53.5410 H         1 UNK         0.1257 
    108 H108       27.4228  -46.4283  -51.1795 H         1 UNK         0.0775 
    109 H109       27.6818  -45.1765  -52.3662 H         1 UNK         0.0775 
    110 H110       28.3989  -43.2107  -51.1700 H         1 UNK         0.0840 
    111 H111       29.9271  -43.0023  -50.3640 H         1 UNK         0.0840 
    112 H112       29.5008  -48.0719  -51.2003 H         1 UNK         0.2987 
    113 H113       31.0421  -49.6665  -51.0224 H         1 UNK         0.0785 
    114 H114       28.9641  -51.0708  -51.1961 H         1 UNK         0.0798 
    115 H115       30.3877  -52.0898  -51.0599 H         1 UNK         0.0798 
    116 H116       29.6081  -51.8719  -52.6251 H         1 UNK         0.0798 
    117 H117       31.9450  -50.6036  -53.6683 H         1 UNK         0.3079 
    118 H118       35.2590  -50.8744  -52.3989 H         1 UNK         0.0794 
    119 H119       35.3755  -52.9320  -53.8010 H         1 UNK         0.0786 
    120 H120       33.6208  -53.0933  -53.7304 H         1 UNK         0.0786 
    121 H121       34.5768  -53.2351  -52.2664 H         1 UNK         0.0786 
    122 H122       35.1451  -49.6912  -54.2353 H         1 UNK         0.3032 
    123 H123       34.8702  -49.7129  -56.8371 H         1 UNK         0.1094 
    124 H124       31.8401  -49.3572  -57.1078 H         1 UNK         0.0794 
    125 H125       33.0160  -48.7162  -58.2555 H         1 UNK         0.0794 
    126 H126       32.8518  -50.4528  -58.0321 H         1 UNK         0.0794 
    127 H127       33.1935  -47.8982  -55.1363 H         1 UNK         0.3016 
@<TRIPOS>BOND
     1    1    2 1    
     2    1   67 1    
     3    1   68 1    
     4    1   69 1    
     5    2    3 2    
     6    2    4 am   BACKBONE|DICT|INTERRES
     7    4    5 1    
     8    4   70 1    
     9    5    6 1    
    10    5   65 1    
    11    5   71 1    
    12    6    7 1    
    13    6   72 1    
    14    6   73 1    
    15    7    8 1    
    16    8    9 1    
    17    8   74 1    
    18    8   75 1    
    19    9   10 ar   
    20    9   14 ar   
    21   10   11 ar   
    22   10   76 1    
    23   11   12 ar   
    24   11   48 1    
    25   12   13 ar   
    26   12   77 1    
    27   13   14 ar   
    28   13   15 1    
    29   14   78 1    
    30   15   16 1    
    31   15   79 1    
    32   15   80 1    
    33   16   17 1    
    34   17   18 1    
    35   17   81 1    
    36   17   82 1    
    37   18   19 1    
    38   18   22 1    
    39   18   83 1    
    40   19   20 am   BACKBONE|DICT|INTERRES
    41   19   21 2    
    42   20   84 1    
    43   20   85 1    
    44   22   23 am   BACKBONE|DICT|INTERRES
    45   22   86 1    
    46   23   24 2    
    47   23   25 1    
    48   25   26 1    
    49   25   27 1    
    50   25   87 1    
    51   26   88 1    
    52   26   89 1    
    53   26   90 1    
    54   27   28 am   BACKBONE|DICT|INTERRES
    55   27   91 1    
    56   28   29 2    
    57   28   30 1    
    58   30   31 1    
    59   30   32 1    
    60   30   92 1    
    61   31   93 1    
    62   31   94 1    
    63   31   95 1    
    64   32   33 am   BACKBONE|DICT|INTERRES
    65   32   96 1    
    66   33   34 2    
    67   33   35 1    
    68   35   36 1    
    69   35   37 1    
    70   35   97 1    
    71   36   98 1    
    72   36   99 1    
    73   36  100 1    
    74   37   38 am   BACKBONE|DICT|INTERRES
    75   37  101 1    
    76   38   39 2    
    77   38   40 1    
    78   40   41 1    
    79   40   42 1    
    80   40  102 1    
    81   41  103 1    
    82   41  104 1    
    83   41  105 1    
    84   42   43 am   BACKBONE|DICT|INTERRES
    85   42  106 1    
    86   43   44 2    
    87   43   45 1    
    88   45   46 1    
    89   45   49 1    
    90   45  107 1    
    91   46   47 1    
    92   46  108 1    
    93   46  109 1    
    94   47   48 1    
    95   48  110 1    
    96   48  111 1    
    97   49   50 am   BACKBONE|DICT|INTERRES
    98   49  112 1    
    99   50   51 2    
   100   50   52 1    
   101   52   53 1    
   102   52   54 1    
   103   52  113 1    
   104   53  114 1    
   105   53  115 1    
   106   53  116 1    
   107   54   55 am   BACKBONE|DICT|INTERRES
   108   54  117 1    
   109   55   56 2    
   110   55   57 1    
   111   57   58 1    
   112   57   59 1    
   113   57  118 1    
   114   58  119 1    
   115   58  120 1    
   116   58  121 1    
   117   59   60 am   BACKBONE|DICT|INTERRES
   118   59  122 1    
   119   60   61 2    
   120   60   62 1    
   121   62   63 1    
   122   62   64 1    
   123   62  123 1    
   124   63  124 1    
   125   63  125 1    
   126   63  126 1    
   127   64   65 am   BACKBONE|DICT|INTERRES
   128   64  127 1    
   129   65   66 2    
@<TRIPOS>SUBSTRUCTURE
     1 UNK         1 GROUP             0       ****    0 ROOT    
