@<TRIPOS>MOLECULE
3R134
127   129    1
SMALL
USER_CHARGES


@<TRIPOS>ATOM
      1 CA         33.5811  -47.1415  -58.5324 C.3       0 UNK        -0.1968 
      2 C          34.2831  -46.8096  -57.2245 C.2       0 UNK         0.4852 
      3 O          35.4979  -46.9865  -57.1205 O.2       0 UNK        -0.5359 
      4 N          33.5218  -46.3353  -56.2272 N.am      1 UNK        -0.4300 
      5 CA         33.9530  -45.9360  -54.8807 C.3       1 UNK         0.0863 
      6 C6         35.0079  -44.7957  -54.8901 C.3       11 UNK        -0.0953 
      7 S7         35.0188  -43.8310  -53.3428 S.3       11 UNK        -0.2369 
      8 C8         34.0675  -42.3543  -53.8217 C.3       11 UNK         0.0226 
      9 C9         32.5860  -42.6635  -53.9808 C.ar      11 UNK        -0.0699 
     10 C10        31.7617  -42.7261  -52.8531 C.ar      11 UNK        -0.0804 
     11 C11        30.3964  -42.9959  -52.9851 C.ar      11 UNK        -0.0871 
     12 C12        29.8602  -43.2148  -54.2556 C.ar      11 UNK        -0.1008 
     13 C13        30.6740  -43.1577  -55.3907 C.ar      11 UNK        -0.0735 
     14 C14        32.0361  -42.8760  -55.2493 C.ar      11 UNK        -0.0945 
     15 C15        30.0726  -43.4114  -56.7624 C.3       11 UNK         0.0169 
     16 S16        28.9546  -42.0607  -57.2547 S.3       11 UNK        -0.2669 
     17 C17        27.6246  -43.0279  -58.0384 C.3       11 UNK        -0.0850 
     18 CA         26.6030  -43.5770  -56.9922 C.3       10 UNK         0.0855 
     19 C          25.3659  -42.6584  -56.7612 C.2       10 UNK         0.5543 
     20 N          25.5611  -41.3474  -56.7210 N.am      10 UNK        -0.7343 
     21 O          24.2404  -43.1164  -56.5710 O.2       10 UNK        -0.5027 
     22 N          26.2726  -44.9844  -57.2444 N.am      10 UNK        -0.4495 
     23 C          25.6720  -45.4703  -58.3381 C.2       10 UNK         0.4903 
     24 O          25.2701  -44.7755  -59.2737 O.2       10 UNK        -0.4860 
     25 CA         25.5477  -47.0043  -58.4009 C.3       9 UNK         0.0227 
     26 CB         25.0880  -47.5226  -59.7798 C.3       9 UNK        -0.1964 
     27 N          26.7814  -47.6765  -57.9742 N.am      9 UNK        -0.4231 
     28 C          28.0099  -47.5654  -58.5080 C.2       9 UNK         0.5014 
     29 O          28.2706  -46.8872  -59.5024 O.2       9 UNK        -0.5270 
     30 CA         29.1598  -48.3211  -57.8093 C.3       8 UNK         0.0284 
     31 CB         30.0928  -47.3339  -57.0896 C.3       8 UNK        -0.1977 
     32 N          28.7077  -49.3229  -56.8424 N.am      8 UNK        -0.4342 
     33 C          28.0907  -50.4713  -57.1526 C.2       8 UNK         0.5039 
     34 O          27.9241  -50.8751  -58.3037 O.2       8 UNK        -0.5547 
     35 CA         27.5178  -51.2756  -55.9764 C.3       7 UNK         0.0281 
     36 CB         28.5882  -52.2025  -55.3886 C.3       7 UNK        -0.1963 
     37 N          26.9853  -50.4051  -54.9228 N.am      7 UNK        -0.4444 
     38 C          25.8541  -49.6943  -55.0337 C.2       7 UNK         0.5104 
     39 O          25.1307  -49.7093  -56.0287 O.2       7 UNK        -0.5100 
     40 CA         25.4833  -48.7877  -53.8499 C.3       6 UNK         0.0396 
     41 CB         24.7746  -49.5946  -52.7507 C.3       6 UNK        -0.1801 
     42 N          26.6403  -48.0935  -53.2820 N.am      6 UNK        -0.4747 
     43 C          27.3060  -47.0992  -53.8880 C.2       6 UNK         0.5012 
     44 O          27.0231  -46.6588  -55.0035 O.2       6 UNK        -0.5003 
     45 CA         28.5004  -46.5062  -53.1149 C.3       5 UNK         0.0782 
     46 C46        28.0023  -45.4168  -52.1305 C.3       11 UNK        -0.0868 
     47 S47        29.3279  -44.7089  -51.0892 S.3       11 UNK        -0.2515 
     48 C48        29.5003  -43.0257  -51.7569 C.3       11 UNK         0.0199 
     49 N          29.3248  -47.5167  -52.4394 N.am      5 UNK        -0.4607 
     50 C          29.9311  -48.5614  -53.0146 C.2       4 UNK         0.5031 
     51 O          29.7363  -48.9166  -54.1800 O.2       4 UNK        -0.5119 
     52 CA         30.9292  -49.3132  -52.1227 C.3       4 UNK         0.0263 
     53 CB         30.2229  -50.2967  -51.1669 C.3       4 UNK        -0.1967 
     54 N          31.9910  -49.9186  -52.9356 N.am      4 UNK        -0.4237 
     55 C          32.0369  -51.1180  -53.5382 C.2       3 UNK         0.4908 
     56 O          31.2658  -52.0486  -53.3068 O.2       3 UNK        -0.5102 
     57 CA         33.1259  -51.3256  -54.6106 C.3       3 UNK         0.0241 
     58 CB         32.4872  -51.3342  -56.0112 C.3       3 UNK        -0.1971 
     59 N          34.1810  -50.3101  -54.5859 N.am      3 UNK        -0.4139 
     60 C          35.1398  -50.2140  -53.6552 C.2       2 UNK         0.5016 
     61 O          35.3015  -51.0324  -52.7496 O.2       2 UNK        -0.5319 
     62 CA         36.0548  -48.9785  -53.7306 C.3       2 UNK         0.0286 
     63 CB         37.3852  -49.3343  -54.4130 C.3       2 UNK        -0.1963 
     64 N          35.4555  -47.8294  -54.4211 N.am      2 UNK        -0.4790 
     65 C          34.3802  -47.1399  -54.0149 C.2       1 UNK         0.5024 
     66 O          33.7125  -47.4473  -53.0271 O.2       1 UNK        -0.4888 
     67 H67        32.7185  -46.4971  -58.6987 H         1 UNK         0.0892 
     68 H68        34.2620  -47.0065  -59.3725 H         1 UNK         0.0892 
     69 H69        33.2458  -48.1784  -58.5291 H         1 UNK         0.0892 
     70 H70        32.5311  -46.2320  -56.3894 H         1 UNK         0.3107 
     71 H71        33.0472  -45.5404  -54.4175 H         1 UNK         0.0773 
     72 H72        36.0133  -45.1812  -55.0677 H         1 UNK         0.0680 
     73 H73        34.8128  -44.1135  -55.7184 H         1 UNK         0.0680 
     74 H74        34.4781  -41.9314  -54.7399 H         1 UNK         0.0650 
     75 H75        34.1978  -41.5909  -53.0533 H         1 UNK         0.0650 
     76 H76        32.1852  -42.5604  -51.8717 H         1 UNK         0.1397 
     77 H77        28.8049  -43.4193  -54.3651 H         1 UNK         0.1363 
     78 H78        32.6690  -42.8260  -56.1247 H         1 UNK         0.1355 
     79 H79        30.8488  -43.5282  -57.5204 H         1 UNK         0.0707 
     80 H80        29.5299  -44.3568  -56.7288 H         1 UNK         0.0707 
     81 H81        28.0926  -43.8411  -58.5969 H         1 UNK         0.1034 
     82 H82        27.1305  -42.4197  -58.7986 H         1 UNK         0.1034 
     83 H83        27.0892  -43.6181  -56.0176 H         1 UNK         0.0482 
     84 H84        26.4856  -40.9635  -56.8471 H         1 UNK         0.3460 
     85 H85        24.7775  -40.7353  -56.5552 H         1 UNK         0.3460 
     86 H86        26.5320  -45.6334  -56.5050 H         1 UNK         0.2989 
     87 H87        24.7834  -47.2795  -57.6726 H         1 UNK         0.0559 
     88 H88        25.7858  -47.2454  -60.5706 H         1 UNK         0.0848 
     89 H89        24.1142  -47.1106  -60.0469 H         1 UNK         0.0848 
     90 H90        24.9920  -48.6084  -59.7823 H         1 UNK         0.0848 
     91 H91        26.6903  -48.2478  -57.1450 H         1 UNK         0.3144 
     92 H92        29.7321  -48.8324  -58.5861 H         1 UNK         0.0727 
     93 H93        30.9536  -47.8493  -56.6638 H         1 UNK         0.0790 
     94 H94        29.5784  -46.8164  -56.2795 H         1 UNK         0.0790 
     95 H95        30.4651  -46.5755  -57.7788 H         1 UNK         0.0790 
     96 H96        28.8793  -49.1165  -55.8599 H         1 UNK         0.3215 
     97 H97        26.7012  -51.8932  -56.3573 H         1 UNK         0.0863 
     98 H98        29.4373  -51.6298  -55.0201 H         1 UNK         0.0808 
     99 H99        28.9644  -52.8951  -56.1425 H         1 UNK         0.0808 
    100 H100       28.1977  -52.7978  -54.5632 H         1 UNK         0.0808 
    101 H101       27.5493  -50.2919  -54.0926 H         1 UNK         0.3118 
    102 H102       24.7843  -48.0329  -54.2172 H         1 UNK         0.0546 
    103 H103       24.4310  -48.9481  -51.9431 H         1 UNK         0.0828 
    104 H104       25.4264  -50.3548  -52.3184 H         1 UNK         0.0828 
    105 H105       23.8970  -50.1065  -53.1481 H         1 UNK         0.0828 
    106 H106       26.9527  -48.3894  -52.3681 H         1 UNK         0.3005 
    107 H107       29.1452  -46.0269  -53.8542 H         1 UNK         0.1257 
    108 H108       27.2555  -45.8328  -51.4511 H         1 UNK         0.0775 
    109 H109       27.4942  -44.6170  -52.6721 H         1 UNK         0.0775 
    110 H110       28.5200  -42.6049  -51.9854 H         1 UNK         0.0840 
    111 H111       29.9218  -42.3875  -50.9786 H         1 UNK         0.0840 
    112 H112       29.5476  -47.3017  -51.4777 H         1 UNK         0.2987 
    113 H113       31.4407  -48.5693  -51.5093 H         1 UNK         0.0785 
    114 H114       30.9422  -50.8877  -50.6000 H         1 UNK         0.0798 
    115 H115       29.6048  -49.7608  -50.4460 H         1 UNK         0.0798 
    116 H116       29.5652  -50.9839  -51.7002 H         1 UNK         0.0798 
    117 H117       32.7103  -49.2533  -53.1959 H         1 UNK         0.3079 
    118 H118       33.5830  -52.3012  -54.4316 H         1 UNK         0.0794 
    119 H119       31.7438  -52.1281  -56.0954 H         1 UNK         0.0786 
    120 H120       33.2311  -51.5081  -56.7888 H         1 UNK         0.0786 
    121 H121       31.9809  -50.3927  -56.2307 H         1 UNK         0.0786 
    122 H122       34.1466  -49.5967  -55.2991 H         1 UNK         0.3032 
    123 H123       36.2649  -48.6740  -52.7027 H         1 UNK         0.1094 
    124 H124       37.2401  -49.6169  -55.4566 H         1 UNK         0.0794 
    125 H125       38.0815  -48.4959  -54.3860 H         1 UNK         0.0794 
    126 H126       37.8708  -50.1728  -53.9115 H         1 UNK         0.0794 
    127 H127       35.8736  -47.5459  -55.3045 H         1 UNK         0.3016 
@<TRIPOS>BOND
     1    1    2 1    
     2    1   67 1    
     3    1   68 1    
     4    1   69 1    
     5    2    3 2    
     6    2    4 am   BACKBONE|DICT|INTERRES
     7    4    5 1    
     8    4   70 1    
     9    5    6 1    
    10    5   65 1    
    11    5   71 1    
    12    6    7 1    
    13    6   72 1    
    14    6   73 1    
    15    7    8 1    
    16    8    9 1    
    17    8   74 1    
    18    8   75 1    
    19    9   10 ar   
    20    9   14 ar   
    21   10   11 ar   
    22   10   76 1    
    23   11   12 ar   
    24   11   48 1    
    25   12   13 ar   
    26   12   77 1    
    27   13   14 ar   
    28   13   15 1    
    29   14   78 1    
    30   15   16 1    
    31   15   79 1    
    32   15   80 1    
    33   16   17 1    
    34   17   18 1    
    35   17   81 1    
    36   17   82 1    
    37   18   19 1    
    38   18   22 1    
    39   18   83 1    
    40   19   20 am   BACKBONE|DICT|INTERRES
    41   19   21 2    
    42   20   84 1    
    43   20   85 1    
    44   22   23 am   BACKBONE|DICT|INTERRES
    45   22   86 1    
    46   23   24 2    
    47   23   25 1    
    48   25   26 1    
    49   25   27 1    
    50   25   87 1    
    51   26   88 1    
    52   26   89 1    
    53   26   90 1    
    54   27   28 am   BACKBONE|DICT|INTERRES
    55   27   91 1    
    56   28   29 2    
    57   28   30 1    
    58   30   31 1    
    59   30   32 1    
    60   30   92 1    
    61   31   93 1    
    62   31   94 1    
    63   31   95 1    
    64   32   33 am   BACKBONE|DICT|INTERRES
    65   32   96 1    
    66   33   34 2    
    67   33   35 1    
    68   35   36 1    
    69   35   37 1    
    70   35   97 1    
    71   36   98 1    
    72   36   99 1    
    73   36  100 1    
    74   37   38 am   BACKBONE|DICT|INTERRES
    75   37  101 1    
    76   38   39 2    
    77   38   40 1    
    78   40   41 1    
    79   40   42 1    
    80   40  102 1    
    81   41  103 1    
    82   41  104 1    
    83   41  105 1    
    84   42   43 am   BACKBONE|DICT|INTERRES
    85   42  106 1    
    86   43   44 2    
    87   43   45 1    
    88   45   46 1    
    89   45   49 1    
    90   45  107 1    
    91   46   47 1    
    92   46  108 1    
    93   46  109 1    
    94   47   48 1    
    95   48  110 1    
    96   48  111 1    
    97   49   50 am   BACKBONE|DICT|INTERRES
    98   49  112 1    
    99   50   51 2    
   100   50   52 1    
   101   52   53 1    
   102   52   54 1    
   103   52  113 1    
   104   53  114 1    
   105   53  115 1    
   106   53  116 1    
   107   54   55 am   BACKBONE|DICT|INTERRES
   108   54  117 1    
   109   55   56 2    
   110   55   57 1    
   111   57   58 1    
   112   57   59 1    
   113   57  118 1    
   114   58  119 1    
   115   58  120 1    
   116   58  121 1    
   117   59   60 am   BACKBONE|DICT|INTERRES
   118   59  122 1    
   119   60   61 2    
   120   60   62 1    
   121   62   63 1    
   122   62   64 1    
   123   62  123 1    
   124   63  124 1    
   125   63  125 1    
   126   63  126 1    
   127   64   65 am   BACKBONE|DICT|INTERRES
   128   64  127 1    
   129   65   66 2    
@<TRIPOS>SUBSTRUCTURE
     1 UNK         1 GROUP             0       ****    0 ROOT    
