@<TRIPOS>MOLECULE
3R134
127   129    1
SMALL
USER_CHARGES


@<TRIPOS>ATOM
      1 CA         33.5623  -42.4974  -52.3208 C.3       0 UNK        -0.1968 
      2 C          34.4533  -43.6685  -52.7081 C.2       0 UNK         0.4852 
      3 O          35.5655  -43.7906  -52.1946 O.2       0 UNK        -0.5359 
      4 N          33.9675  -44.5348  -53.6057 N.am      1 UNK        -0.4300 
      5 CA         34.6912  -45.6775  -54.1827 C.3       1 UNK         0.0863 
      6 C6         34.1062  -46.1070  -55.5533 C.3       11 UNK        -0.0953 
      7 S7         33.8399  -44.7505  -56.7415 S.3       11 UNK        -0.2369 
      8 C8         32.0483  -44.8818  -57.0383 C.3       11 UNK         0.0226 
      9 C9         31.2512  -44.0421  -56.0524 C.ar      11 UNK        -0.0699 
     10 C10        30.9652  -44.5173  -54.7686 C.ar      11 UNK        -0.0804 
     11 C11        30.2230  -43.7396  -53.8728 C.ar      11 UNK        -0.0871 
     12 C12        29.7428  -42.4910  -54.2810 C.ar      11 UNK        -0.1008 
     13 C13        30.0017  -42.0183  -55.5702 C.ar      11 UNK        -0.0735 
     14 C14        30.7748  -42.7885  -56.4421 C.ar      11 UNK        -0.0945 
     15 C15        29.4229  -40.6920  -56.0390 C.3       11 UNK         0.0169 
     16 S16        28.2229  -40.9266  -57.3914 S.3       11 UNK        -0.2669 
     17 C17        26.8247  -41.7397  -56.5377 C.3       11 UNK        -0.0850 
     18 CA         26.9061  -43.2926  -56.4815 C.3       10 UNK         0.0855 
     19 C          25.6305  -43.8861  -55.8132 C.2       10 UNK         0.5543 
     20 N          24.8406  -44.7126  -56.4897 N.am      10 UNK        -0.7343 
     21 O          25.3467  -43.5802  -54.6578 O.2       10 UNK        -0.5027 
     22 N          27.2405  -43.8899  -57.7839 N.am      10 UNK        -0.4495 
     23 C          27.7894  -45.1001  -57.9365 C.2       10 UNK         0.4903 
     24 O          28.1546  -45.8237  -57.0089 O.2       10 UNK        -0.4860 
     25 CA         27.9346  -45.5985  -59.3834 C.3       9 UNK         0.0227 
     26 CB         29.4029  -45.9152  -59.7142 C.3       9 UNK        -0.1964 
     27 N          27.1154  -46.7904  -59.6076 N.am      9 UNK        -0.4231 
     28 C          25.7762  -46.8333  -59.5355 C.2       9 UNK         0.5014 
     29 O          25.0686  -45.8429  -59.3401 O.2       9 UNK        -0.5270 
     30 CA         25.1090  -48.2128  -59.7034 C.3       8 UNK         0.0284 
     31 CB         24.7072  -48.4408  -61.1698 C.3       8 UNK        -0.1977 
     32 N          25.9446  -49.3304  -59.2466 N.am      8 UNK        -0.4342 
     33 C          26.2995  -49.5346  -57.9700 C.2       8 UNK         0.5039 
     34 O          25.9042  -48.8261  -57.0422 O.2       8 UNK        -0.5547 
     35 CA         27.2566  -50.7147  -57.7037 C.3       7 UNK         0.0281 
     36 CB         28.5158  -50.6342  -58.5888 C.3       7 UNK        -0.1963 
     37 N          27.6735  -50.7558  -56.2997 N.am      7 UNK        -0.4444 
     38 C          26.9474  -51.2770  -55.2990 C.2       7 UNK         0.5104 
     39 O          25.8931  -51.8909  -55.4732 O.2       7 UNK        -0.5100 
     40 CA         27.4790  -51.1111  -53.8591 C.3       6 UNK         0.0396 
     41 CB         28.0041  -52.4532  -53.3249 C.3       6 UNK        -0.1801 
     42 N          28.5355  -50.1030  -53.7338 N.am      6 UNK        -0.4747 
     43 C          28.3453  -48.7747  -53.8129 C.2       6 UNK         0.5012 
     44 O          27.2275  -48.2640  -53.8705 O.2       6 UNK        -0.5003 
     45 CA         29.6040  -47.8695  -53.8545 C.3       5 UNK         0.0782 
     46 C46        29.7755  -47.0637  -52.5412 C.3       11 UNK        -0.0868 
     47 S47        28.7167  -45.5804  -52.4374 S.3       11 UNK        -0.2515 
     48 C48        29.9409  -44.2323  -52.4605 C.3       11 UNK         0.0199 
     49 N          30.8309  -48.6212  -54.1633 N.am      5 UNK        -0.4607 
     50 C          31.0803  -49.2295  -55.3335 C.2       4 UNK         0.5031 
     51 O          30.3450  -49.1167  -56.3117 O.2       4 UNK        -0.5119 
     52 CA         32.2913  -50.1800  -55.4258 C.3       4 UNK         0.0263 
     53 CB         33.3405  -49.6830  -56.4309 C.3       4 UNK        -0.1967 
     54 N          32.9350  -50.4606  -54.1390 N.am      4 UNK        -0.4237 
     55 C          32.4051  -51.2440  -53.1880 C.2       3 UNK         0.4908 
     56 O          31.3268  -51.8250  -53.3126 O.2       3 UNK        -0.5102 
     57 CA         33.1756  -51.3670  -51.8598 C.3       3 UNK         0.0241 
     58 CB         34.1091  -52.5876  -51.8934 C.3       3 UNK        -0.1971 
     59 N          33.9478  -50.1737  -51.4908 N.am      3 UNK        -0.4139 
     60 C          33.4368  -48.9461  -51.3194 C.2       2 UNK         0.5016 
     61 O          32.2469  -48.6800  -51.4875 O.2       2 UNK        -0.5319 
     62 CA         34.3985  -47.8079  -50.9278 C.3       2 UNK         0.0286 
     63 CB         35.8293  -48.2730  -50.5692 C.3       2 UNK        -0.1963 
     64 N          34.4322  -46.7632  -51.9599 N.am      2 UNK        -0.4790 
     65 C          34.7944  -46.9079  -53.2444 C.2       1 UNK         0.5024 
     66 O          35.1769  -47.9827  -53.7127 O.2       1 UNK        -0.4888 
     67 H67        34.1317  -41.5686  -52.3447 H         1 UNK         0.0892 
     68 H68        32.7168  -42.3873  -52.9997 H         1 UNK         0.0892 
     69 H69        33.1762  -42.6349  -51.3113 H         1 UNK         0.0892 
     70 H70        33.0630  -44.3511  -54.0166 H         1 UNK         0.3107 
     71 H71        35.7183  -45.3514  -54.3600 H         1 UNK         0.0773 
     72 H72        33.1748  -46.6573  -55.4126 H         1 UNK         0.0680 
     73 H73        34.7963  -46.7962  -56.0419 H         1 UNK         0.0680 
     74 H74        31.7202  -45.9221  -57.0048 H         1 UNK         0.0650 
     75 H75        31.8518  -44.5439  -58.0564 H         1 UNK         0.0650 
     76 H76        31.3148  -45.4946  -54.4698 H         1 UNK         0.1397 
     77 H77        29.1498  -41.8940  -53.6014 H         1 UNK         0.1363 
     78 H78        30.9762  -42.4213  -57.4392 H         1 UNK         0.1355 
     79 H79        28.9468  -40.1543  -55.2176 H         1 UNK         0.0707 
     80 H80        30.2351  -40.0560  -56.3938 H         1 UNK         0.0707 
     81 H81        25.9120  -41.4351  -57.0532 H         1 UNK         0.1034 
     82 H82        26.7441  -41.3299  -55.5291 H         1 UNK         0.1034 
     83 H83        27.7187  -43.5489  -55.8024 H         1 UNK         0.0482 
     84 H84        25.0593  -44.9802  -57.4424 H         1 UNK         0.3460 
     85 H85        24.0218  -45.0885  -56.0395 H         1 UNK         0.3460 
     86 H86        26.9591  -43.3651  -58.5986 H         1 UNK         0.2989 
     87 H87        27.5915  -44.8215  -60.0699 H         1 UNK         0.0559 
     88 H88        29.8104  -46.6853  -59.0571 H         1 UNK         0.0848 
     89 H89        30.0232  -45.0259  -59.5986 H         1 UNK         0.0848 
     90 H90        29.5164  -46.2553  -60.7436 H         1 UNK         0.0848 
     91 H91        27.6089  -47.6604  -59.7361 H         1 UNK         0.3144 
     92 H92        24.1991  -48.2081  -59.0991 H         1 UNK         0.0727 
     93 H93        24.1532  -49.3721  -61.2904 H         1 UNK         0.0790 
     94 H94        25.5765  -48.4774  -61.8277 H         1 UNK         0.0790 
     95 H95        24.0632  -47.6355  -61.5264 H         1 UNK         0.0790 
     96 H96        26.2826  -49.9650  -59.9562 H         1 UNK         0.3215 
     97 H97        26.7248  -51.6387  -57.9411 H         1 UNK         0.0863 
     98 H98        29.0008  -49.6601  -58.5137 H         1 UNK         0.0808 
     99 H99        28.2784  -50.8004  -59.6397 H         1 UNK         0.0808 
    100 H100       29.2483  -51.3912  -58.3076 H         1 UNK         0.0808 
    101 H101       28.5005  -50.2183  -56.0684 H         1 UNK         0.3118 
    102 H102       26.6383  -50.8033  -53.2340 H         1 UNK         0.0546 
    103 H103       28.3516  -52.3648  -52.2954 H         1 UNK         0.0828 
    104 H104       28.8319  -52.8301  -53.9268 H         1 UNK         0.0828 
    105 H105       27.2209  -53.2124  -53.3379 H         1 UNK         0.0828 
    106 H106       29.4828  -50.4538  -53.6594 H         1 UNK         0.3005 
    107 H107       29.4459  -47.1668  -54.6773 H         1 UNK         0.1257 
    108 H108       30.8118  -46.7412  -52.4413 H         1 UNK         0.0775 
    109 H109       29.5895  -47.6916  -51.6675 H         1 UNK         0.0775 
    110 H110       29.5505  -43.4159  -51.8508 H         1 UNK         0.0840 
    111 H111       30.8686  -44.5383  -51.9756 H         1 UNK         0.0840 
    112 H112       31.4579  -48.7753  -53.3798 H         1 UNK         0.2987 
    113 H113       31.8975  -51.1218  -55.8147 H         1 UNK         0.0785 
    114 H114       34.0384  -50.4789  -56.6912 H         1 UNK         0.0798 
    115 H115       32.8788  -49.3433  -57.3592 H         1 UNK         0.0798 
    116 H116       33.9226  -48.8591  -56.0285 H         1 UNK         0.0798 
    117 H117       33.8087  -49.9861  -53.9487 H         1 UNK         0.3079 
    118 H118       32.4338  -51.5266  -51.0744 H         1 UNK         0.0794 
    119 H119       34.5807  -52.7545  -50.9247 H         1 UNK         0.0786 
    120 H120       34.8985  -52.4724  -52.6373 H         1 UNK         0.0786 
    121 H121       33.5565  -53.4949  -52.1422 H         1 UNK         0.0786 
    122 H122       34.9412  -50.2975  -51.3585 H         1 UNK         0.3032 
    123 H123       33.9687  -47.3511  -50.0347 H         1 UNK         0.1094 
    124 H124       36.3444  -48.7344  -51.4123 H         1 UNK         0.0794 
    125 H125       36.4379  -47.4311  -50.2386 H         1 UNK         0.0794 
    126 H126       35.8169  -48.9935  -49.7501 H         1 UNK         0.0794 
    127 H127       34.1251  -45.8463  -51.6676 H         1 UNK         0.3016 
@<TRIPOS>BOND
     1    1    2 1    
     2    1   67 1    
     3    1   68 1    
     4    1   69 1    
     5    2    3 2    
     6    2    4 am   BACKBONE|DICT|INTERRES
     7    4    5 1    
     8    4   70 1    
     9    5    6 1    
    10    5   65 1    
    11    5   71 1    
    12    6    7 1    
    13    6   72 1    
    14    6   73 1    
    15    7    8 1    
    16    8    9 1    
    17    8   74 1    
    18    8   75 1    
    19    9   10 ar   
    20    9   14 ar   
    21   10   11 ar   
    22   10   76 1    
    23   11   12 ar   
    24   11   48 1    
    25   12   13 ar   
    26   12   77 1    
    27   13   14 ar   
    28   13   15 1    
    29   14   78 1    
    30   15   16 1    
    31   15   79 1    
    32   15   80 1    
    33   16   17 1    
    34   17   18 1    
    35   17   81 1    
    36   17   82 1    
    37   18   19 1    
    38   18   22 1    
    39   18   83 1    
    40   19   20 am   BACKBONE|DICT|INTERRES
    41   19   21 2    
    42   20   84 1    
    43   20   85 1    
    44   22   23 am   BACKBONE|DICT|INTERRES
    45   22   86 1    
    46   23   24 2    
    47   23   25 1    
    48   25   26 1    
    49   25   27 1    
    50   25   87 1    
    51   26   88 1    
    52   26   89 1    
    53   26   90 1    
    54   27   28 am   BACKBONE|DICT|INTERRES
    55   27   91 1    
    56   28   29 2    
    57   28   30 1    
    58   30   31 1    
    59   30   32 1    
    60   30   92 1    
    61   31   93 1    
    62   31   94 1    
    63   31   95 1    
    64   32   33 am   BACKBONE|DICT|INTERRES
    65   32   96 1    
    66   33   34 2    
    67   33   35 1    
    68   35   36 1    
    69   35   37 1    
    70   35   97 1    
    71   36   98 1    
    72   36   99 1    
    73   36  100 1    
    74   37   38 am   BACKBONE|DICT|INTERRES
    75   37  101 1    
    76   38   39 2    
    77   38   40 1    
    78   40   41 1    
    79   40   42 1    
    80   40  102 1    
    81   41  103 1    
    82   41  104 1    
    83   41  105 1    
    84   42   43 am   BACKBONE|DICT|INTERRES
    85   42  106 1    
    86   43   44 2    
    87   43   45 1    
    88   45   46 1    
    89   45   49 1    
    90   45  107 1    
    91   46   47 1    
    92   46  108 1    
    93   46  109 1    
    94   47   48 1    
    95   48  110 1    
    96   48  111 1    
    97   49   50 am   BACKBONE|DICT|INTERRES
    98   49  112 1    
    99   50   51 2    
   100   50   52 1    
   101   52   53 1    
   102   52   54 1    
   103   52  113 1    
   104   53  114 1    
   105   53  115 1    
   106   53  116 1    
   107   54   55 am   BACKBONE|DICT|INTERRES
   108   54  117 1    
   109   55   56 2    
   110   55   57 1    
   111   57   58 1    
   112   57   59 1    
   113   57  118 1    
   114   58  119 1    
   115   58  120 1    
   116   58  121 1    
   117   59   60 am   BACKBONE|DICT|INTERRES
   118   59  122 1    
   119   60   61 2    
   120   60   62 1    
   121   62   63 1    
   122   62   64 1    
   123   62  123 1    
   124   63  124 1    
   125   63  125 1    
   126   63  126 1    
   127   64   65 am   BACKBONE|DICT|INTERRES
   128   64  127 1    
   129   65   66 2    
@<TRIPOS>SUBSTRUCTURE
     1 UNK         1 GROUP             0       ****    0 ROOT    
