@<TRIPOS>MOLECULE
3R134
127   129    1
SMALL
USER_CHARGES


@<TRIPOS>ATOM
      1 CA         37.6573  -46.5399  -54.0594 C.3       0 UNK        -0.1968 
      2 C          36.1956  -46.5938  -54.4774 C.2       0 UNK         0.4852 
      3 O          35.6510  -47.6845  -54.6571 O.2       0 UNK        -0.5359 
      4 N          35.5478  -45.4270  -54.6142 N.am      1 UNK        -0.4300 
      5 CA         34.1483  -45.2713  -55.0375 C.3       1 UNK         0.0863 
      6 C6         33.7479  -43.7952  -55.2945 C.3       11 UNK        -0.0953 
      7 S7         34.3312  -42.5792  -54.0569 S.3       11 UNK        -0.2369 
      8 C8         33.1214  -42.6936  -52.6895 C.3       11 UNK         0.0226 
      9 C9         31.6520  -42.5653  -53.0874 C.ar      11 UNK        -0.0699 
     10 C10        30.6912  -43.3025  -52.3865 C.ar      11 UNK        -0.0804 
     11 C11        29.3336  -43.1922  -52.7036 C.ar      11 UNK        -0.0871 
     12 C12        28.9373  -42.3354  -53.7330 C.ar      11 UNK        -0.1008 
     13 C13        29.8861  -41.6082  -54.4564 C.ar      11 UNK        -0.0735 
     14 C14        31.2379  -41.7092  -54.1148 C.ar      11 UNK        -0.0945 
     15 C15        29.4539  -40.7357  -55.6268 C.3       11 UNK         0.0169 
     16 S16        28.6557  -41.7075  -56.9479 S.3       11 UNK        -0.2669 
     17 C17        29.9035  -43.0077  -57.2594 C.3       11 UNK        -0.0850 
     18 CA         29.7842  -43.6287  -58.6811 C.3       10 UNK         0.0855 
     19 C          30.9562  -44.6004  -59.0173 C.2       10 UNK         0.5543 
     20 N          30.7578  -45.5834  -59.8868 N.am      10 UNK        -0.7343 
     21 O          32.0678  -44.4423  -58.5185 O.2       10 UNK        -0.5027 
     22 N          28.4366  -44.1586  -58.9719 N.am      10 UNK        -0.4495 
     23 C          27.8289  -45.1731  -58.3412 C.2       10 UNK         0.4903 
     24 O          28.3482  -45.8310  -57.4392 O.2       10 UNK        -0.4860 
     25 CA         26.3785  -45.4519  -58.7861 C.3       9 UNK         0.0227 
     26 CB         26.2899  -45.8344  -60.2807 C.3       9 UNK        -0.1964 
     27 N          25.6800  -46.4262  -57.9328 N.am      9 UNK        -0.4231 
     28 C          25.8664  -47.7533  -57.8496 C.2       9 UNK         0.5014 
     29 O          26.6322  -48.3952  -58.5710 O.2       9 UNK        -0.5270 
     30 CA         25.0058  -48.4593  -56.7822 C.3       8 UNK         0.0284 
     31 CB         23.5509  -48.6531  -57.2595 C.3       8 UNK        -0.1977 
     32 N          25.5941  -49.7098  -56.2826 N.am      8 UNK        -0.4342 
     33 C          25.7031  -50.9070  -56.8826 C.2       8 UNK         0.5039 
     34 O          25.1922  -51.1868  -57.9689 O.2       8 UNK        -0.5547 
     35 CA         26.5024  -51.9994  -56.1385 C.3       7 UNK         0.0281 
     36 CB         27.4655  -52.7361  -57.0881 C.3       7 UNK        -0.1963 
     37 N          27.2817  -51.4454  -55.0284 N.am      7 UNK        -0.4444 
     38 C          27.0718  -51.6822  -53.7259 C.2       7 UNK         0.5104 
     39 O          26.2227  -52.4681  -53.3044 O.2       7 UNK        -0.5100 
     40 CA         27.9325  -50.9014  -52.7069 C.3       6 UNK         0.0396 
     41 CB         29.0752  -51.7862  -52.1847 C.3       6 UNK        -0.1801 
     42 N          28.4981  -49.6456  -53.2127 N.am      6 UNK        -0.4747 
     43 C          27.7917  -48.6164  -53.7043 C.2       6 UNK         0.5012 
     44 O          26.5609  -48.5900  -53.7283 O.2       6 UNK        -0.5003 
     45 CA         28.5864  -47.4724  -54.3667 C.3       5 UNK         0.0782 
     46 C46        28.9259  -46.3532  -53.3537 C.3       11 UNK        -0.0868 
     47 S47        27.5070  -45.2700  -52.9914 S.3       11 UNK        -0.2515 
     48 C48        28.2927  -44.0030  -51.9430 C.3       11 UNK         0.0199 
     49 N          29.7881  -47.9347  -55.0731 N.am      5 UNK        -0.4607 
     50 C          29.8345  -48.8658  -56.0379 C.2       4 UNK         0.5031 
     51 O          28.8597  -49.5058  -56.4237 O.2       4 UNK        -0.5119 
     52 CA         31.2173  -49.1915  -56.6200 C.3       4 UNK         0.0263 
     53 CB         31.6803  -48.1019  -57.5989 C.3       4 UNK        -0.1967 
     54 N          32.2039  -49.3703  -55.5554 N.am      4 UNK        -0.4237 
     55 C          32.2779  -50.4610  -54.7783 C.2       3 UNK         0.4908 
     56 O          31.6091  -51.4786  -54.9583 O.2       3 UNK        -0.5102 
     57 CA         33.2406  -50.4012  -53.5808 C.3       3 UNK         0.0241 
     58 CB         34.6315  -50.9234  -53.9741 C.3       3 UNK        -0.1971 
     59 N          33.3568  -49.0518  -53.0219 N.am      3 UNK        -0.4139 
     60 C          32.3791  -48.4371  -52.3371 C.2       2 UNK         0.5016 
     61 O          31.2944  -48.9587  -52.0762 O.2       2 UNK        -0.5319 
     62 CA         32.6312  -46.9784  -51.9121 C.3       2 UNK         0.0286 
     63 CB         33.2705  -46.9208  -50.5169 C.3       2 UNK        -0.1963 
     64 N          33.4617  -46.2297  -52.8601 N.am      2 UNK        -0.4790 
     65 C          33.1220  -45.9827  -54.1341 C.2       1 UNK         0.5024 
     66 O          32.0535  -46.3414  -54.6236 O.2       1 UNK        -0.4888 
     67 H67        37.9979  -45.5169  -53.8975 H         1 UNK         0.0892 
     68 H68        37.8041  -47.0974  -53.1340 H         1 UNK         0.0892 
     69 H69        38.2831  -46.9889  -54.8310 H         1 UNK         0.0892 
     70 H70        36.0367  -44.5607  -54.4347 H         1 UNK         0.3107 
     71 H71        34.0720  -45.7840  -55.9995 H         1 UNK         0.0773 
     72 H72        32.6714  -43.6957  -55.4443 H         1 UNK         0.0680 
     73 H73        34.1828  -43.4869  -56.2464 H         1 UNK         0.0680 
     74 H74        33.2905  -43.6292  -52.1575 H         1 UNK         0.0650 
     75 H75        33.3468  -41.9014  -51.9748 H         1 UNK         0.0650 
     76 H76        31.0015  -43.9633  -51.5888 H         1 UNK         0.1397 
     77 H77        27.8905  -42.2601  -53.9949 H         1 UNK         0.1363 
     78 H78        31.9710  -41.1344  -54.6634 H         1 UNK         0.1355 
     79 H79        28.7557  -39.9769  -55.2711 H         1 UNK         0.0707 
     80 H80        30.3052  -40.1993  -56.0491 H         1 UNK         0.0707 
     81 H81        29.8118  -43.7787  -56.4917 H         1 UNK         0.1034 
     82 H82        30.8924  -42.5656  -57.1243 H         1 UNK         0.1034 
     83 H83        29.9177  -42.8085  -59.3872 H         1 UNK         0.0482 
     84 H84        29.8519  -45.7175  -60.3055 H         1 UNK         0.3460 
     85 H85        31.5219  -46.1960  -60.1210 H         1 UNK         0.3460 
     86 H86        27.9318  -43.6698  -59.6966 H         1 UNK         0.2989 
     87 H87        25.8330  -44.5160  -58.6545 H         1 UNK         0.0559 
     88 H88        26.9248  -46.6876  -60.5219 H         1 UNK         0.0848 
     89 H89        26.6040  -45.0102  -60.9216 H         1 UNK         0.0848 
     90 H90        25.2686  -46.0872  -60.5658 H         1 UNK         0.0848 
     91 H91        25.0306  -46.0127  -57.2781 H         1 UNK         0.3144 
     92 H92        24.9785  -47.8020  -55.9114 H         1 UNK         0.0727 
     93 H93        23.4986  -49.2245  -58.1867 H         1 UNK         0.0790 
     94 H94        23.0708  -47.6927  -57.4502 H         1 UNK         0.0790 
     95 H95        22.9516  -49.1708  -56.5104 H         1 UNK         0.0790 
     96 H96        26.0511  -49.6084  -55.3823 H         1 UNK         0.3215 
     97 H97        25.7724  -52.7217  -55.7674 H         1 UNK         0.0863 
     98 H98        28.1853  -52.0504  -57.5377 H         1 UNK         0.0808 
     99 H99        26.9239  -53.2218  -57.9008 H         1 UNK         0.0808 
    100 H100       28.0236  -53.5121  -56.5637 H         1 UNK         0.0808 
    101 H101       27.9887  -50.7650  -55.3022 H         1 UNK         0.3118 
    102 H102       27.2855  -50.6477  -51.8650 H         1 UNK         0.0546 
    103 H103       29.6462  -51.2805  -51.4055 H         1 UNK         0.0828 
    104 H104       29.7671  -52.0607  -52.9818 H         1 UNK         0.0828 
    105 H105       28.6893  -52.7113  -51.7544 H         1 UNK         0.0828 
    106 H106       29.5086  -49.5600  -53.1870 H         1 UNK         0.3005 
    107 H107       27.9405  -47.0508  -55.1397 H         1 UNK         0.1257 
    108 H108       29.7055  -45.7137  -53.7676 H         1 UNK         0.0775 
    109 H109       29.3255  -46.7615  -52.4238 H         1 UNK         0.0775 
    110 H110       27.5217  -43.3297  -51.5656 H         1 UNK         0.0840 
    111 H111       28.7328  -44.4839  -51.0679 H         1 UNK         0.0840 
    112 H112       30.6458  -47.4323  -54.8542 H         1 UNK         0.2987 
    113 H113       31.1350  -50.1273  -57.1776 H         1 UNK         0.0785 
    114 H114       32.6492  -48.3429  -58.0360 H         1 UNK         0.0798 
    115 H115       30.9681  -48.0031  -58.4189 H         1 UNK         0.0798 
    116 H116       31.7588  -47.1243  -57.1230 H         1 UNK         0.0798 
    117 H117       32.7746  -48.5705  -55.3211 H         1 UNK         0.3079 
    118 H118       32.8398  -51.0555  -52.8032 H         1 UNK         0.0794 
    119 H119       35.3124  -50.9211  -53.1228 H         1 UNK         0.0786 
    120 H120       35.0814  -50.3226  -54.7655 H         1 UNK         0.0786 
    121 H121       34.5724  -51.9497  -54.3391 H         1 UNK         0.0786 
    122 H122       34.1996  -48.5350  -53.2477 H         1 UNK         0.3032 
    123 H123       31.6594  -46.4843  -51.8619 H         1 UNK         0.1094 
    124 H124       34.2622  -47.3746  -50.5068 H         1 UNK         0.0794 
    125 H125       33.3664  -45.8931  -50.1662 H         1 UNK         0.0794 
    126 H126       32.6602  -47.4545  -49.7867 H         1 UNK         0.0794 
    127 H127       34.3664  -45.9186  -52.5370 H         1 UNK         0.3016 
@<TRIPOS>BOND
     1    1    2 1    
     2    1   67 1    
     3    1   68 1    
     4    1   69 1    
     5    2    3 2    
     6    2    4 am   BACKBONE|DICT|INTERRES
     7    4    5 1    
     8    4   70 1    
     9    5    6 1    
    10    5   65 1    
    11    5   71 1    
    12    6    7 1    
    13    6   72 1    
    14    6   73 1    
    15    7    8 1    
    16    8    9 1    
    17    8   74 1    
    18    8   75 1    
    19    9   10 ar   
    20    9   14 ar   
    21   10   11 ar   
    22   10   76 1    
    23   11   12 ar   
    24   11   48 1    
    25   12   13 ar   
    26   12   77 1    
    27   13   14 ar   
    28   13   15 1    
    29   14   78 1    
    30   15   16 1    
    31   15   79 1    
    32   15   80 1    
    33   16   17 1    
    34   17   18 1    
    35   17   81 1    
    36   17   82 1    
    37   18   19 1    
    38   18   22 1    
    39   18   83 1    
    40   19   20 am   BACKBONE|DICT|INTERRES
    41   19   21 2    
    42   20   84 1    
    43   20   85 1    
    44   22   23 am   BACKBONE|DICT|INTERRES
    45   22   86 1    
    46   23   24 2    
    47   23   25 1    
    48   25   26 1    
    49   25   27 1    
    50   25   87 1    
    51   26   88 1    
    52   26   89 1    
    53   26   90 1    
    54   27   28 am   BACKBONE|DICT|INTERRES
    55   27   91 1    
    56   28   29 2    
    57   28   30 1    
    58   30   31 1    
    59   30   32 1    
    60   30   92 1    
    61   31   93 1    
    62   31   94 1    
    63   31   95 1    
    64   32   33 am   BACKBONE|DICT|INTERRES
    65   32   96 1    
    66   33   34 2    
    67   33   35 1    
    68   35   36 1    
    69   35   37 1    
    70   35   97 1    
    71   36   98 1    
    72   36   99 1    
    73   36  100 1    
    74   37   38 am   BACKBONE|DICT|INTERRES
    75   37  101 1    
    76   38   39 2    
    77   38   40 1    
    78   40   41 1    
    79   40   42 1    
    80   40  102 1    
    81   41  103 1    
    82   41  104 1    
    83   41  105 1    
    84   42   43 am   BACKBONE|DICT|INTERRES
    85   42  106 1    
    86   43   44 2    
    87   43   45 1    
    88   45   46 1    
    89   45   49 1    
    90   45  107 1    
    91   46   47 1    
    92   46  108 1    
    93   46  109 1    
    94   47   48 1    
    95   48  110 1    
    96   48  111 1    
    97   49   50 am   BACKBONE|DICT|INTERRES
    98   49  112 1    
    99   50   51 2    
   100   50   52 1    
   101   52   53 1    
   102   52   54 1    
   103   52  113 1    
   104   53  114 1    
   105   53  115 1    
   106   53  116 1    
   107   54   55 am   BACKBONE|DICT|INTERRES
   108   54  117 1    
   109   55   56 2    
   110   55   57 1    
   111   57   58 1    
   112   57   59 1    
   113   57  118 1    
   114   58  119 1    
   115   58  120 1    
   116   58  121 1    
   117   59   60 am   BACKBONE|DICT|INTERRES
   118   59  122 1    
   119   60   61 2    
   120   60   62 1    
   121   62   63 1    
   122   62   64 1    
   123   62  123 1    
   124   63  124 1    
   125   63  125 1    
   126   63  126 1    
   127   64   65 am   BACKBONE|DICT|INTERRES
   128   64  127 1    
   129   65   66 2    
@<TRIPOS>SUBSTRUCTURE
     1 UNK         1 GROUP             0       ****    0 ROOT    
