@<TRIPOS>MOLECULE
3R134
127   129    1
SMALL
USER_CHARGES


@<TRIPOS>ATOM
      1 CA         37.1003  -45.1620  -55.3999 C.3       0 UNK        -0.1968 
      2 C          35.6933  -45.1649  -54.8217 C.2       0 UNK         0.4852 
      3 O          34.8557  -45.9568  -55.2541 O.2       0 UNK        -0.5359 
      4 N          35.4289  -44.2964  -53.8374 N.am      1 UNK        -0.4300 
      5 CA         34.1306  -44.1337  -53.1699 C.3       1 UNK         0.0863 
      6 C6         33.9139  -42.6729  -52.6886 C.3       11 UNK        -0.0953 
      7 S7         33.9268  -41.4806  -54.0725 S.3       11 UNK        -0.2369 
      8 C8         32.1465  -41.2309  -54.3763 C.3       11 UNK         0.0226 
      9 C9         31.4439  -42.5338  -54.7293 C.ar      11 UNK        -0.0699 
     10 C10        30.6401  -43.1769  -53.7834 C.ar      11 UNK        -0.0804 
     11 C11        30.0312  -44.3976  -54.0838 C.ar      11 UNK        -0.0871 
     12 C12        30.2274  -44.9747  -55.3420 C.ar      11 UNK        -0.1008 
     13 C13        31.0163  -44.3330  -56.3021 C.ar      11 UNK        -0.0735 
     14 C14        31.6197  -43.1106  -55.9907 C.ar      11 UNK        -0.0945 
     15 C15        31.2213  -44.9622  -57.6731 C.3       11 UNK         0.0169 
     16 S16        29.6567  -45.1720  -58.5825 S.3       11 UNK        -0.2669 
     17 C17        29.0984  -43.4436  -58.7821 C.3       11 UNK        -0.0850 
     18 CA         28.0902  -42.9894  -57.6907 C.3       10 UNK         0.0855 
     19 C          27.6953  -41.4963  -57.8876 C.2       10 UNK         0.5543 
     20 N          26.4277  -41.1637  -58.1002 N.am      10 UNK        -0.7343 
     21 O          28.5573  -40.6222  -57.8456 O.2       10 UNK        -0.5027 
     22 N          26.9555  -43.9211  -57.5654 N.am      10 UNK        -0.4495 
     23 C          26.1838  -44.0453  -56.4779 C.2       10 UNK         0.4903 
     24 O          26.3247  -43.3741  -55.4555 O.2       10 UNK        -0.4860 
     25 CA         25.0461  -45.0825  -56.5339 C.3       9 UNK         0.0227 
     26 CB         23.7039  -44.3866  -56.8152 C.3       9 UNK        -0.1964 
     27 N          25.2481  -46.1533  -57.5174 N.am      9 UNK        -0.4231 
     28 C          26.1587  -47.1289  -57.4012 C.2       9 UNK         0.5014 
     29 O          26.9638  -47.2083  -56.4746 O.2       9 UNK        -0.5270 
     30 CA         26.1729  -48.1811  -58.5146 C.3       8 UNK         0.0284 
     31 CB         26.9584  -47.6833  -59.7410 C.3       8 UNK        -0.1977 
     32 N          26.7752  -49.4177  -58.0185 N.am      8 UNK        -0.4342 
     33 C          26.4452  -50.6471  -58.4327 C.2       8 UNK         0.5039 
     34 O          25.5799  -50.8717  -59.2809 O.2       8 UNK        -0.5547 
     35 CA         27.1963  -51.8333  -57.8113 C.3       7 UNK         0.0281 
     36 CB         28.5396  -52.0545  -58.5276 C.3       7 UNK        -0.1963 
     37 N          27.4333  -51.6464  -56.3793 N.am      7 UNK        -0.4444 
     38 C          26.6744  -52.1694  -55.4057 C.2       7 UNK         0.5104 
     39 O          25.6678  -52.8475  -55.6152 O.2       7 UNK        -0.5100 
     40 CA         27.1129  -51.9277  -53.9479 C.3       6 UNK         0.0396 
     41 CB         27.8262  -53.1715  -53.3943 C.3       6 UNK        -0.1801 
     42 N          27.9941  -50.7687  -53.7986 N.am      6 UNK        -0.4747 
     43 C          27.5709  -49.4949  -53.7865 C.2       6 UNK         0.5012 
     44 O          26.3811  -49.1782  -53.7864 O.2       6 UNK        -0.5003 
     45 CA         28.6485  -48.3878  -53.7827 C.3       5 UNK         0.0782 
     46 C46        28.8084  -47.7944  -52.3603 C.3       11 UNK        -0.0868 
     47 S47        30.0634  -46.4735  -52.2780 S.3       11 UNK        -0.2515 
     48 C48        29.1620  -45.0939  -53.0511 C.3       11 UNK         0.0199 
     49 N          29.9334  -48.8172  -54.3434 N.am      5 UNK        -0.4607 
     50 C          30.1479  -49.2997  -55.5745 C.2       4 UNK         0.5031 
     51 O          29.2691  -49.4147  -56.4272 O.2       4 UNK        -0.5119 
     52 CA         31.5673  -49.8060  -55.8852 C.3       4 UNK         0.0263 
     53 CB         32.3415  -48.7517  -56.6906 C.3       4 UNK        -0.1967 
     54 N          32.3425  -50.1621  -54.6914 N.am      4 UNK        -0.4237 
     55 C          32.0200  -51.0850  -53.7750 C.2       3 UNK         0.4908 
     56 O          31.0207  -51.8007  -53.8535 O.2       3 UNK        -0.5102 
     57 CA         32.9207  -51.1816  -52.5284 C.3       3 UNK         0.0241 
     58 CB         34.2083  -51.9734  -52.8306 C.3       3 UNK        -0.1971 
     59 N          33.2121  -49.8864  -51.8851 N.am      3 UNK        -0.4139 
     60 C          33.9138  -48.8520  -52.3718 C.2       2 UNK         0.5016 
     61 O          34.4610  -48.8490  -53.4780 O.2       2 UNK        -0.5319 
     62 CA         34.0179  -47.6071  -51.4849 C.3       2 UNK         0.0286 
     63 CB         35.2154  -47.7168  -50.5230 C.3       2 UNK        -0.1963 
     64 N          34.1730  -46.4486  -52.3590 N.am      2 UNK        -0.4790 
     65 C          33.9468  -45.1710  -52.0383 C.2       1 UNK         0.5024 
     66 O          33.6231  -44.8076  -50.9060 O.2       1 UNK        -0.4888 
     67 H67        37.0654  -44.9475  -56.4677 H         1 UNK         0.0892 
     68 H68        37.7359  -44.4151  -54.9245 H         1 UNK         0.0892 
     69 H69        37.5632  -46.1389  -55.2631 H         1 UNK         0.0892 
     70 H70        36.1615  -43.6838  -53.5089 H         1 UNK         0.3107 
     71 H71        33.3458  -44.3582  -53.8942 H         1 UNK         0.0773 
     72 H72        34.6942  -42.3849  -51.9820 H         1 UNK         0.0680 
     73 H73        32.9703  -42.5727  -52.1499 H         1 UNK         0.0680 
     74 H74        32.0227  -40.5188  -55.1934 H         1 UNK         0.0650 
     75 H75        31.6933  -40.7705  -53.4970 H         1 UNK         0.0650 
     76 H76        30.5010  -42.7346  -52.8064 H         1 UNK         0.1397 
     77 H77        29.7568  -45.9190  -55.5819 H         1 UNK         0.1363 
     78 H78        32.2426  -42.6129  -56.7212 H         1 UNK         0.1355 
     79 H79        31.9093  -44.3700  -58.2784 H         1 UNK         0.0707 
     80 H80        31.6888  -45.9386  -57.5463 H         1 UNK         0.0707 
     81 H81        29.9731  -42.7902  -58.7906 H         1 UNK         0.1034 
     82 H82        28.6475  -43.3504  -59.7716 H         1 UNK         0.1034 
     83 H83        28.6178  -43.0118  -56.7365 H         1 UNK         0.0482 
     84 H84        26.1843  -40.1935  -58.2240 H         1 UNK         0.3460 
     85 H85        25.7141  -41.8732  -58.1315 H         1 UNK         0.3460 
     86 H86        26.7831  -44.5228  -58.3557 H         1 UNK         0.2989 
     87 H87        24.9854  -45.5451  -55.5463 H         1 UNK         0.0559 
     88 H88        23.6855  -43.9237  -57.8026 H         1 UNK         0.0848 
     89 H89        23.5106  -43.6002  -56.0839 H         1 UNK         0.0848 
     90 H90        22.8719  -45.0886  -56.7568 H         1 UNK         0.0848 
     91 H91        24.6286  -46.1589  -58.3156 H         1 UNK         0.3144 
     92 H92        25.1367  -48.3715  -58.8027 H         1 UNK         0.0727 
     93 H93        28.0117  -47.5308  -59.5035 H         1 UNK         0.0790 
     94 H94        26.5641  -46.7361  -60.1105 H         1 UNK         0.0790 
     95 H95        26.9035  -48.3983  -60.5620 H         1 UNK         0.0790 
     96 H96        27.4979  -49.2905  -57.3119 H         1 UNK         0.3215 
     97 H97        26.5890  -52.7275  -57.9696 H         1 UNK         0.0863 
     98 H98        29.0656  -52.9199  -58.1244 H         1 UNK         0.0808 
     99 H99        29.1984  -51.1902  -58.4381 H         1 UNK         0.0808 
    100 H100       28.3861  -52.2359  -59.5923 H         1 UNK         0.0808 
    101 H101       28.2020  -51.0331  -56.1290 H         1 UNK         0.3118 
    102 H102       26.2115  -51.7640  -53.3535 H         1 UNK         0.0546 
    103 H103       28.7333  -53.4000  -53.9554 H         1 UNK         0.0828 
    104 H104       27.1802  -54.0488  -53.4485 H         1 UNK         0.0828 
    105 H105       28.1038  -53.0385  -52.3486 H         1 UNK         0.0828 
    106 H106       28.9912  -50.9552  -53.7873 H         1 UNK         0.3005 
    107 H107       28.2770  -47.5997  -54.4353 H         1 UNK         0.1257 
    108 H108       29.1005  -48.5736  -51.6535 H         1 UNK         0.0775 
    109 H109       27.8588  -47.3960  -51.9968 H         1 UNK         0.0775 
    110 H110       28.2460  -45.4391  -53.5323 H         1 UNK         0.0840 
    111 H111       28.8470  -44.3964  -52.2736 H         1 UNK         0.0840 
    112 H112       30.7240  -48.7434  -53.7216 H         1 UNK         0.2987 
    113 H113       31.4653  -50.7058  -56.4950 H         1 UNK         0.0785 
    114 H114       31.7965  -48.4713  -57.5933 H         1 UNK         0.0798 
    115 H115       33.3154  -49.1277  -57.0041 H         1 UNK         0.0798 
    116 H116       32.5063  -47.8427  -56.1095 H         1 UNK         0.0798 
    117 H117       33.1832  -49.6153  -54.5068 H         1 UNK         0.3079 
    118 H118       32.3588  -51.7540  -51.7883 H         1 UNK         0.0794 
    119 H119       34.8101  -52.1073  -51.9317 H         1 UNK         0.0786 
    120 H120       34.8298  -51.4805  -53.5786 H         1 UNK         0.0786 
    121 H121       33.9715  -52.9674  -53.2127 H         1 UNK         0.0786 
    122 H122       32.7985  -49.7746  -50.9691 H         1 UNK         0.3032 
    123 H123       33.0915  -47.4976  -50.9159 H         1 UNK         0.1094 
    124 H124       36.1579  -47.8048  -51.0652 H         1 UNK         0.0794 
    125 H125       35.2855  -46.8467  -49.8702 H         1 UNK         0.0794 
    126 H126       35.1242  -48.5938  -49.8810 H         1 UNK         0.0794 
    127 H127       34.4149  -46.6756  -53.3218 H         1 UNK         0.3016 
@<TRIPOS>BOND
     1    1    2 1    
     2    1   67 1    
     3    1   68 1    
     4    1   69 1    
     5    2    3 2    
     6    2    4 am   BACKBONE|DICT|INTERRES
     7    4    5 1    
     8    4   70 1    
     9    5    6 1    
    10    5   65 1    
    11    5   71 1    
    12    6    7 1    
    13    6   72 1    
    14    6   73 1    
    15    7    8 1    
    16    8    9 1    
    17    8   74 1    
    18    8   75 1    
    19    9   10 ar   
    20    9   14 ar   
    21   10   11 ar   
    22   10   76 1    
    23   11   12 ar   
    24   11   48 1    
    25   12   13 ar   
    26   12   77 1    
    27   13   14 ar   
    28   13   15 1    
    29   14   78 1    
    30   15   16 1    
    31   15   79 1    
    32   15   80 1    
    33   16   17 1    
    34   17   18 1    
    35   17   81 1    
    36   17   82 1    
    37   18   19 1    
    38   18   22 1    
    39   18   83 1    
    40   19   20 am   BACKBONE|DICT|INTERRES
    41   19   21 2    
    42   20   84 1    
    43   20   85 1    
    44   22   23 am   BACKBONE|DICT|INTERRES
    45   22   86 1    
    46   23   24 2    
    47   23   25 1    
    48   25   26 1    
    49   25   27 1    
    50   25   87 1    
    51   26   88 1    
    52   26   89 1    
    53   26   90 1    
    54   27   28 am   BACKBONE|DICT|INTERRES
    55   27   91 1    
    56   28   29 2    
    57   28   30 1    
    58   30   31 1    
    59   30   32 1    
    60   30   92 1    
    61   31   93 1    
    62   31   94 1    
    63   31   95 1    
    64   32   33 am   BACKBONE|DICT|INTERRES
    65   32   96 1    
    66   33   34 2    
    67   33   35 1    
    68   35   36 1    
    69   35   37 1    
    70   35   97 1    
    71   36   98 1    
    72   36   99 1    
    73   36  100 1    
    74   37   38 am   BACKBONE|DICT|INTERRES
    75   37  101 1    
    76   38   39 2    
    77   38   40 1    
    78   40   41 1    
    79   40   42 1    
    80   40  102 1    
    81   41  103 1    
    82   41  104 1    
    83   41  105 1    
    84   42   43 am   BACKBONE|DICT|INTERRES
    85   42  106 1    
    86   43   44 2    
    87   43   45 1    
    88   45   46 1    
    89   45   49 1    
    90   45  107 1    
    91   46   47 1    
    92   46  108 1    
    93   46  109 1    
    94   47   48 1    
    95   48  110 1    
    96   48  111 1    
    97   49   50 am   BACKBONE|DICT|INTERRES
    98   49  112 1    
    99   50   51 2    
   100   50   52 1    
   101   52   53 1    
   102   52   54 1    
   103   52  113 1    
   104   53  114 1    
   105   53  115 1    
   106   53  116 1    
   107   54   55 am   BACKBONE|DICT|INTERRES
   108   54  117 1    
   109   55   56 2    
   110   55   57 1    
   111   57   58 1    
   112   57   59 1    
   113   57  118 1    
   114   58  119 1    
   115   58  120 1    
   116   58  121 1    
   117   59   60 am   BACKBONE|DICT|INTERRES
   118   59  122 1    
   119   60   61 2    
   120   60   62 1    
   121   62   63 1    
   122   62   64 1    
   123   62  123 1    
   124   63  124 1    
   125   63  125 1    
   126   63  126 1    
   127   64   65 am   BACKBONE|DICT|INTERRES
   128   64  127 1    
   129   65   66 2    
@<TRIPOS>SUBSTRUCTURE
     1 UNK         1 GROUP             0       ****    0 ROOT    
