@<TRIPOS>MOLECULE
3R134
127   129    1
SMALL
USER_CHARGES


@<TRIPOS>ATOM
      1 CA         33.1401  -42.3050  -53.0422 C.3       0 UNK        -0.1968 
      2 C          34.4197  -43.1007  -53.2545 C.2       0 UNK         0.4852 
      3 O          35.4550  -42.7643  -52.6791 O.2       0 UNK        -0.5359 
      4 N          34.3530  -44.1566  -54.0758 N.am      1 UNK        -0.4300 
      5 CA         35.4700  -45.0497  -54.4041 C.3       1 UNK         0.0863 
      6 C6         35.2066  -45.8072  -55.7356 C.3       11 UNK        -0.0953 
      7 S7         34.0400  -47.2185  -55.6487 S.3       11 UNK        -0.2369 
      8 C8         32.4689  -46.4895  -56.2256 C.3       11 UNK         0.0226 
      9 C9         31.6435  -45.7627  -55.1610 C.ar      11 UNK        -0.0699 
     10 C10        31.8349  -45.9555  -53.7859 C.ar      11 UNK        -0.0804 
     11 C11        31.0250  -45.3057  -52.8473 C.ar      11 UNK        -0.0871 
     12 C12        30.0046  -44.4630  -53.2928 C.ar      11 UNK        -0.1008 
     13 C13        29.7755  -44.2890  -54.6596 C.ar      11 UNK        -0.0735 
     14 C14        30.6074  -44.9257  -55.5842 C.ar      11 UNK        -0.0945 
     15 C15        28.6011  -43.4487  -55.1341 C.3       11 UNK         0.0169 
     16 S16        27.0278  -44.2607  -54.7127 S.3       11 UNK        -0.2669 
     17 C17        25.8374  -43.2862  -55.6940 C.3       11 UNK        -0.0850 
     18 CA         25.0750  -44.1626  -56.7298 C.3       10 UNK         0.0855 
     19 C          23.9175  -43.3967  -57.4429 C.2       10 UNK         0.5543 
     20 N          23.5776  -43.7186  -58.6864 N.am      10 UNK        -0.7343 
     21 O          23.2937  -42.5181  -56.8524 O.2       10 UNK        -0.5027 
     22 N          25.9657  -44.8984  -57.6440 N.am      10 UNK        -0.4495 
     23 C          26.7841  -44.3640  -58.5608 C.2       10 UNK         0.4903 
     24 O          26.9887  -43.1565  -58.6864 O.2       10 UNK        -0.4860 
     25 CA         27.4824  -45.3429  -59.5244 C.3       9 UNK         0.0227 
     26 CB         28.9261  -45.5999  -59.0635 C.3       9 UNK        -0.1964 
     27 N          26.8026  -46.6335  -59.6882 N.am      9 UNK        -0.4231 
     28 C          25.5457  -46.8403  -60.1035 C.2       9 UNK         0.5014 
     29 O          24.7735  -45.9326  -60.4156 O.2       9 UNK        -0.5270 
     30 CA         25.0386  -48.2962  -60.1266 C.3       8 UNK         0.0284 
     31 CB         25.3069  -48.9543  -61.4940 C.3       8 UNK        -0.1977 
     32 N          25.5216  -49.1345  -59.0146 N.am      8 UNK        -0.4342 
     33 C          26.7664  -49.5574  -58.7523 C.2       8 UNK         0.5039 
     34 O          27.7456  -49.2705  -59.4433 O.2       8 UNK        -0.5547 
     35 CA         26.9520  -50.3539  -57.4497 C.3       7 UNK         0.0281 
     36 CB         28.2748  -51.1400  -57.4285 C.3       7 UNK        -0.1963 
     37 N          26.9096  -49.4494  -56.2981 N.am      7 UNK        -0.4444 
     38 C          25.7851  -48.9556  -55.7589 C.2       7 UNK         0.5104 
     39 O          24.6631  -49.2476  -56.1776 O.2       7 UNK        -0.5100 
     40 CA         25.9094  -47.9345  -54.6083 C.3       6 UNK         0.0396 
     41 CB         24.8733  -48.1841  -53.4928 C.3       6 UNK        -0.1801 
     42 N          27.2614  -47.7808  -54.0545 N.am      6 UNK        -0.4747 
     43 C          27.9768  -48.6869  -53.3706 C.2       6 UNK         0.5012 
     44 O          27.5761  -49.8159  -53.0799 O.2       6 UNK        -0.5003 
     45 CA         29.3946  -48.2525  -52.9568 C.3       5 UNK         0.0782 
     46 C46        29.4425  -47.7890  -51.4785 C.3       11 UNK        -0.0868 
     47 S47        31.1232  -47.3267  -50.9282 S.3       11 UNK        -0.2515 
     48 C48        31.2053  -45.5552  -51.3548 C.3       11 UNK         0.0199 
     49 N          30.3868  -49.2869  -53.2639 N.am      5 UNK        -0.4607 
     50 C          30.7151  -49.6580  -54.5056 C.2       4 UNK         0.5031 
     51 O          30.2143  -49.1613  -55.5156 O.2       4 UNK        -0.5119 
     52 CA         31.8002  -50.7341  -54.6267 C.3       4 UNK         0.0263 
     53 CB         32.0124  -51.2125  -56.0776 C.3       4 UNK        -0.1967 
     54 N          33.0672  -50.2384  -54.0845 N.am      4 UNK        -0.4237 
     55 C          33.9993  -51.0207  -53.5243 C.2       3 UNK         0.4908 
     56 O          33.8388  -52.2220  -53.3036 O.2       3 UNK        -0.5102 
     57 CA         35.3580  -50.3842  -53.1862 C.3       3 UNK         0.0241 
     58 CB         36.2902  -50.4446  -54.4076 C.3       3 UNK        -0.1971 
     59 N          35.2825  -49.0013  -52.7148 N.am      3 UNK        -0.4139 
     60 C          34.8544  -48.6186  -51.5060 C.2       2 UNK         0.5016 
     61 O          34.3905  -49.4003  -50.6755 O.2       2 UNK        -0.5319 
     62 CA         34.9683  -47.1230  -51.1376 C.3       2 UNK         0.0286 
     63 CB         36.1879  -46.8726  -50.2291 C.3       2 UNK        -0.1963 
     64 N          34.9511  -46.1853  -52.2740 N.am      2 UNK        -0.4790 
     65 C          35.8515  -46.0134  -53.2558 C.2       1 UNK         0.5024 
     66 O          36.9134  -46.6323  -53.3219 O.2       1 UNK        -0.4888 
     67 H67        32.3546  -42.6054  -53.7355 H         1 UNK         0.0892 
     68 H68        32.7715  -42.4492  -52.0270 H         1 UNK         0.0892 
     69 H69        33.3289  -41.2420  -53.1896 H         1 UNK         0.0892 
     70 H70        33.4710  -44.3882  -54.5136 H         1 UNK         0.3107 
     71 H71        36.3449  -44.4162  -54.5664 H         1 UNK         0.0773 
     72 H72        36.1518  -46.2086  -56.1052 H         1 UNK         0.0680 
     73 H73        34.8780  -45.1092  -56.5071 H         1 UNK         0.0680 
     74 H74        31.8564  -47.2970  -56.6282 H         1 UNK         0.0650 
     75 H75        32.6731  -45.8200  -57.0624 H         1 UNK         0.0650 
     76 H76        32.5817  -46.6500  -53.4339 H         1 UNK         0.1397 
     77 H77        29.3549  -43.9737  -52.5796 H         1 UNK         0.1363 
     78 H78        30.4301  -44.7920  -56.6418 H         1 UNK         0.1355 
     79 H79        28.6400  -42.4622  -54.6702 H         1 UNK         0.0707 
     80 H80        28.6524  -43.2927  -56.2129 H         1 UNK         0.0707 
     81 H81        25.1364  -42.8326  -54.9911 H         1 UNK         0.1034 
     82 H82        26.3410  -42.4543  -56.1885 H         1 UNK         0.1034 
     83 H83        24.5603  -44.9379  -56.1613 H         1 UNK         0.0482 
     84 H84        24.0691  -44.4471  -59.1923 H         1 UNK         0.3460 
     85 H85        22.8212  -43.2243  -59.1321 H         1 UNK         0.3460 
     86 H86        25.8647  -45.9012  -57.6376 H         1 UNK         0.2989 
     87 H87        27.5127  -44.8656  -60.5057 H         1 UNK         0.0559 
     88 H88        29.4744  -44.6634  -58.9528 H         1 UNK         0.0848 
     89 H89        29.4715  -46.2087  -59.7849 H         1 UNK         0.0848 
     90 H90        28.9548  -46.1152  -58.1022 H         1 UNK         0.0848 
     91 H91        27.3541  -47.4716  -59.5089 H         1 UNK         0.3144 
     92 H92        23.9560  -48.2442  -59.9994 H         1 UNK         0.0727 
     93 H93        24.8879  -49.9595  -61.5391 H         1 UNK         0.0790 
     94 H94        26.3727  -49.0249  -61.7134 H         1 UNK         0.0790 
     95 H95        24.8501  -48.3765  -62.2986 H         1 UNK         0.0790 
     96 H96        24.8252  -49.3468  -58.3066 H         1 UNK         0.3215 
     97 H97        26.1363  -51.0766  -57.3724 H         1 UNK         0.0863 
     98 H98        28.3945  -51.6933  -56.4969 H         1 UNK         0.0808 
     99 H99        29.1375  -50.4827  -57.5414 H         1 UNK         0.0808 
    100 H100       28.3103  -51.8626  -58.2446 H         1 UNK         0.0808 
    101 H101       27.8019  -49.1472  -55.9281 H         1 UNK         0.3118 
    102 H102       25.6688  -46.9699  -55.0557 H         1 UNK         0.0546 
    103 H103       24.9934  -49.1673  -53.0373 H         1 UNK         0.0828 
    104 H104       23.8565  -48.1331  -53.8840 H         1 UNK         0.0828 
    105 H105       24.9511  -47.4356  -52.7045 H         1 UNK         0.0828 
    106 H106       27.6861  -46.8806  -54.2404 H         1 UNK         0.3005 
    107 H107       29.6393  -47.4005  -53.5877 H         1 UNK         0.1257 
    108 H108       29.0879  -48.5851  -50.8209 H         1 UNK         0.0775 
    109 H109       28.7719  -46.9423  -51.3193 H         1 UNK         0.0775 
    110 H110       30.4513  -45.0207  -50.7745 H         1 UNK         0.0840 
    111 H111       32.1698  -45.1562  -51.0399 H         1 UNK         0.0840 
    112 H112       30.8366  -49.7268  -52.4746 H         1 UNK         0.2987 
    113 H113       31.4552  -51.5854  -54.0356 H         1 UNK         0.0785 
    114 H114       32.7524  -52.0111  -56.1299 H         1 UNK         0.0798 
    115 H115       32.3500  -50.4003  -56.7227 H         1 UNK         0.0798 
    116 H116       31.0871  -51.6051  -56.4991 H         1 UNK         0.0798 
    117 H117       33.2677  -49.2579  -54.2311 H         1 UNK         0.3079 
    118 H118       35.8078  -50.9826  -52.3907 H         1 UNK         0.0794 
    119 H119       36.3946  -51.4683  -54.7701 H         1 UNK         0.0786 
    120 H120       37.2900  -50.0858  -54.1617 H         1 UNK         0.0786 
    121 H121       35.9123  -49.8423  -55.2350 H         1 UNK         0.0786 
    122 H122       35.7114  -48.2925  -53.2980 H         1 UNK         0.3032 
    123 H123       34.0787  -46.8932  -50.5497 H         1 UNK         0.1094 
    124 H124       36.2404  -45.8305  -49.9138 H         1 UNK         0.0794 
    125 H125       36.1303  -47.4815  -49.3258 H         1 UNK         0.0794 
    126 H126       37.1264  -47.1218  -50.7249 H         1 UNK         0.0794 
    127 H127       34.1239  -45.6106  -52.3343 H         1 UNK         0.3016 
@<TRIPOS>BOND
     1    1    2 1    
     2    1   67 1    
     3    1   68 1    
     4    1   69 1    
     5    2    3 2    
     6    2    4 am   BACKBONE|DICT|INTERRES
     7    4    5 1    
     8    4   70 1    
     9    5    6 1    
    10    5   65 1    
    11    5   71 1    
    12    6    7 1    
    13    6   72 1    
    14    6   73 1    
    15    7    8 1    
    16    8    9 1    
    17    8   74 1    
    18    8   75 1    
    19    9   10 ar   
    20    9   14 ar   
    21   10   11 ar   
    22   10   76 1    
    23   11   12 ar   
    24   11   48 1    
    25   12   13 ar   
    26   12   77 1    
    27   13   14 ar   
    28   13   15 1    
    29   14   78 1    
    30   15   16 1    
    31   15   79 1    
    32   15   80 1    
    33   16   17 1    
    34   17   18 1    
    35   17   81 1    
    36   17   82 1    
    37   18   19 1    
    38   18   22 1    
    39   18   83 1    
    40   19   20 am   BACKBONE|DICT|INTERRES
    41   19   21 2    
    42   20   84 1    
    43   20   85 1    
    44   22   23 am   BACKBONE|DICT|INTERRES
    45   22   86 1    
    46   23   24 2    
    47   23   25 1    
    48   25   26 1    
    49   25   27 1    
    50   25   87 1    
    51   26   88 1    
    52   26   89 1    
    53   26   90 1    
    54   27   28 am   BACKBONE|DICT|INTERRES
    55   27   91 1    
    56   28   29 2    
    57   28   30 1    
    58   30   31 1    
    59   30   32 1    
    60   30   92 1    
    61   31   93 1    
    62   31   94 1    
    63   31   95 1    
    64   32   33 am   BACKBONE|DICT|INTERRES
    65   32   96 1    
    66   33   34 2    
    67   33   35 1    
    68   35   36 1    
    69   35   37 1    
    70   35   97 1    
    71   36   98 1    
    72   36   99 1    
    73   36  100 1    
    74   37   38 am   BACKBONE|DICT|INTERRES
    75   37  101 1    
    76   38   39 2    
    77   38   40 1    
    78   40   41 1    
    79   40   42 1    
    80   40  102 1    
    81   41  103 1    
    82   41  104 1    
    83   41  105 1    
    84   42   43 am   BACKBONE|DICT|INTERRES
    85   42  106 1    
    86   43   44 2    
    87   43   45 1    
    88   45   46 1    
    89   45   49 1    
    90   45  107 1    
    91   46   47 1    
    92   46  108 1    
    93   46  109 1    
    94   47   48 1    
    95   48  110 1    
    96   48  111 1    
    97   49   50 am   BACKBONE|DICT|INTERRES
    98   49  112 1    
    99   50   51 2    
   100   50   52 1    
   101   52   53 1    
   102   52   54 1    
   103   52  113 1    
   104   53  114 1    
   105   53  115 1    
   106   53  116 1    
   107   54   55 am   BACKBONE|DICT|INTERRES
   108   54  117 1    
   109   55   56 2    
   110   55   57 1    
   111   57   58 1    
   112   57   59 1    
   113   57  118 1    
   114   58  119 1    
   115   58  120 1    
   116   58  121 1    
   117   59   60 am   BACKBONE|DICT|INTERRES
   118   59  122 1    
   119   60   61 2    
   120   60   62 1    
   121   62   63 1    
   122   62   64 1    
   123   62  123 1    
   124   63  124 1    
   125   63  125 1    
   126   63  126 1    
   127   64   65 am   BACKBONE|DICT|INTERRES
   128   64  127 1    
   129   65   66 2    
@<TRIPOS>SUBSTRUCTURE
     1 UNK         1 GROUP             0       ****    0 ROOT    
