@<TRIPOS>MOLECULE
3R134
127   129    1
SMALL
USER_CHARGES


@<TRIPOS>ATOM
      1 CA         38.5370  -46.1780  -52.5521 C.3       0 UNK        -0.1968 
      2 C          37.5073  -46.7255  -53.5297 C.2       0 UNK         0.4852 
      3 O          37.8678  -47.4690  -54.4439 O.2       0 UNK        -0.5359 
      4 N          36.2328  -46.3563  -53.3489 N.am      1 UNK        -0.4300 
      5 CA         35.0973  -46.8150  -54.1568 C.3       1 UNK         0.0863 
      6 C6         33.8328  -45.9484  -53.9250 C.3       11 UNK        -0.0953 
      7 S7         34.1364  -44.1572  -54.1064 S.3       11 UNK        -0.2369 
      8 C8         33.2309  -43.7489  -55.6350 C.3       11 UNK         0.0226 
      9 C9         31.7118  -43.7612  -55.4804 C.ar      11 UNK        -0.0699 
     10 C10        31.0851  -43.1456  -54.3891 C.ar      11 UNK        -0.0804 
     11 C11        29.6905  -43.1407  -54.2778 C.ar      11 UNK        -0.0871 
     12 C12        28.9180  -43.7268  -55.2844 C.ar      11 UNK        -0.1008 
     13 C13        29.5303  -44.3496  -56.3735 C.ar      11 UNK        -0.0735 
     14 C14        30.9246  -44.3636  -56.4664 C.ar      11 UNK        -0.0945 
     15 C15        28.6891  -45.0358  -57.4356 C.3       11 UNK         0.0169 
     16 S16        28.4567  -43.9897  -58.9048 S.3       11 UNK        -0.2669 
     17 C17        27.2715  -42.7223  -58.3307 C.3       11 UNK        -0.0850 
     18 CA         25.8877  -43.2552  -57.8591 C.3       10 UNK         0.0855 
     19 C          24.9106  -42.0648  -57.6283 C.2       10 UNK         0.5543 
     20 N          23.8677  -41.8968  -58.4318 N.am      10 UNK        -0.7343 
     21 O          25.1098  -41.2794  -56.7051 O.2       10 UNK        -0.5027 
     22 N          25.3882  -44.3487  -58.7121 N.am      10 UNK        -0.4495 
     23 C          24.3416  -45.1380  -58.4327 C.2       10 UNK         0.4903 
     24 O          23.5883  -44.9787  -57.4721 O.2       10 UNK        -0.4860 
     25 CA         24.1198  -46.3389  -59.3709 C.3       9 UNK         0.0227 
     26 CB         23.3968  -45.8989  -60.6547 C.3       9 UNK        -0.1964 
     27 N          25.3577  -47.0503  -59.7169 N.am      9 UNK        -0.4231 
     28 C          26.1689  -47.6515  -58.8336 C.2       9 UNK         0.5014 
     29 O          25.9524  -47.6834  -57.6195 O.2       9 UNK        -0.5270 
     30 CA         27.4293  -48.3394  -59.3844 C.3       8 UNK         0.0284 
     31 CB         28.1229  -47.5388  -60.5096 C.3       8 UNK        -0.1977 
     32 N          28.3320  -48.5616  -58.2573 N.am      8 UNK        -0.4342 
     33 C          29.4160  -49.3427  -58.2280 C.2       8 UNK         0.5039 
     34 O          29.8378  -49.9686  -59.2018 O.2       8 UNK        -0.5547 
     35 CA         30.1670  -49.4506  -56.8862 C.3       7 UNK         0.0281 
     36 CB         31.3127  -48.4240  -56.8442 C.3       7 UNK        -0.1963 
     37 N          29.3430  -49.2824  -55.6823 N.am      7 UNK        -0.4444 
     38 C          28.2436  -49.9812  -55.3569 C.2       7 UNK         0.5104 
     39 O          27.7609  -50.8627  -56.0687 O.2       7 UNK        -0.5100 
     40 CA         27.5606  -49.6644  -54.0080 C.3       6 UNK         0.0396 
     41 CB         27.5746  -50.9011  -53.0944 C.3       6 UNK        -0.1801 
     42 N          28.1608  -48.5374  -53.2872 N.am      6 UNK        -0.4747 
     43 C          28.0249  -47.2438  -53.6173 C.2       6 UNK         0.5012 
     44 O          27.2899  -46.8586  -54.5254 O.2       6 UNK        -0.5003 
     45 CA         28.8757  -46.2046  -52.8512 C.3       5 UNK         0.0782 
     46 C46        28.0088  -45.0687  -52.2502 C.3       11 UNK        -0.0868 
     47 S47        29.0304  -43.6829  -51.6366 S.3       11 UNK        -0.2515 
     48 C48        29.0162  -42.5344  -53.0552 C.3       11 UNK         0.0199 
     49 N          29.7895  -46.7855  -51.8598 N.am      5 UNK        -0.4607 
     50 C          30.8943  -47.4734  -52.1669 C.2       4 UNK         0.5031 
     51 O          31.2077  -47.7491  -53.3256 O.2       4 UNK        -0.5119 
     52 CA         31.8030  -47.9233  -51.0072 C.3       4 UNK         0.0263 
     53 CB         31.1658  -47.8013  -49.6030 C.3       4 UNK        -0.1967 
     54 N          32.3236  -49.2710  -51.2477 N.am      4 UNK        -0.4237 
     55 C          31.6160  -50.4094  -51.3203 C.2       3 UNK         0.4908 
     56 O          30.4084  -50.4850  -51.0853 O.2       3 UNK        -0.5102 
     57 CA         32.4058  -51.6709  -51.7277 C.3       3 UNK         0.0241 
     58 CB         31.4972  -52.8606  -52.1095 C.3       3 UNK        -0.1971 
     59 N          33.3964  -51.3917  -52.7775 N.am      3 UNK        -0.4139 
     60 C          33.1457  -50.9559  -54.0217 C.2       2 UNK         0.5016 
     61 O          32.0193  -50.8478  -54.5045 O.2       2 UNK        -0.5319 
     62 CA         34.3707  -50.5527  -54.8639 C.3       2 UNK         0.0286 
     63 CB         34.2628  -51.0935  -56.3010 C.3       2 UNK        -0.1963 
     64 N          34.5692  -49.0986  -54.9148 N.am      2 UNK        -0.4790 
     65 C          34.8146  -48.3054  -53.8616 C.2       1 UNK         0.5024 
     66 O          34.8446  -48.7060  -52.6936 O.2       1 UNK        -0.4888 
     67 H67        38.0844  -45.5259  -51.8053 H         1 UNK         0.0892 
     68 H68        39.0319  -46.9972  -52.0312 H         1 UNK         0.0892 
     69 H69        39.2949  -45.6059  -53.0864 H         1 UNK         0.0892 
     70 H70        35.9951  -45.7492  -52.5782 H         1 UNK         0.3107 
     71 H71        35.3819  -46.7184  -55.2068 H         1 UNK         0.0773 
     72 H72        33.0347  -46.2508  -54.6056 H         1 UNK         0.0680 
     73 H73        33.4484  -46.1006  -52.9169 H         1 UNK         0.0680 
     74 H74        33.5493  -44.4359  -56.4207 H         1 UNK         0.0650 
     75 H75        33.5327  -42.7518  -55.9576 H         1 UNK         0.0650 
     76 H76        31.6831  -42.6825  -53.6163 H         1 UNK         0.1397 
     77 H77        27.8398  -43.7299  -55.2034 H         1 UNK         0.1363 
     78 H78        31.3952  -44.8388  -57.3164 H         1 UNK         0.1355 
     79 H79        29.1900  -45.9517  -57.7478 H         1 UNK         0.0707 
     80 H80        27.7246  -45.3468  -57.0319 H         1 UNK         0.0707 
     81 H81        27.7437  -42.1435  -57.5345 H         1 UNK         0.1034 
     82 H82        27.1390  -42.0252  -59.1606 H         1 UNK         0.1034 
     83 H83        26.0326  -43.6989  -56.8729 H         1 UNK         0.0482 
     84 H84        23.6973  -42.5437  -59.1848 H         1 UNK         0.3460 
     85 H85        23.2396  -41.1245  -58.2747 H         1 UNK         0.3460 
     86 H86        25.9558  -44.5633  -59.5184 H         1 UNK         0.2989 
     87 H87        23.4741  -47.0475  -58.8477 H         1 UNK         0.0559 
     88 H88        22.4650  -45.3824  -60.4194 H         1 UNK         0.0848 
     89 H89        23.1394  -46.7547  -61.2790 H         1 UNK         0.0848 
     90 H90        24.0044  -45.2179  -61.2519 H         1 UNK         0.0848 
     91 H91        25.6061  -47.0795  -60.6952 H         1 UNK         0.3144 
     92 H92        27.1244  -49.3127  -59.7734 H         1 UNK         0.0727 
     93 H93        28.4199  -46.5468  -60.1755 H         1 UNK         0.0790 
     94 H94        27.4745  -47.4159  -61.3771 H         1 UNK         0.0790 
     95 H95        29.0199  -48.0441  -60.8668 H         1 UNK         0.0790 
     96 H96        27.9935  -48.1607  -57.3890 H         1 UNK         0.3215 
     97 H97        30.5997  -50.4518  -56.8379 H         1 UNK         0.0863 
     98 H98        31.9194  -48.5451  -55.9473 H         1 UNK         0.0808 
     99 H99        30.9383  -47.4006  -56.8523 H         1 UNK         0.0808 
    100 H100       31.9755  -48.5393  -57.7027 H         1 UNK         0.0808 
    101 H101       29.7063  -48.6438  -54.9866 H         1 UNK         0.3118 
    102 H102       26.5199  -49.4146  -54.2243 H         1 UNK         0.0546 
    103 H103       28.5918  -51.2384  -52.8928 H         1 UNK         0.0828 
    104 H104       27.0436  -51.7344  -53.5560 H         1 UNK         0.0828 
    105 H105       27.0906  -50.6996  -52.1388 H         1 UNK         0.0828 
    106 H106       28.8086  -48.7736  -52.5469 H         1 UNK         0.3005 
    107 H107       29.5109  -45.7643  -53.6207 H         1 UNK         0.1257 
    108 H108       27.4073  -45.4486  -51.4226 H         1 UNK         0.0775 
    109 H109       27.2981  -44.6799  -52.9815 H         1 UNK         0.0775 
    110 H110       27.9881  -42.2476  -53.2822 H         1 UNK         0.0840 
    111 H111       29.5314  -41.6155  -52.7717 H         1 UNK         0.0840 
    112 H112       29.5846  -46.5893  -50.8910 H         1 UNK         0.2987 
    113 H113       32.6701  -47.2628  -51.0273 H         1 UNK         0.0785 
    114 H114       30.9542  -46.7608  -49.3535 H         1 UNK         0.0798 
    115 H115       31.8409  -48.1776  -48.8343 H         1 UNK         0.0798 
    116 H116       30.2321  -48.3589  -49.5215 H         1 UNK         0.0798 
    117 H117       33.2904  -49.2983  -51.5573 H         1 UNK         0.3079 
    118 H118       32.9734  -51.9659  -50.8440 H         1 UNK         0.0794 
    119 H119       32.0845  -53.7363  -52.3852 H         1 UNK         0.0786 
    120 H120       30.8402  -52.6198  -52.9457 H         1 UNK         0.0786 
    121 H121       30.8602  -53.1484  -51.2722 H         1 UNK         0.0786 
    122 H122       34.3614  -51.4212  -52.4768 H         1 UNK         0.3032 
    123 H123       35.2615  -50.9936  -54.4109 H         1 UNK         0.1094 
    124 H124       33.4220  -50.6534  -56.8386 H         1 UNK         0.0794 
    125 H125       35.1695  -50.8918  -56.8718 H         1 UNK         0.0794 
    126 H126       34.1159  -52.1744  -56.2997 H         1 UNK         0.0794 
    127 H127       34.5452  -48.6824  -55.8341 H         1 UNK         0.3016 
@<TRIPOS>BOND
     1    1    2 1    
     2    1   67 1    
     3    1   68 1    
     4    1   69 1    
     5    2    3 2    
     6    2    4 am   BACKBONE|DICT|INTERRES
     7    4    5 1    
     8    4   70 1    
     9    5    6 1    
    10    5   65 1    
    11    5   71 1    
    12    6    7 1    
    13    6   72 1    
    14    6   73 1    
    15    7    8 1    
    16    8    9 1    
    17    8   74 1    
    18    8   75 1    
    19    9   10 ar   
    20    9   14 ar   
    21   10   11 ar   
    22   10   76 1    
    23   11   12 ar   
    24   11   48 1    
    25   12   13 ar   
    26   12   77 1    
    27   13   14 ar   
    28   13   15 1    
    29   14   78 1    
    30   15   16 1    
    31   15   79 1    
    32   15   80 1    
    33   16   17 1    
    34   17   18 1    
    35   17   81 1    
    36   17   82 1    
    37   18   19 1    
    38   18   22 1    
    39   18   83 1    
    40   19   20 am   BACKBONE|DICT|INTERRES
    41   19   21 2    
    42   20   84 1    
    43   20   85 1    
    44   22   23 am   BACKBONE|DICT|INTERRES
    45   22   86 1    
    46   23   24 2    
    47   23   25 1    
    48   25   26 1    
    49   25   27 1    
    50   25   87 1    
    51   26   88 1    
    52   26   89 1    
    53   26   90 1    
    54   27   28 am   BACKBONE|DICT|INTERRES
    55   27   91 1    
    56   28   29 2    
    57   28   30 1    
    58   30   31 1    
    59   30   32 1    
    60   30   92 1    
    61   31   93 1    
    62   31   94 1    
    63   31   95 1    
    64   32   33 am   BACKBONE|DICT|INTERRES
    65   32   96 1    
    66   33   34 2    
    67   33   35 1    
    68   35   36 1    
    69   35   37 1    
    70   35   97 1    
    71   36   98 1    
    72   36   99 1    
    73   36  100 1    
    74   37   38 am   BACKBONE|DICT|INTERRES
    75   37  101 1    
    76   38   39 2    
    77   38   40 1    
    78   40   41 1    
    79   40   42 1    
    80   40  102 1    
    81   41  103 1    
    82   41  104 1    
    83   41  105 1    
    84   42   43 am   BACKBONE|DICT|INTERRES
    85   42  106 1    
    86   43   44 2    
    87   43   45 1    
    88   45   46 1    
    89   45   49 1    
    90   45  107 1    
    91   46   47 1    
    92   46  108 1    
    93   46  109 1    
    94   47   48 1    
    95   48  110 1    
    96   48  111 1    
    97   49   50 am   BACKBONE|DICT|INTERRES
    98   49  112 1    
    99   50   51 2    
   100   50   52 1    
   101   52   53 1    
   102   52   54 1    
   103   52  113 1    
   104   53  114 1    
   105   53  115 1    
   106   53  116 1    
   107   54   55 am   BACKBONE|DICT|INTERRES
   108   54  117 1    
   109   55   56 2    
   110   55   57 1    
   111   57   58 1    
   112   57   59 1    
   113   57  118 1    
   114   58  119 1    
   115   58  120 1    
   116   58  121 1    
   117   59   60 am   BACKBONE|DICT|INTERRES
   118   59  122 1    
   119   60   61 2    
   120   60   62 1    
   121   62   63 1    
   122   62   64 1    
   123   62  123 1    
   124   63  124 1    
   125   63  125 1    
   126   63  126 1    
   127   64   65 am   BACKBONE|DICT|INTERRES
   128   64  127 1    
   129   65   66 2    
@<TRIPOS>SUBSTRUCTURE
     1 UNK         1 GROUP             0       ****    0 ROOT    
