@<TRIPOS>MOLECULE
3R134
127   129    1
SMALL
USER_CHARGES


@<TRIPOS>ATOM
      1 CA         38.5271  -46.9109  -51.7857 C.3       0 UNK        -0.1968 
      2 C          37.2074  -47.0247  -52.5330 C.2       0 UNK         0.4852 
      3 O          36.6337  -48.1137  -52.6037 O.2       0 UNK        -0.5359 
      4 N          36.7009  -45.9057  -53.0732 N.am      1 UNK        -0.4300 
      5 CA         35.4636  -45.8403  -53.8648 C.3       1 UNK         0.0863 
      6 C6         35.3696  -44.5406  -54.6992 C.3       11 UNK        -0.0953 
      7 S7         35.0527  -43.0319  -53.7208 S.3       11 UNK        -0.2369 
      8 C8         33.8117  -42.1844  -54.7531 C.3       11 UNK         0.0226 
      9 C9         32.4849  -42.9315  -54.8203 C.ar      11 UNK        -0.0699 
     10 C10        31.6363  -42.9554  -53.7083 C.ar      11 UNK        -0.0804 
     11 C11        30.4004  -43.6078  -53.7657 C.ar      11 UNK        -0.0871 
     12 C12        30.0130  -44.2125  -54.9647 C.ar      11 UNK        -0.1008 
     13 C13        30.8669  -44.2438  -56.0673 C.ar      11 UNK        -0.0735 
     14 C14        32.0990  -43.5884  -55.9951 C.ar      11 UNK        -0.0945 
     15 C15        30.4721  -45.0364  -57.3066 C.3       11 UNK         0.0169 
     16 S16        29.6575  -44.0261  -58.5825 S.3       11 UNK        -0.2669 
     17 C17        28.1461  -43.4325  -57.7422 C.3       11 UNK        -0.0850 
     18 CA         27.0875  -44.5284  -57.4018 C.3       10 UNK         0.0855 
     19 C          25.8645  -43.9314  -56.6411 C.2       10 UNK         0.5543 
     20 N          24.6289  -44.3205  -56.9343 N.am      10 UNK        -0.7343 
     21 O          26.0399  -43.1133  -55.7420 O.2       10 UNK        -0.5027 
     22 N          26.7316  -45.4124  -58.5243 N.am      10 UNK        -0.4495 
     23 C          26.2563  -45.0378  -59.7206 C.2       10 UNK         0.4903 
     24 O          26.1378  -43.8696  -60.0901 O.2       10 UNK        -0.4860 
     25 CA         25.7953  -46.1671  -60.6615 C.3       9 UNK         0.0227 
     26 CB         26.9622  -46.6342  -61.5467 C.3       9 UNK        -0.1964 
     27 N          25.2238  -47.3222  -59.9598 N.am      9 UNK        -0.4231 
     28 C          24.1553  -47.2866  -59.1489 C.2       9 UNK         0.5014 
     29 O          23.4895  -46.2717  -58.9395 O.2       9 UNK        -0.5270 
     30 CA         23.7774  -48.5886  -58.4191 C.3       8 UNK         0.0284 
     31 CB         22.6315  -49.3013  -59.1559 C.3       8 UNK        -0.1977 
     32 N          24.8868  -49.5305  -58.2229 N.am      8 UNK        -0.4342 
     33 C          26.0006  -49.2834  -57.5200 C.2       8 UNK         0.5039 
     34 O          26.2746  -48.1874  -57.0235 O.2       8 UNK        -0.5547 
     35 CA         26.9989  -50.4439  -57.4083 C.3       7 UNK         0.0281 
     36 CB         28.0955  -50.3089  -58.4779 C.3       7 UNK        -0.1963 
     37 N          27.6087  -50.4630  -56.0785 N.am      7 UNK        -0.4444 
     38 C          27.0515  -51.0430  -55.0037 C.2       7 UNK         0.5104 
     39 O          25.9980  -51.6801  -55.0485 O.2       7 UNK        -0.5100 
     40 CA         27.7790  -50.9147  -53.6484 C.3       6 UNK         0.0396 
     41 CB         28.5826  -52.1900  -53.3507 C.3       6 UNK        -0.1801 
     42 N          28.6732  -49.7589  -53.5766 N.am      6 UNK        -0.4747 
     43 C          28.2636  -48.4816  -53.5380 C.2       6 UNK         0.5012 
     44 O          27.0844  -48.1608  -53.3875 O.2       6 UNK        -0.5003 
     45 CA         29.3288  -47.3789  -53.7428 C.3       5 UNK         0.0782 
     46 C46        29.5279  -46.5008  -52.4755 C.3       11 UNK        -0.0868 
     47 S47        28.3790  -45.0820  -52.4081 S.3       11 UNK        -0.2515 
     48 C48        29.5085  -43.6422  -52.5230 C.3       11 UNK         0.0199 
     49 N          30.6136  -47.8715  -54.2554 N.am      5 UNK        -0.4607 
     50 C          30.8153  -48.4768  -55.4335 C.2       4 UNK         0.5031 
     51 O          29.9248  -48.6651  -56.2586 O.2       4 UNK        -0.5119 
     52 CA         32.2269  -49.0174  -55.7172 C.3       4 UNK         0.0263 
     53 CB         33.0132  -48.0436  -56.6107 C.3       4 UNK        -0.1967 
     54 N          32.9818  -49.2972  -54.4904 N.am      4 UNK        -0.4237 
     55 C          32.7185  -50.3092  -53.6488 C.2       3 UNK         0.4908 
     56 O          31.8452  -51.1525  -53.8508 O.2       3 UNK        -0.5102 
     57 CA         33.5405  -50.3711  -52.3489 C.3       3 UNK         0.0241 
     58 CB         34.8716  -51.1020  -52.5840 C.3       3 UNK        -0.1971 
     59 N          33.7992  -49.0423  -51.7873 N.am      3 UNK        -0.4139 
     60 C          32.8598  -48.2728  -51.2118 C.2       2 UNK         0.5016 
     61 O          31.7062  -48.6472  -51.0039 O.2       2 UNK        -0.5319 
     62 CA         33.2507  -46.8247  -50.8503 C.3       2 UNK         0.0286 
     63 CB         33.7310  -46.7446  -49.3930 C.3       2 UNK        -0.1963 
     64 N          34.2805  -46.2650  -51.7303 N.am      2 UNK        -0.4790 
     65 C          34.1767  -46.1520  -53.0636 C.2       1 UNK         0.5024 
     66 O          33.1299  -46.3708  -53.6693 O.2       1 UNK        -0.4888 
     67 H67        39.2760  -47.5510  -52.2510 H         1 UNK         0.0892 
     68 H68        38.9077  -45.8898  -51.7827 H         1 UNK         0.0892 
     69 H69        38.4013  -47.2300  -50.7515 H         1 UNK         0.0892 
     70 H70        37.1935  -45.0299  -52.9650 H         1 UNK         0.3107 
     71 H71        35.5382  -46.6530  -54.5909 H         1 UNK         0.0773 
     72 H72        34.5944  -44.6588  -55.4561 H         1 UNK         0.0680 
     73 H73        36.2934  -44.3915  -55.2600 H         1 UNK         0.0680 
     74 H74        34.2224  -42.0339  -55.7528 H         1 UNK         0.0650 
     75 H75        33.6388  -41.1883  -54.3434 H         1 UNK         0.0650 
     76 H76        31.9451  -42.4654  -52.7949 H         1 UNK         0.1397 
     77 H77        29.0455  -44.6805  -55.0377 H         1 UNK         0.1363 
     78 H78        32.7584  -43.5963  -56.8521 H         1 UNK         0.1355 
     79 H79        29.8210  -45.8685  -57.0348 H         1 UNK         0.0707 
     80 H80        31.3625  -45.4910  -57.7429 H         1 UNK         0.0707 
     81 H81        28.4487  -42.8994  -56.8400 H         1 UNK         0.1034 
     82 H82        27.6978  -42.6688  -58.3792 H         1 UNK         0.1034 
     83 H83        27.5417  -45.2023  -56.6768 H         1 UNK         0.0482 
     84 H84        23.8583  -43.9260  -56.4193 H         1 UNK         0.3460 
     85 H85        24.4467  -44.9903  -57.6726 H         1 UNK         0.3460 
     86 H86        26.7303  -46.3998  -58.2965 H         1 UNK         0.2989 
     87 H87        25.0160  -45.7593  -61.3086 H         1 UNK         0.0559 
     88 H88        27.7648  -47.0790  -60.9567 H         1 UNK         0.0848 
     89 H89        27.3916  -45.7964  -62.0981 H         1 UNK         0.0848 
     90 H90        26.6360  -47.3697  -62.2823 H         1 UNK         0.0848 
     91 H91        25.7024  -48.2041  -60.0676 H         1 UNK         0.3144 
     92 H92        23.4186  -48.3031  -57.4278 H         1 UNK         0.0727 
     93 H93        22.2745  -50.1659  -58.5959 H         1 UNK         0.0790 
     94 H94        22.9375  -49.6428  -60.1457 H         1 UNK         0.0790 
     95 H95        21.7793  -48.6334  -59.2915 H         1 UNK         0.0790 
     96 H96        24.7592  -50.4546  -58.6115 H         1 UNK         0.3215 
     97 H97        26.4768  -51.3894  -57.5725 H         1 UNK         0.0863 
     98 H98        28.5979  -49.3423  -58.4247 H         1 UNK         0.0808 
     99 H99        27.6760  -50.3998  -59.4805 H         1 UNK         0.0808 
    100 H100       28.8529  -51.0857  -58.3719 H         1 UNK         0.0808 
    101 H101       28.4361  -49.8841  -55.9631 H         1 UNK         0.3118 
    102 H102       27.0177  -50.8044  -52.8734 H         1 UNK         0.0546 
    103 H103       29.0695  -52.1364  -52.3769 H         1 UNK         0.0828 
    104 H104       29.3541  -52.3648  -54.1018 H         1 UNK         0.0828 
    105 H105       27.9336  -53.0667  -53.3407 H         1 UNK         0.0828 
    106 H106       29.6623  -49.9432  -53.6846 H         1 UNK         0.3005 
    107 H107       28.9195  -46.7656  -54.5440 H         1 UNK         0.1257 
    108 H108       30.5425  -46.1022  -52.4511 H         1 UNK         0.0775 
    109 H109       29.4282  -47.0876  -51.5603 H         1 UNK         0.0775 
    110 H110       28.9100  -42.7307  -52.5022 H         1 UNK         0.0840 
    111 H111       30.1269  -43.6260  -51.6240 H         1 UNK         0.0840 
    112 H112       31.4253  -47.6873  -53.6793 H         1 UNK         0.2987 
    113 H113       32.1124  -49.9571  -56.2621 H         1 UNK         0.0785 
    114 H114       34.0153  -48.4163  -56.8224 H         1 UNK         0.0798 
    115 H115       32.5093  -47.9101  -57.5689 H         1 UNK         0.0798 
    116 H116       33.1077  -47.0560  -56.1594 H         1 UNK         0.0798 
    117 H117       33.6827  -48.6202  -54.2281 H         1 UNK         0.3079 
    118 H118       32.9636  -50.9433  -51.6188 H         1 UNK         0.0794 
    119 H119       35.4373  -51.2027  -51.6575 H         1 UNK         0.0786 
    120 H120       35.5011  -50.5771  -53.3038 H         1 UNK         0.0786 
    121 H121       34.7014  -52.1077  -52.9709 H         1 UNK         0.0786 
    122 H122       34.7313  -48.6623  -51.9234 H         1 UNK         0.3032 
    123 H123       32.3567  -46.2067  -50.9514 H         1 UNK         0.1094 
    124 H124       34.6410  -47.3247  -49.2343 H         1 UNK         0.0794 
    125 H125       33.9315  -45.7148  -49.0968 H         1 UNK         0.0794 
    126 H126       32.9731  -47.1337  -48.7114 H         1 UNK         0.0794 
    127 H127       35.1775  -46.0654  -51.3124 H         1 UNK         0.3016 
@<TRIPOS>BOND
     1    1    2 1    
     2    1   67 1    
     3    1   68 1    
     4    1   69 1    
     5    2    3 2    
     6    2    4 am   BACKBONE|DICT|INTERRES
     7    4    5 1    
     8    4   70 1    
     9    5    6 1    
    10    5   65 1    
    11    5   71 1    
    12    6    7 1    
    13    6   72 1    
    14    6   73 1    
    15    7    8 1    
    16    8    9 1    
    17    8   74 1    
    18    8   75 1    
    19    9   10 ar   
    20    9   14 ar   
    21   10   11 ar   
    22   10   76 1    
    23   11   12 ar   
    24   11   48 1    
    25   12   13 ar   
    26   12   77 1    
    27   13   14 ar   
    28   13   15 1    
    29   14   78 1    
    30   15   16 1    
    31   15   79 1    
    32   15   80 1    
    33   16   17 1    
    34   17   18 1    
    35   17   81 1    
    36   17   82 1    
    37   18   19 1    
    38   18   22 1    
    39   18   83 1    
    40   19   20 am   BACKBONE|DICT|INTERRES
    41   19   21 2    
    42   20   84 1    
    43   20   85 1    
    44   22   23 am   BACKBONE|DICT|INTERRES
    45   22   86 1    
    46   23   24 2    
    47   23   25 1    
    48   25   26 1    
    49   25   27 1    
    50   25   87 1    
    51   26   88 1    
    52   26   89 1    
    53   26   90 1    
    54   27   28 am   BACKBONE|DICT|INTERRES
    55   27   91 1    
    56   28   29 2    
    57   28   30 1    
    58   30   31 1    
    59   30   32 1    
    60   30   92 1    
    61   31   93 1    
    62   31   94 1    
    63   31   95 1    
    64   32   33 am   BACKBONE|DICT|INTERRES
    65   32   96 1    
    66   33   34 2    
    67   33   35 1    
    68   35   36 1    
    69   35   37 1    
    70   35   97 1    
    71   36   98 1    
    72   36   99 1    
    73   36  100 1    
    74   37   38 am   BACKBONE|DICT|INTERRES
    75   37  101 1    
    76   38   39 2    
    77   38   40 1    
    78   40   41 1    
    79   40   42 1    
    80   40  102 1    
    81   41  103 1    
    82   41  104 1    
    83   41  105 1    
    84   42   43 am   BACKBONE|DICT|INTERRES
    85   42  106 1    
    86   43   44 2    
    87   43   45 1    
    88   45   46 1    
    89   45   49 1    
    90   45  107 1    
    91   46   47 1    
    92   46  108 1    
    93   46  109 1    
    94   47   48 1    
    95   48  110 1    
    96   48  111 1    
    97   49   50 am   BACKBONE|DICT|INTERRES
    98   49  112 1    
    99   50   51 2    
   100   50   52 1    
   101   52   53 1    
   102   52   54 1    
   103   52  113 1    
   104   53  114 1    
   105   53  115 1    
   106   53  116 1    
   107   54   55 am   BACKBONE|DICT|INTERRES
   108   54  117 1    
   109   55   56 2    
   110   55   57 1    
   111   57   58 1    
   112   57   59 1    
   113   57  118 1    
   114   58  119 1    
   115   58  120 1    
   116   58  121 1    
   117   59   60 am   BACKBONE|DICT|INTERRES
   118   59  122 1    
   119   60   61 2    
   120   60   62 1    
   121   62   63 1    
   122   62   64 1    
   123   62  123 1    
   124   63  124 1    
   125   63  125 1    
   126   63  126 1    
   127   64   65 am   BACKBONE|DICT|INTERRES
   128   64  127 1    
   129   65   66 2    
@<TRIPOS>SUBSTRUCTURE
     1 UNK         1 GROUP             0       ****    0 ROOT    
