@<TRIPOS>MOLECULE
3R134
127   129    1
SMALL
USER_CHARGES


@<TRIPOS>ATOM
      1 CA         37.6357  -43.3780  -53.3168 C.3       0 UNK        -0.1968 
      2 C          36.4579  -44.3397  -53.3637 C.2       0 UNK         0.4852 
      3 O          35.6702  -44.3822  -52.4176 O.2       0 UNK        -0.5359 
      4 N          36.3430  -45.1174  -54.4503 N.am      1 UNK        -0.4300 
      5 CA         35.2860  -46.0929  -54.7736 C.3       1 UNK         0.0863 
      6 C6         33.8594  -45.4876  -54.8278 C.3       11 UNK        -0.0953 
      7 S7         33.6951  -44.1292  -56.0391 S.3       11 UNK        -0.2369 
      8 C8         33.3295  -42.6909  -54.9795 C.3       11 UNK         0.0226 
      9 C9         31.9611  -42.8057  -54.3231 C.ar      11 UNK        -0.0699 
     10 C10        31.8509  -43.3157  -53.0278 C.ar      11 UNK        -0.0804 
     11 C11        30.5986  -43.5052  -52.4423 C.ar      11 UNK        -0.0871 
     12 C12        29.4495  -43.1108  -53.1307 C.ar      11 UNK        -0.1008 
     13 C13        29.5469  -42.5662  -54.4153 C.ar      11 UNK        -0.0735 
     14 C14        30.8050  -42.4236  -55.0114 C.ar      11 UNK        -0.0945 
     15 C15        28.2867  -42.1410  -55.1541 C.3       11 UNK         0.0169 
     16 S16        27.2275  -43.5667  -55.5477 S.3       11 UNK        -0.2669 
     17 C17        28.1794  -44.3943  -56.8684 C.3       11 UNK        -0.0850 
     18 CA         27.3063  -44.7049  -58.1143 C.3       10 UNK         0.0855 
     19 C          28.1909  -44.9770  -59.3620 C.2       10 UNK         0.5543 
     20 N          28.2793  -46.1920  -59.8849 N.am      10 UNK        -0.7343 
     21 O          28.7994  -44.0474  -59.8866 O.2       10 UNK        -0.5027 
     22 N          26.3153  -45.7622  -57.8385 N.am      10 UNK        -0.4495 
     23 C          25.0122  -45.5481  -57.6010 C.2       10 UNK         0.4903 
     24 O          24.4845  -44.4342  -57.6321 O.2       10 UNK        -0.4860 
     25 CA         24.1451  -46.7837  -57.2681 C.3       9 UNK         0.0227 
     26 CB         22.6295  -46.4950  -57.3212 C.3       9 UNK        -0.1964 
     27 N          24.4763  -47.9585  -58.0788 N.am      9 UNK        -0.4231 
     28 C          24.4839  -48.0477  -59.4193 C.2       9 UNK         0.5014 
     29 O          24.0494  -47.1691  -60.1662 O.2       9 UNK        -0.5270 
     30 CA         25.0988  -49.3261  -60.0355 C.3       8 UNK         0.0284 
     31 CB         25.8326  -49.0323  -61.3614 C.3       8 UNK        -0.1977 
     32 N          25.9798  -50.0801  -59.1289 N.am      8 UNK        -0.4342 
     33 C          27.0568  -49.6187  -58.4763 C.2       8 UNK         0.5039 
     34 O          27.4656  -48.4585  -58.5470 O.2       8 UNK        -0.5547 
     35 CA         27.7445  -50.5988  -57.5164 C.3       7 UNK         0.0281 
     36 CB         29.2293  -50.7621  -57.8787 C.3       7 UNK        -0.1963 
     37 N          27.6218  -50.1630  -56.1219 N.am      7 UNK        -0.4444 
     38 C          26.4707  -49.9489  -55.4665 C.2       7 UNK         0.5104 
     39 O          25.3557  -50.0541  -55.9807 O.2       7 UNK        -0.5100 
     40 CA         26.5749  -49.5721  -53.9801 C.3       6 UNK         0.0396 
     41 CB         26.5145  -50.8354  -53.1072 C.3       6 UNK        -0.1801 
     42 N          27.7973  -48.8304  -53.6643 N.am      6 UNK        -0.4747 
     43 C          27.9418  -47.5063  -53.8319 C.2       6 UNK         0.5012 
     44 O          27.0552  -46.7756  -54.2705 O.2       6 UNK        -0.5003 
     45 CA         29.3071  -46.9076  -53.4239 C.3       5 UNK         0.0782 
     46 C46        29.2877  -46.6114  -51.9001 C.3       11 UNK        -0.0868 
     47 S47        30.8518  -45.9587  -51.2279 S.3       11 UNK        -0.2515 
     48 C48        30.5026  -44.1767  -51.0842 C.3       11 UNK         0.0199 
     49 N          30.4113  -47.7912  -53.8269 N.am      5 UNK        -0.4607 
     50 C          30.6998  -48.1077  -55.0984 C.2       4 UNK         0.5031 
     51 O          30.1739  -47.5504  -56.0602 O.2       4 UNK        -0.5119 
     52 CA         31.6838  -49.2666  -55.3637 C.3       4 UNK         0.0263 
     53 CB         32.6421  -48.9719  -56.5324 C.3       4 UNK        -0.1967 
     54 N          32.4429  -49.7247  -54.1954 N.am      4 UNK        -0.4237 
     55 C          31.9447  -50.4984  -53.2180 C.2       3 UNK         0.4908 
     56 O          30.7575  -50.8225  -53.1563 O.2       3 UNK        -0.5102 
     57 CA         32.9124  -51.0009  -52.1296 C.3       3 UNK         0.0241 
     58 CB         33.2901  -52.4682  -52.3895 C.3       3 UNK        -0.1971 
     59 N          34.1372  -50.2044  -52.0218 N.am      3 UNK        -0.4139 
     60 C          34.2026  -48.9851  -51.4716 C.2       2 UNK         0.5016 
     61 O          33.2432  -48.4269  -50.9417 O.2       2 UNK        -0.5319 
     62 CA         35.5522  -48.2461  -51.5423 C.3       2 UNK         0.0286 
     63 CB         36.7733  -49.1775  -51.7203 C.3       2 UNK        -0.1963 
     64 N          35.5355  -47.2059  -52.5772 N.am      2 UNK        -0.4790 
     65 C          35.3027  -47.3597  -53.8883 C.2       1 UNK         0.5024 
     66 O          35.1030  -48.4558  -54.4142 O.2       1 UNK        -0.4888 
     67 H67        38.2661  -43.5989  -52.4560 H         1 UNK         0.0892 
     68 H68        38.2514  -43.4407  -54.2138 H         1 UNK         0.0892 
     69 H69        37.2774  -42.3532  -53.2231 H         1 UNK         0.0892 
     70 H70        37.0540  -45.0366  -55.1640 H         1 UNK         0.3107 
     71 H71        35.5233  -46.4392  -55.7811 H         1 UNK         0.0773 
     72 H72        33.1253  -46.2442  -55.1026 H         1 UNK         0.0680 
     73 H73        33.5647  -45.1560  -53.8360 H         1 UNK         0.0680 
     74 H74        33.3689  -41.7865  -55.5881 H         1 UNK         0.0650 
     75 H75        34.1106  -42.5856  -54.2254 H         1 UNK         0.0650 
     76 H76        32.7394  -43.6105  -52.4856 H         1 UNK         0.1397 
     77 H77        28.4754  -43.2482  -52.6811 H         1 UNK         0.1363 
     78 H78        30.8870  -42.0241  -56.0130 H         1 UNK         0.1355 
     79 H79        28.5261  -41.5978  -56.0697 H         1 UNK         0.0707 
     80 H80        27.7243  -41.4490  -54.5257 H         1 UNK         0.0707 
     81 H81        29.0261  -43.7600  -57.1374 H         1 UNK         0.1034 
     82 H82        28.6117  -45.3130  -56.4675 H         1 UNK         0.1034 
     83 H83        26.7740  -43.7875  -58.3728 H         1 UNK         0.0482 
     84 H84        27.8757  -47.0034  -59.4175 H         1 UNK         0.3460 
     85 H85        28.8534  -46.3271  -60.7006 H         1 UNK         0.3460 
     86 H86        26.6684  -46.7136  -57.8568 H         1 UNK         0.2989 
     87 H87        24.3925  -47.0517  -56.2396 H         1 UNK         0.0559 
     88 H88        22.3570  -45.7049  -56.6205 H         1 UNK         0.0848 
     89 H89        22.3136  -46.1721  -58.3137 H         1 UNK         0.0848 
     90 H90        22.0476  -47.3770  -57.0540 H         1 UNK         0.0848 
     91 H91        24.8433  -48.7481  -57.5567 H         1 UNK         0.3144 
     92 H92        24.2575  -49.9834  -60.2601 H         1 UNK         0.0727 
     93 H93        26.2434  -49.9424  -61.7985 H         1 UNK         0.0790 
     94 H94        26.6532  -48.3283  -61.2202 H         1 UNK         0.0790 
     95 H95        25.1563  -48.5989  -62.0993 H         1 UNK         0.0790 
     96 H96        25.6980  -51.0359  -58.9552 H         1 UNK         0.3215 
     97 H97        27.2658  -51.5768  -57.5989 H         1 UNK         0.0863 
     98 H98        29.3417  -51.1151  -58.9046 H         1 UNK         0.0808 
     99 H99        29.7670  -49.8160  -57.8034 H         1 UNK         0.0808 
    100 H100       29.7218  -51.4886  -57.2324 H         1 UNK         0.0808 
    101 H101       28.4810  -49.9969  -55.6223 H         1 UNK         0.3118 
    102 H102       25.7091  -48.9531  -53.7341 H         1 UNK         0.0546 
    103 H103       25.6068  -51.4062  -53.3089 H         1 UNK         0.0828 
    104 H104       26.5076  -50.5843  -52.0465 H         1 UNK         0.0828 
    105 H105       27.3630  -51.4963  -53.2901 H         1 UNK         0.0828 
    106 H106       28.5756  -49.3614  -53.2952 H         1 UNK         0.3005 
    107 H107       29.4256  -45.9631  -53.9608 H         1 UNK         0.1257 
    108 H108       29.0627  -47.5213  -51.3399 H         1 UNK         0.0775 
    109 H109       28.4832  -45.9124  -51.6631 H         1 UNK         0.0775 
    110 H110       29.5242  -44.0179  -50.6282 H         1 UNK         0.0840 
    111 H111       31.2312  -43.7275  -50.4076 H         1 UNK         0.0840 
    112 H112       30.9020  -48.2648  -53.0821 H         1 UNK         0.2987 
    113 H113       31.0620  -50.1049  -55.6813 H         1 UNK         0.0785 
    114 H114       32.0915  -48.7390  -57.4447 H         1 UNK         0.0798 
    115 H115       33.2732  -49.8330  -56.7524 H         1 UNK         0.0798 
    116 H116       33.2951  -48.1263  -56.3281 H         1 UNK         0.0798 
    117 H117       33.4235  -49.4597  -54.1655 H         1 UNK         0.3079 
    118 H118       32.3827  -50.9497  -51.1757 H         1 UNK         0.0794 
    119 H119       32.4000  -53.0968  -52.4442 H         1 UNK         0.0786 
    120 H120       33.9152  -52.8651  -51.5892 H         1 UNK         0.0786 
    121 H121       33.8308  -52.5866  -53.3295 H         1 UNK         0.0786 
    122 H122       34.9679  -50.5767  -52.4593 H         1 UNK         0.3032 
    123 H123       35.6665  -47.7335  -50.5855 H         1 UNK         0.1094 
    124 H124       37.7035  -48.6154  -51.6358 H         1 UNK         0.0794 
    125 H125       36.7961  -49.9470  -50.9473 H         1 UNK         0.0794 
    126 H126       36.7843  -49.6789  -52.6883 H         1 UNK         0.0794 
    127 H127       35.6223  -46.2453  -52.2498 H         1 UNK         0.3016 
@<TRIPOS>BOND
     1    1    2 1    
     2    1   67 1    
     3    1   68 1    
     4    1   69 1    
     5    2    3 2    
     6    2    4 am   BACKBONE|DICT|INTERRES
     7    4    5 1    
     8    4   70 1    
     9    5    6 1    
    10    5   65 1    
    11    5   71 1    
    12    6    7 1    
    13    6   72 1    
    14    6   73 1    
    15    7    8 1    
    16    8    9 1    
    17    8   74 1    
    18    8   75 1    
    19    9   10 ar   
    20    9   14 ar   
    21   10   11 ar   
    22   10   76 1    
    23   11   12 ar   
    24   11   48 1    
    25   12   13 ar   
    26   12   77 1    
    27   13   14 ar   
    28   13   15 1    
    29   14   78 1    
    30   15   16 1    
    31   15   79 1    
    32   15   80 1    
    33   16   17 1    
    34   17   18 1    
    35   17   81 1    
    36   17   82 1    
    37   18   19 1    
    38   18   22 1    
    39   18   83 1    
    40   19   20 am   BACKBONE|DICT|INTERRES
    41   19   21 2    
    42   20   84 1    
    43   20   85 1    
    44   22   23 am   BACKBONE|DICT|INTERRES
    45   22   86 1    
    46   23   24 2    
    47   23   25 1    
    48   25   26 1    
    49   25   27 1    
    50   25   87 1    
    51   26   88 1    
    52   26   89 1    
    53   26   90 1    
    54   27   28 am   BACKBONE|DICT|INTERRES
    55   27   91 1    
    56   28   29 2    
    57   28   30 1    
    58   30   31 1    
    59   30   32 1    
    60   30   92 1    
    61   31   93 1    
    62   31   94 1    
    63   31   95 1    
    64   32   33 am   BACKBONE|DICT|INTERRES
    65   32   96 1    
    66   33   34 2    
    67   33   35 1    
    68   35   36 1    
    69   35   37 1    
    70   35   97 1    
    71   36   98 1    
    72   36   99 1    
    73   36  100 1    
    74   37   38 am   BACKBONE|DICT|INTERRES
    75   37  101 1    
    76   38   39 2    
    77   38   40 1    
    78   40   41 1    
    79   40   42 1    
    80   40  102 1    
    81   41  103 1    
    82   41  104 1    
    83   41  105 1    
    84   42   43 am   BACKBONE|DICT|INTERRES
    85   42  106 1    
    86   43   44 2    
    87   43   45 1    
    88   45   46 1    
    89   45   49 1    
    90   45  107 1    
    91   46   47 1    
    92   46  108 1    
    93   46  109 1    
    94   47   48 1    
    95   48  110 1    
    96   48  111 1    
    97   49   50 am   BACKBONE|DICT|INTERRES
    98   49  112 1    
    99   50   51 2    
   100   50   52 1    
   101   52   53 1    
   102   52   54 1    
   103   52  113 1    
   104   53  114 1    
   105   53  115 1    
   106   53  116 1    
   107   54   55 am   BACKBONE|DICT|INTERRES
   108   54  117 1    
   109   55   56 2    
   110   55   57 1    
   111   57   58 1    
   112   57   59 1    
   113   57  118 1    
   114   58  119 1    
   115   58  120 1    
   116   58  121 1    
   117   59   60 am   BACKBONE|DICT|INTERRES
   118   59  122 1    
   119   60   61 2    
   120   60   62 1    
   121   62   63 1    
   122   62   64 1    
   123   62  123 1    
   124   63  124 1    
   125   63  125 1    
   126   63  126 1    
   127   64   65 am   BACKBONE|DICT|INTERRES
   128   64  127 1    
   129   65   66 2    
@<TRIPOS>SUBSTRUCTURE
     1 UNK         1 GROUP             0       ****    0 ROOT    
