@<TRIPOS>MOLECULE
3R134
127   129    1
SMALL
USER_CHARGES


@<TRIPOS>ATOM
      1 CA         32.1736  -47.0882  -58.1662 C.3       0 UNK        -0.1968 
      2 C          33.0416  -46.1334  -57.3609 C.2       0 UNK         0.4852 
      3 O          34.1054  -45.7281  -57.8322 O.2       0 UNK        -0.5359 
      4 N          32.6026  -45.7869  -56.1421 N.am      1 UNK        -0.4300 
      5 CA         33.2283  -44.8623  -55.1838 C.3       1 UNK         0.0863 
      6 C6         33.5242  -43.4580  -55.7901 C.3       11 UNK        -0.0953 
      7 S7         33.3945  -41.9543  -54.7466 S.3       11 UNK        -0.2369 
      8 C8         33.3589  -42.4471  -52.9854 C.3       11 UNK         0.0226 
      9 C9         32.0674  -43.1165  -52.5189 C.ar      11 UNK        -0.0699 
     10 C10        32.1325  -44.1137  -51.5407 C.ar      11 UNK        -0.0804 
     11 C11        30.9751  -44.7601  -51.0980 C.ar      11 UNK        -0.0871 
     12 C12        29.7388  -44.3996  -51.6391 C.ar      11 UNK        -0.1008 
     13 C13        29.6593  -43.4169  -52.6293 C.ar      11 UNK        -0.0735 
     14 C14        30.8211  -42.7636  -53.0490 C.ar      11 UNK        -0.0945 
     15 C15        28.3195  -43.0830  -53.2654 C.3       11 UNK         0.0169 
     16 S16        27.7101  -44.4658  -54.2806 S.3       11 UNK        -0.2669 
     17 C17        28.9360  -44.5360  -55.6348 C.3       11 UNK        -0.0850 
     18 CA         28.3005  -44.2492  -57.0193 C.3       10 UNK         0.0855 
     19 C          29.3872  -44.1859  -58.1341 C.2       10 UNK         0.5543 
     20 N          29.3456  -45.0189  -59.1681 N.am      10 UNK        -0.7343 
     21 O          30.2878  -43.3551  -58.0588 O.2       10 UNK        -0.5027 
     22 N          27.1978  -45.1795  -57.3004 N.am      10 UNK        -0.4495 
     23 C          26.1942  -44.9576  -58.1567 C.2       10 UNK         0.4903 
     24 O          26.0255  -43.8938  -58.7548 O.2       10 UNK        -0.4860 
     25 CA         25.2253  -46.1376  -58.3826 C.3       9 UNK         0.0227 
     26 CB         24.4625  -46.0331  -59.7202 C.3       9 UNK        -0.1964 
     27 N          25.8677  -47.4557  -58.2537 N.am      9 UNK        -0.4231 
     28 C          26.9116  -47.9179  -58.9636 C.2       9 UNK         0.5014 
     29 O          27.4750  -47.2568  -59.8378 O.2       9 UNK        -0.5270 
     30 CA         27.4486  -49.3242  -58.6310 C.3       8 UNK         0.0284 
     31 CB         28.9855  -49.3752  -58.6870 C.3       8 UNK        -0.1977 
     32 N          27.0015  -49.8108  -57.3214 N.am      8 UNK        -0.4342 
     33 C          25.9184  -50.5743  -57.1246 C.2       8 UNK         0.5039 
     34 O          25.2012  -50.9938  -58.0336 O.2       8 UNK        -0.5547 
     35 CA         25.5415  -50.8915  -55.6673 C.3       7 UNK         0.0281 
     36 CB         26.3480  -52.0917  -55.1458 C.3       7 UNK        -0.1963 
     37 N          25.7040  -49.7615  -54.7479 N.am      7 UNK        -0.4444 
     38 C          25.1142  -48.5634  -54.8459 C.2       7 UNK         0.5104 
     39 O          24.3714  -48.2468  -55.7747 O.2       7 UNK        -0.5100 
     40 CA         25.4178  -47.5245  -53.7473 C.3       6 UNK         0.0396 
     41 CB         24.4691  -47.6923  -52.5454 C.3       6 UNK        -0.1801 
     42 N          26.8270  -47.4693  -53.3282 N.am      6 UNK        -0.4747 
     43 C          27.5505  -48.4025  -52.6944 C.2       6 UNK         0.5012 
     44 O          27.0891  -49.4720  -52.2881 O.2       6 UNK        -0.5003 
     45 CA         29.0615  -48.1316  -52.5445 C.3       5 UNK         0.0782 
     46 C46        29.4124  -47.9168  -51.0516 C.3       11 UNK        -0.0868 
     47 S47        31.1713  -47.5070  -50.7814 S.3       11 UNK        -0.2515 
     48 C48        31.0693  -45.8467  -50.0377 C.3       11 UNK         0.0199 
     49 N          29.8443  -49.2280  -53.1293 N.am      5 UNK        -0.4607 
     50 C          29.7204  -49.7317  -54.3658 C.2       4 UNK         0.5031 
     51 O          28.9536  -49.2837  -55.2234 O.2       4 UNK        -0.5119 
     52 CA         30.6046  -50.9570  -54.6739 C.3       4 UNK         0.0263 
     53 CB         30.4998  -51.4231  -56.1407 C.3       4 UNK        -0.1967 
     54 N          32.0141  -50.7726  -54.2978 N.am      4 UNK        -0.4237 
     55 C          32.8404  -49.8186  -54.7508 C.2       3 UNK         0.4908 
     56 O          32.4969  -48.9038  -55.5051 O.2       3 UNK        -0.5102 
     57 CA         34.3081  -49.9210  -54.3122 C.3       3 UNK         0.0241 
     58 CB         35.0024  -51.1363  -54.9582 C.3       3 UNK        -0.1971 
     59 N          34.9724  -48.6904  -54.7208 N.am      3 UNK        -0.4139 
     60 C          36.1279  -48.1950  -54.2672 C.2       2 UNK         0.5016 
     61 O          36.8518  -48.7690  -53.4527 O.2       2 UNK        -0.5319 
     62 CA         36.5411  -46.8122  -54.8104 C.3       2 UNK         0.0286 
     63 CB         37.5562  -46.9632  -55.9546 C.3       2 UNK        -0.1963 
     64 N          35.4006  -46.0181  -55.2835 N.am      2 UNK        -0.4790 
     65 C          34.4515  -45.5007  -54.4918 C.2       1 UNK         0.5024 
     66 O          34.4930  -45.5725  -53.2644 O.2       1 UNK        -0.4888 
     67 H67        31.9825  -46.6806  -59.1583 H         1 UNK         0.0892 
     68 H68        32.6755  -48.0489  -58.2786 H         1 UNK         0.0892 
     69 H69        31.2137  -47.2619  -57.6815 H         1 UNK         0.0892 
     70 H70        31.7776  -46.2535  -55.7926 H         1 UNK         0.3107 
     71 H71        32.4573  -44.7562  -54.4264 H         1 UNK         0.0773 
     72 H72        32.8223  -43.2761  -56.6058 H         1 UNK         0.0680 
     73 H73        34.5054  -43.4462  -56.2679 H         1 UNK         0.0680 
     74 H74        33.4900  -41.5435  -52.3891 H         1 UNK         0.0650 
     75 H75        34.2289  -43.0671  -52.7723 H         1 UNK         0.0650 
     76 H76        33.0924  -44.3989  -51.1312 H         1 UNK         0.1397 
     77 H77        28.8370  -44.8957  -51.3093 H         1 UNK         0.1363 
     78 H78        30.7548  -41.9961  -53.8076 H         1 UNK         0.1355 
     79 H79        27.5915  -42.8693  -52.4816 H         1 UNK         0.0707 
     80 H80        28.3852  -42.1839  -53.8802 H         1 UNK         0.0707 
     81 H81        29.7403  -43.8259  -55.4359 H         1 UNK         0.1034 
     82 H82        29.3994  -45.5238  -55.6251 H         1 UNK         0.1034 
     83 H83        27.8737  -43.2454  -56.9732 H         1 UNK         0.0482 
     84 H84        28.6022  -45.7013  -59.2713 H         1 UNK         0.3460 
     85 H85        30.0506  -44.9422  -59.8825 H         1 UNK         0.3460 
     86 H86        27.2556  -46.0826  -56.8568 H         1 UNK         0.2989 
     87 H87        24.4897  -46.0795  -57.5792 H         1 UNK         0.0559 
     88 H88        25.1416  -46.0247  -60.5734 H         1 UNK         0.0848 
     89 H89        23.8731  -45.1165  -59.7655 H         1 UNK         0.0848 
     90 H90        23.7717  -46.8662  -59.8491 H         1 UNK         0.0848 
     91 H91        25.4669  -48.0566  -57.5407 H         1 UNK         0.3144 
     92 H92        27.0750  -49.9842  -59.4165 H         1 UNK         0.0727 
     93 H93        29.4356  -48.7949  -57.8820 H         1 UNK         0.0790 
     94 H94        29.3704  -48.9851  -59.6301 H         1 UNK         0.0790 
     95 H95        29.3407  -50.4015  -58.6067 H         1 UNK         0.0790 
     96 H96        27.5620  -49.5340  -56.5162 H         1 UNK         0.3215 
     97 H97        24.4838  -51.1629  -55.6586 H         1 UNK         0.0863 
     98 H98        26.0010  -52.4038  -54.1606 H         1 UNK         0.0808 
     99 H99        27.4105  -51.8608  -55.0675 H         1 UNK         0.0808 
    100 H100       26.2473  -52.9505  -55.8110 H         1 UNK         0.0808 
    101 H101       26.2932  -49.9087  -53.9324 H         1 UNK         0.3118 
    102 H102       25.2115  -46.5464  -54.1854 H         1 UNK         0.0546 
    103 H103       24.5852  -48.6618  -52.0605 H         1 UNK         0.0828 
    104 H104       23.4279  -47.6138  -52.8609 H         1 UNK         0.0828 
    105 H105       24.6390  -46.9194  -51.7959 H         1 UNK         0.0828 
    106 H106       27.3057  -46.6289  -53.6309 H         1 UNK         0.3005 
    107 H107       29.3146  -47.2242  -53.0971 H         1 UNK         0.1257 
    108 H108       29.1928  -48.8188  -50.4765 H         1 UNK         0.0775 
    109 H109       28.7853  -47.1352  -50.6204 H         1 UNK         0.0775 
    110 H110       30.2242  -45.7871  -49.3504 H         1 UNK         0.0840 
    111 H111       31.9590  -45.6887  -49.4261 H         1 UNK         0.0840 
    112 H112       30.5130  -49.6565  -52.5070 H         1 UNK         0.2987 
    113 H113       30.2195  -51.7650  -54.0500 H         1 UNK         0.0785 
    114 H114       29.4650  -51.6208  -56.4216 H         1 UNK         0.0798 
    115 H115       31.0591  -52.3442  -56.3035 H         1 UNK         0.0798 
    116 H116       30.8901  -50.6720  -56.8272 H         1 UNK         0.0798 
    117 H117       32.3914  -51.4688  -53.6695 H         1 UNK         0.3079 
    118 H118       34.3431  -50.0008  -53.2237 H         1 UNK         0.0794 
    119 H119       34.5247  -52.0710  -54.6627 H         1 UNK         0.0786 
    120 H120       36.0483  -51.2046  -54.6585 H         1 UNK         0.0786 
    121 H121       34.9710  -51.0830  -56.0473 H         1 UNK         0.0786 
    122 H122       34.4152  -48.1314  -55.3559 H         1 UNK         0.3032 
    123 H123       37.0196  -46.2706  -53.9912 H         1 UNK         0.1094 
    124 H124       37.1250  -47.4845  -56.8103 H         1 UNK         0.0794 
    125 H125       37.9142  -45.9924  -56.2979 H         1 UNK         0.0794 
    126 H126       38.4282  -47.5330  -55.6302 H         1 UNK         0.0794 
    127 H127       35.2636  -45.9360  -56.2884 H         1 UNK         0.3016 
@<TRIPOS>BOND
     1    1    2 1    
     2    1   67 1    
     3    1   68 1    
     4    1   69 1    
     5    2    3 2    
     6    2    4 am   BACKBONE|DICT|INTERRES
     7    4    5 1    
     8    4   70 1    
     9    5    6 1    
    10    5   65 1    
    11    5   71 1    
    12    6    7 1    
    13    6   72 1    
    14    6   73 1    
    15    7    8 1    
    16    8    9 1    
    17    8   74 1    
    18    8   75 1    
    19    9   10 ar   
    20    9   14 ar   
    21   10   11 ar   
    22   10   76 1    
    23   11   12 ar   
    24   11   48 1    
    25   12   13 ar   
    26   12   77 1    
    27   13   14 ar   
    28   13   15 1    
    29   14   78 1    
    30   15   16 1    
    31   15   79 1    
    32   15   80 1    
    33   16   17 1    
    34   17   18 1    
    35   17   81 1    
    36   17   82 1    
    37   18   19 1    
    38   18   22 1    
    39   18   83 1    
    40   19   20 am   BACKBONE|DICT|INTERRES
    41   19   21 2    
    42   20   84 1    
    43   20   85 1    
    44   22   23 am   BACKBONE|DICT|INTERRES
    45   22   86 1    
    46   23   24 2    
    47   23   25 1    
    48   25   26 1    
    49   25   27 1    
    50   25   87 1    
    51   26   88 1    
    52   26   89 1    
    53   26   90 1    
    54   27   28 am   BACKBONE|DICT|INTERRES
    55   27   91 1    
    56   28   29 2    
    57   28   30 1    
    58   30   31 1    
    59   30   32 1    
    60   30   92 1    
    61   31   93 1    
    62   31   94 1    
    63   31   95 1    
    64   32   33 am   BACKBONE|DICT|INTERRES
    65   32   96 1    
    66   33   34 2    
    67   33   35 1    
    68   35   36 1    
    69   35   37 1    
    70   35   97 1    
    71   36   98 1    
    72   36   99 1    
    73   36  100 1    
    74   37   38 am   BACKBONE|DICT|INTERRES
    75   37  101 1    
    76   38   39 2    
    77   38   40 1    
    78   40   41 1    
    79   40   42 1    
    80   40  102 1    
    81   41  103 1    
    82   41  104 1    
    83   41  105 1    
    84   42   43 am   BACKBONE|DICT|INTERRES
    85   42  106 1    
    86   43   44 2    
    87   43   45 1    
    88   45   46 1    
    89   45   49 1    
    90   45  107 1    
    91   46   47 1    
    92   46  108 1    
    93   46  109 1    
    94   47   48 1    
    95   48  110 1    
    96   48  111 1    
    97   49   50 am   BACKBONE|DICT|INTERRES
    98   49  112 1    
    99   50   51 2    
   100   50   52 1    
   101   52   53 1    
   102   52   54 1    
   103   52  113 1    
   104   53  114 1    
   105   53  115 1    
   106   53  116 1    
   107   54   55 am   BACKBONE|DICT|INTERRES
   108   54  117 1    
   109   55   56 2    
   110   55   57 1    
   111   57   58 1    
   112   57   59 1    
   113   57  118 1    
   114   58  119 1    
   115   58  120 1    
   116   58  121 1    
   117   59   60 am   BACKBONE|DICT|INTERRES
   118   59  122 1    
   119   60   61 2    
   120   60   62 1    
   121   62   63 1    
   122   62   64 1    
   123   62  123 1    
   124   63  124 1    
   125   63  125 1    
   126   63  126 1    
   127   64   65 am   BACKBONE|DICT|INTERRES
   128   64  127 1    
   129   65   66 2    
@<TRIPOS>SUBSTRUCTURE
     1 UNK         1 GROUP             0       ****    0 ROOT    
