@<TRIPOS>MOLECULE
3R134
127   129    1
SMALL
USER_CHARGES


@<TRIPOS>ATOM
      1 CA         34.4970  -48.4495  -57.2503 C.3       0 UNK        -0.1968 
      2 C          34.2639  -47.7625  -55.9141 C.2       0 UNK         0.4852 
      3 O          34.0433  -48.4410  -54.9111 O.2       0 UNK        -0.5359 
      4 N          34.3106  -46.4250  -55.8828 N.am      1 UNK        -0.4300 
      5 CA         34.0829  -45.6005  -54.6909 C.3       1 UNK         0.0863 
      6 C6         34.1695  -44.0896  -55.0077 C.3       11 UNK        -0.0953 
      7 S7         32.9191  -43.5671  -56.2289 S.3       11 UNK        -0.2369 
      8 C8         31.7153  -42.6972  -55.1782 C.3       11 UNK         0.0226 
      9 C9         30.7971  -43.6567  -54.4341 C.ar      11 UNK        -0.0699 
     10 C10        31.1350  -44.1257  -53.1599 C.ar      11 UNK        -0.0804 
     11 C11        30.2688  -44.9761  -52.4648 C.ar      11 UNK        -0.0871 
     12 C12        29.0372  -45.3123  -53.0336 C.ar      11 UNK        -0.1008 
     13 C13        28.6985  -44.8715  -54.3135 C.ar      11 UNK        -0.0735 
     14 C14        29.5908  -44.0572  -55.0165 C.ar      11 UNK        -0.0945 
     15 C15        27.3923  -45.3298  -54.9427 C.3       11 UNK         0.0169 
     16 S16        26.0174  -44.1617  -54.7004 S.3       11 UNK        -0.2669 
     17 C17        26.3249  -42.8594  -55.9470 C.3       11 UNK        -0.0850 
     18 CA         25.6503  -43.1589  -57.3229 C.3       10 UNK         0.0855 
     19 C          25.4883  -41.9081  -58.2450 C.2       10 UNK         0.5543 
     20 N          25.1762  -40.7423  -57.6936 N.am      10 UNK        -0.7343 
     21 O          25.5806  -41.9863  -59.4691 O.2       10 UNK        -0.5027 
     22 N          26.2613  -44.3150  -58.0030 N.am      10 UNK        -0.4495 
     23 C          27.4992  -44.3736  -58.5228 C.2       10 UNK         0.4903 
     24 O          28.2957  -43.4348  -58.4894 O.2       10 UNK        -0.4860 
     25 CA         27.9614  -45.7030  -59.1566 C.3       9 UNK         0.0227 
     26 CB         29.2380  -46.2320  -58.4751 C.3       9 UNK        -0.1964 
     27 N          26.9345  -46.7476  -59.1190 N.am      9 UNK        -0.4231 
     28 C          25.9885  -46.9190  -60.0552 C.2       9 UNK         0.5014 
     29 O          25.9324  -46.2642  -61.0968 O.2       9 UNK        -0.5270 
     30 CA         24.9031  -47.9822  -59.7875 C.3       8 UNK         0.0284 
     31 CB         25.2525  -49.2968  -60.5040 C.3       8 UNK        -0.1977 
     32 N          24.6729  -48.2576  -58.3663 N.am      8 UNK        -0.4342 
     33 C          24.2748  -47.3584  -57.4558 C.2       8 UNK         0.5039 
     34 O          23.9718  -46.1985  -57.7353 O.2       8 UNK        -0.5547 
     35 CA         24.2598  -47.8031  -55.9813 C.3       7 UNK         0.0281 
     36 CB         22.8256  -48.1350  -55.5392 C.3       7 UNK        -0.1963 
     37 N          25.1412  -48.9338  -55.6528 N.am      7 UNK        -0.4444 
     38 C          26.4646  -48.9832  -55.8584 C.2       7 UNK         0.5104 
     39 O          27.0999  -48.1235  -56.4729 O.2       7 UNK        -0.5100 
     40 CA         27.1954  -50.2267  -55.3336 C.3       6 UNK         0.0396 
     41 CB         27.5237  -51.1829  -56.4909 C.3       6 UNK        -0.1801 
     42 N          28.4365  -49.8425  -54.6647 N.am      6 UNK        -0.4747 
     43 C          28.5271  -49.2940  -53.4470 C.2       6 UNK         0.5012 
     44 O          27.5520  -49.1506  -52.7070 O.2       6 UNK        -0.5003 
     45 CA         29.9361  -48.8413  -52.9824 C.3       5 UNK         0.0782 
     46 C46        29.9311  -48.2408  -51.5485 C.3       11 UNK        -0.0868 
     47 S47        31.3962  -47.1976  -51.2355 S.3       11 UNK        -0.2515 
     48 C48        30.6603  -45.5314  -51.1023 C.3       11 UNK         0.0199 
     49 N          30.9369  -49.9144  -53.0783 N.am      5 UNK        -0.4607 
     50 C          31.4559  -50.4400  -54.1939 C.2       4 UNK         0.5031 
     51 O          31.1512  -50.0774  -55.3317 O.2       4 UNK        -0.5119 
     52 CA         32.5245  -51.5186  -53.9866 C.3       4 UNK         0.0263 
     53 CB         32.7339  -52.4038  -55.2303 C.3       4 UNK        -0.1967 
     54 N          33.7641  -50.8296  -53.6581 N.am      4 UNK        -0.4237 
     55 C          34.7293  -51.2710  -52.8456 C.2       3 UNK         0.4908 
     56 O          34.6926  -52.3544  -52.2611 O.2       3 UNK        -0.5102 
     57 CA         35.9326  -50.3400  -52.6367 C.3       3 UNK         0.0241 
     58 CB         36.8724  -50.3811  -53.8542 C.3       3 UNK        -0.1971 
     59 N          35.4940  -48.9608  -52.4016 N.am      3 UNK        -0.4139 
     60 C          35.7625  -48.2444  -51.3006 C.2       2 UNK         0.5016 
     61 O          36.4584  -48.6637  -50.3738 O.2       2 UNK        -0.5319 
     62 CA         35.1339  -46.8390  -51.1753 C.3       2 UNK         0.0286 
     63 CB         36.1237  -45.7981  -50.6088 C.3       2 UNK        -0.1963 
     64 N          34.4754  -46.3477  -52.3944 N.am      2 UNK        -0.4790 
     65 C          35.0493  -45.9740  -53.5475 C.2       1 UNK         0.5024 
     66 O          36.2655  -45.9419  -53.7444 O.2       1 UNK        -0.4888 
     67 H67        35.3830  -49.0814  -57.1966 H         1 UNK         0.0892 
     68 H68        33.6427  -49.0797  -57.4968 H         1 UNK         0.0892 
     69 H69        34.6364  -47.7326  -58.0591 H         1 UNK         0.0892 
     70 H70        34.5049  -45.9123  -56.7306 H         1 UNK         0.3107 
     71 H71        33.0657  -45.8193  -54.3598 H         1 UNK         0.0773 
     72 H72        34.0575  -43.4953  -54.0994 H         1 UNK         0.0680 
     73 H73        35.1547  -43.8401  -55.4064 H         1 UNK         0.0680 
     74 H74        31.1179  -42.0409  -55.8129 H         1 UNK         0.0650 
     75 H75        32.2339  -42.0412  -54.4775 H         1 UNK         0.0650 
     76 H76        32.0735  -43.8315  -52.7111 H         1 UNK         0.1397 
     77 H77        28.3420  -45.9386  -52.4943 H         1 UNK         0.1363 
     78 H78        29.3489  -43.7269  -56.0164 H         1 UNK         0.1355 
     79 H79        27.5357  -45.5323  -55.9991 H         1 UNK         0.0707 
     80 H80        27.0969  -46.2829  -54.5023 H         1 UNK         0.0707 
     81 H81        27.3907  -42.6732  -56.0621 H         1 UNK         0.1034 
     82 H82        25.9243  -41.9462  -55.5073 H         1 UNK         0.1034 
     83 H83        24.6241  -43.4686  -57.1222 H         1 UNK         0.0482 
     84 H84        25.0461  -40.6461  -56.6993 H         1 UNK         0.3460 
     85 H85        25.0498  -39.9409  -58.2921 H         1 UNK         0.3460 
     86 H86        25.6485  -45.1181  -58.0932 H         1 UNK         0.2989 
     87 H87        28.2130  -45.4844  -60.1964 H         1 UNK         0.0559 
     88 H88        29.0704  -46.4913  -57.4301 H         1 UNK         0.0848 
     89 H89        30.0364  -45.4889  -58.4997 H         1 UNK         0.0848 
     90 H90        29.6137  -47.1222  -58.9794 H         1 UNK         0.0848 
     91 H91        26.9062  -47.3173  -58.2767 H         1 UNK         0.3144 
     92 H92        23.9676  -47.6020  -60.2030 H         1 UNK         0.0727 
     93 H93        24.4523  -50.0303  -60.4033 H         1 UNK         0.0790 
     94 H94        26.1684  -49.7400  -60.1107 H         1 UNK         0.0790 
     95 H95        25.4036  -49.1308  -61.5716 H         1 UNK         0.0790 
     96 H96        24.8983  -49.1861  -58.0410 H         1 UNK         0.3215 
     97 H97        24.6061  -46.9490  -55.3955 H         1 UNK         0.0863 
     98 H98        22.4336  -49.0082  -56.0621 H         1 UNK         0.0808 
     99 H99        22.1511  -47.3023  -55.7448 H         1 UNK         0.0808 
    100 H100       22.7742  -48.3311  -54.4681 H         1 UNK         0.0808 
    101 H101       24.7102  -49.7014  -55.1570 H         1 UNK         0.3118 
    102 H102       26.5581  -50.7505  -54.6182 H         1 UNK         0.0546 
    103 H103       28.0343  -52.0772  -56.1333 H         1 UNK         0.0828 
    104 H104       28.1638  -50.7090  -57.2368 H         1 UNK         0.0828 
    105 H105       26.6160  -51.5100  -56.9995 H         1 UNK         0.0828 
    106 H106       29.2946  -49.9140  -55.2071 H         1 UNK         0.3005 
    107 H107       30.2277  -48.0500  -53.6779 H         1 UNK         0.1257 
    108 H108       29.9074  -49.0375  -50.8029 H         1 UNK         0.0775 
    109 H109       29.0389  -47.6491  -51.3496 H         1 UNK         0.0775 
    110 H110       29.7950  -45.5570  -50.4381 H         1 UNK         0.0840 
    111 H111       31.3836  -44.8690  -50.6242 H         1 UNK         0.0840 
    112 H112       31.2676  -50.2699  -52.1933 H         1 UNK         0.2987 
    113 H113       32.2126  -52.1519  -53.1530 H         1 UNK         0.0785 
    114 H114       33.4653  -53.1887  -55.0380 H         1 UNK         0.0798 
    115 H115       31.8029  -52.8903  -55.5237 H         1 UNK         0.0798 
    116 H116       33.0846  -51.8228  -56.0844 H         1 UNK         0.0798 
    117 H117       33.8719  -49.9192  -54.1129 H         1 UNK         0.3079 
    118 H118       36.4846  -50.7185  -51.7739 H         1 UNK         0.0794 
    119 H119       37.7602  -49.7713  -53.6860 H         1 UNK         0.0786 
    120 H120       36.3844  -50.0160  -54.7585 H         1 UNK         0.0786 
    121 H121       37.2102  -51.3992  -54.0526 H         1 UNK         0.0786 
    122 H122       34.9177  -48.5427  -53.1254 H         1 UNK         0.3032 
    123 H123       34.3375  -46.9517  -50.4380 H         1 UNK         0.1094 
    124 H124       37.0104  -45.6947  -51.2345 H         1 UNK         0.0794 
    125 H125       35.6591  -44.8164  -50.5168 H         1 UNK         0.0794 
    126 H126       36.4657  -46.0858  -49.6139 H         1 UNK         0.0794 
    127 H127       33.4637  -46.3749  -52.3579 H         1 UNK         0.3016 
@<TRIPOS>BOND
     1    1    2 1    
     2    1   67 1    
     3    1   68 1    
     4    1   69 1    
     5    2    3 2    
     6    2    4 am   BACKBONE|DICT|INTERRES
     7    4    5 1    
     8    4   70 1    
     9    5    6 1    
    10    5   65 1    
    11    5   71 1    
    12    6    7 1    
    13    6   72 1    
    14    6   73 1    
    15    7    8 1    
    16    8    9 1    
    17    8   74 1    
    18    8   75 1    
    19    9   10 ar   
    20    9   14 ar   
    21   10   11 ar   
    22   10   76 1    
    23   11   12 ar   
    24   11   48 1    
    25   12   13 ar   
    26   12   77 1    
    27   13   14 ar   
    28   13   15 1    
    29   14   78 1    
    30   15   16 1    
    31   15   79 1    
    32   15   80 1    
    33   16   17 1    
    34   17   18 1    
    35   17   81 1    
    36   17   82 1    
    37   18   19 1    
    38   18   22 1    
    39   18   83 1    
    40   19   20 am   BACKBONE|DICT|INTERRES
    41   19   21 2    
    42   20   84 1    
    43   20   85 1    
    44   22   23 am   BACKBONE|DICT|INTERRES
    45   22   86 1    
    46   23   24 2    
    47   23   25 1    
    48   25   26 1    
    49   25   27 1    
    50   25   87 1    
    51   26   88 1    
    52   26   89 1    
    53   26   90 1    
    54   27   28 am   BACKBONE|DICT|INTERRES
    55   27   91 1    
    56   28   29 2    
    57   28   30 1    
    58   30   31 1    
    59   30   32 1    
    60   30   92 1    
    61   31   93 1    
    62   31   94 1    
    63   31   95 1    
    64   32   33 am   BACKBONE|DICT|INTERRES
    65   32   96 1    
    66   33   34 2    
    67   33   35 1    
    68   35   36 1    
    69   35   37 1    
    70   35   97 1    
    71   36   98 1    
    72   36   99 1    
    73   36  100 1    
    74   37   38 am   BACKBONE|DICT|INTERRES
    75   37  101 1    
    76   38   39 2    
    77   38   40 1    
    78   40   41 1    
    79   40   42 1    
    80   40  102 1    
    81   41  103 1    
    82   41  104 1    
    83   41  105 1    
    84   42   43 am   BACKBONE|DICT|INTERRES
    85   42  106 1    
    86   43   44 2    
    87   43   45 1    
    88   45   46 1    
    89   45   49 1    
    90   45  107 1    
    91   46   47 1    
    92   46  108 1    
    93   46  109 1    
    94   47   48 1    
    95   48  110 1    
    96   48  111 1    
    97   49   50 am   BACKBONE|DICT|INTERRES
    98   49  112 1    
    99   50   51 2    
   100   50   52 1    
   101   52   53 1    
   102   52   54 1    
   103   52  113 1    
   104   53  114 1    
   105   53  115 1    
   106   53  116 1    
   107   54   55 am   BACKBONE|DICT|INTERRES
   108   54  117 1    
   109   55   56 2    
   110   55   57 1    
   111   57   58 1    
   112   57   59 1    
   113   57  118 1    
   114   58  119 1    
   115   58  120 1    
   116   58  121 1    
   117   59   60 am   BACKBONE|DICT|INTERRES
   118   59  122 1    
   119   60   61 2    
   120   60   62 1    
   121   62   63 1    
   122   62   64 1    
   123   62  123 1    
   124   63  124 1    
   125   63  125 1    
   126   63  126 1    
   127   64   65 am   BACKBONE|DICT|INTERRES
   128   64  127 1    
   129   65   66 2    
@<TRIPOS>SUBSTRUCTURE
     1 UNK         1 GROUP             0       ****    0 ROOT    
