@<TRIPOS>MOLECULE
3R134
127   129    1
SMALL
USER_CHARGES


@<TRIPOS>ATOM
      1 CA         32.3473  -47.1073  -57.3227 C.3       0 UNK        -0.1968 
      2 C          32.9206  -46.6451  -55.9927 C.2       0 UNK         0.4852 
      3 O          32.9490  -47.4292  -55.0428 O.2       0 UNK        -0.5359 
      4 N          33.3790  -45.3871  -55.9166 N.am      1 UNK        -0.4300 
      5 CA         33.8838  -44.7381  -54.7024 C.3       1 UNK         0.0863 
      6 C6         34.2488  -43.2519  -54.9606 C.3       11 UNK        -0.0953 
      7 S7         34.6538  -42.3180  -53.4412 S.3       11 UNK        -0.2369 
      8 C8         33.0431  -41.5982  -52.9836 C.3       11 UNK         0.0226 
      9 C9         31.9951  -42.6722  -52.7323 C.ar      11 UNK        -0.0699 
     10 C10        32.1456  -43.5689  -51.6694 C.ar      11 UNK        -0.0804 
     11 C11        31.2236  -44.6025  -51.4759 C.ar      11 UNK        -0.0871 
     12 C12        30.1212  -44.7062  -52.3299 C.ar      11 UNK        -0.1008 
     13 C13        29.9688  -43.8253  -53.4035 C.ar      11 UNK        -0.0735 
     14 C14        30.9038  -42.8048  -53.5955 C.ar      11 UNK        -0.0945 
     15 C15        28.8170  -43.9938  -54.3798 C.3       11 UNK         0.0169 
     16 S16        29.3352  -45.0033  -55.8057 S.3       11 UNK        -0.2669 
     17 C17        28.6126  -44.0787  -57.2067 C.3       11 UNK        -0.0850 
     18 CA         27.2206  -44.6273  -57.6320 C.3       10 UNK         0.0855 
     19 C          26.4769  -43.7129  -58.6516 C.2       10 UNK         0.5543 
     20 N          25.3639  -44.1592  -59.2197 N.am      10 UNK        -0.7343 
     21 O          26.8937  -42.5893  -58.9250 O.2       10 UNK        -0.5027 
     22 N          27.2707  -46.0428  -58.0318 N.am      10 UNK        -0.4495 
     23 C          27.8460  -46.5426  -59.1355 C.2       10 UNK         0.4903 
     24 O          28.4236  -45.8643  -59.9855 O.2       10 UNK        -0.4860 
     25 CA         27.7598  -48.0645  -59.3301 C.3       9 UNK         0.0227 
     26 CB         28.8762  -48.7699  -58.5464 C.3       9 UNK        -0.1964 
     27 N          26.4604  -48.5745  -58.8908 N.am      9 UNK        -0.4231 
     28 C          25.4161  -48.7944  -59.7020 C.2       9 UNK         0.5014 
     29 O          25.4656  -48.7000  -60.9293 O.2       9 UNK        -0.5270 
     30 CA         24.0787  -49.1776  -59.0384 C.3       8 UNK         0.0284 
     31 CB         23.9413  -50.7063  -58.9491 C.3       8 UNK        -0.1977 
     32 N          23.8963  -48.5970  -57.7052 N.am      8 UNK        -0.4342 
     33 C          23.8181  -47.2848  -57.4429 C.2       8 UNK         0.5039 
     34 O          23.8250  -46.4113  -58.3102 O.2       8 UNK        -0.5547 
     35 CA         23.7706  -46.8675  -55.9617 C.3       7 UNK         0.0281 
     36 CB         22.3166  -46.6479  -55.5148 C.3       7 UNK        -0.1963 
     37 N          24.4300  -47.7999  -55.0360 N.am      7 UNK        -0.4444 
     38 C          25.7177  -48.1647  -55.0920 C.2       7 UNK         0.5104 
     39 O          26.4867  -47.8339  -55.9976 O.2       7 UNK        -0.5100 
     40 CA         26.2186  -49.0877  -53.9791 C.3       6 UNK         0.0396 
     41 CB         26.0719  -50.5634  -54.3864 C.3       6 UNK        -0.1801 
     42 N          27.6236  -48.7861  -53.7301 N.am      6 UNK        -0.4747 
     43 C          28.2450  -48.8546  -52.5496 C.2       6 UNK         0.5012 
     44 O          27.6983  -49.2554  -51.5198 O.2       6 UNK        -0.5003 
     45 CA         29.7287  -48.4195  -52.5192 C.3       5 UNK         0.0782 
     46 C46        30.1856  -48.0592  -51.0806 C.3       11 UNK        -0.0868 
     47 S47        31.8335  -47.2731  -51.0132 S.3       11 UNK        -0.2515 
     48 C48        31.4361  -45.6146  -50.3587 C.3       11 UNK         0.0199 
     49 N          30.5899  -49.4428  -53.1191 N.am      5 UNK        -0.4607 
     50 C          30.6580  -49.7219  -54.4259 C.2       4 UNK         0.5031 
     51 O          30.0054  -49.1326  -55.2868 O.2       4 UNK        -0.5119 
     52 CA         31.6765  -50.7883  -54.8355 C.3       4 UNK         0.0263 
     53 CB         31.4371  -51.3275  -56.2608 C.3       4 UNK        -0.1967 
     54 N          32.9931  -50.1715  -54.7466 N.am      4 UNK        -0.4237 
     55 C          34.1515  -50.8152  -54.5700 C.2       3 UNK         0.4908 
     56 O          34.2431  -52.0368  -54.4420 O.2       3 UNK        -0.5102 
     57 CA         35.4241  -49.9589  -54.5218 C.3       3 UNK         0.0241 
     58 CB         35.8927  -49.6062  -55.9439 C.3       3 UNK        -0.1971 
     59 N          35.2160  -48.7249  -53.7600 N.am      3 UNK        -0.4139 
     60 C          35.9717  -48.3174  -52.7311 C.2       2 UNK         0.5016 
     61 O          36.9309  -48.9586  -52.2971 O.2       2 UNK        -0.5319 
     62 CA         35.5968  -46.9799  -52.0553 C.3       2 UNK         0.0286 
     63 CB         36.8315  -46.2077  -51.5432 C.3       2 UNK        -0.1963 
     64 N          34.7407  -46.1085  -52.8703 N.am      2 UNK        -0.4790 
     65 C          35.0330  -45.5346  -54.0484 C.2       1 UNK         0.5024 
     66 O          36.1150  -45.6372  -54.6300 O.2       1 UNK        -0.4888 
     67 H67        32.8839  -47.9851  -57.6813 H         1 UNK         0.0892 
     68 H68        31.2998  -47.3777  -57.1907 H         1 UNK         0.0892 
     69 H69        32.4043  -46.3322  -58.0866 H         1 UNK         0.0892 
     70 H70        33.3556  -44.8063  -56.7419 H         1 UNK         0.3107 
     71 H71        33.0395  -44.7595  -54.0146 H         1 UNK         0.0773 
     72 H72        35.1013  -43.1834  -55.6388 H         1 UNK         0.0680 
     73 H73        33.4244  -42.7458  -55.4654 H         1 UNK         0.0680 
     74 H74        32.7222  -40.9120  -53.7689 H         1 UNK         0.0650 
     75 H75        33.1663  -40.9987  -52.0807 H         1 UNK         0.0650 
     76 H76        33.0035  -43.4784  -51.0168 H         1 UNK         0.1397 
     77 H77        29.3944  -45.4896  -52.1775 H         1 UNK         0.1363 
     78 H78        30.7941  -42.1318  -54.4350 H         1 UNK         0.1355 
     79 H79        27.9677  -44.4764  -53.8937 H         1 UNK         0.0707 
     80 H80        28.4665  -43.0116  -54.6983 H         1 UNK         0.0707 
     81 H81        29.3085  -44.1298  -58.0455 H         1 UNK         0.1034 
     82 H82        28.5529  -43.0212  -56.9456 H         1 UNK         0.1034 
     83 H83        26.5914  -44.6024  -56.7415 H         1 UNK         0.0482 
     84 H84        24.9611  -45.0553  -58.9547 H         1 UNK         0.3460 
     85 H85        24.8794  -43.5717  -59.8787 H         1 UNK         0.3460 
     86 H86        26.8845  -46.6929  -57.3525 H         1 UNK         0.2989 
     87 H87        27.9080  -48.2803  -60.3903 H         1 UNK         0.0559 
     88 H88        28.8128  -48.5517  -57.4805 H         1 UNK         0.0848 
     89 H89        29.8586  -48.4439  -58.8892 H         1 UNK         0.0848 
     90 H90        28.8314  -49.8518  -58.6700 H         1 UNK         0.0848 
     91 H91        26.3188  -48.6309  -57.8886 H         1 UNK         0.3144 
     92 H92        23.2774  -48.7981  -59.6761 H         1 UNK         0.0727 
     93 H93        22.9635  -50.9961  -58.5638 H         1 UNK         0.0790 
     94 H94        24.7025  -51.1443  -58.3020 H         1 UNK         0.0790 
     95 H95        24.0478  -51.1650  -59.9333 H         1 UNK         0.0790 
     96 H96        23.8694  -49.2383  -56.9261 H         1 UNK         0.3215 
     97 H97        24.2969  -45.9135  -55.8858 H         1 UNK         0.0863 
     98 H98        21.7435  -47.5758  -55.5319 H         1 UNK         0.0808 
     99 H99        21.8091  -45.9399  -56.1719 H         1 UNK         0.0808 
    100 H100       22.2674  -46.2396  -54.5052 H         1 UNK         0.0808 
    101 H101       23.8693  -48.1371  -54.2659 H         1 UNK         0.3118 
    102 H102       25.6332  -48.8959  -53.0773 H         1 UNK         0.0546 
    103 H103       26.4196  -51.2280  -53.5955 H         1 UNK         0.0828 
    104 H104       26.6438  -50.7902  -55.2875 H         1 UNK         0.0828 
    105 H105       25.0298  -50.8161  -54.5858 H         1 UNK         0.0828 
    106 H106       28.1534  -48.4958  -54.5488 H         1 UNK         0.3005 
    107 H107       29.8117  -47.5220  -53.1363 H         1 UNK         0.1257 
    108 H108       30.2162  -48.9544  -50.4566 H         1 UNK         0.0775 
    109 H109       29.4570  -47.3991  -50.6073 H         1 UNK         0.0775 
    110 H110       30.5592  -45.6465  -49.7113 H         1 UNK         0.0840 
    111 H111       32.2618  -45.3003  -49.7183 H         1 UNK         0.0840 
    112 H112       31.1804  -49.9531  -52.4792 H         1 UNK         0.2987 
    113 H113       31.6053  -51.6162  -54.1268 H         1 UNK         0.0785 
    114 H114       32.1406  -52.1222  -56.5091 H         1 UNK         0.0798 
    115 H115       30.4323  -51.7406  -56.3569 H         1 UNK         0.0798 
    116 H116       31.5409  -50.5423  -57.0110 H         1 UNK         0.0798 
    117 H117       32.9875  -49.1536  -54.8375 H         1 UNK         0.3079 
    118 H118       36.1986  -50.5689  -54.0521 H         1 UNK         0.0794 
    119 H119       36.8351  -49.0584  -55.9227 H         1 UNK         0.0786 
    120 H120       35.1621  -48.9911  -56.4704 H         1 UNK         0.0786 
    121 H121       36.0532  -50.5069  -56.5381 H         1 UNK         0.0786 
    122 H122       34.4417  -48.1341  -54.0520 H         1 UNK         0.3032 
    123 H123       35.0004  -47.2540  -51.1835 H         1 UNK         0.1094 
    124 H124       37.5234  -45.9679  -52.3510 H         1 UNK         0.0794 
    125 H125       36.5432  -45.2743  -51.0597 H         1 UNK         0.0794 
    126 H126       37.3837  -46.7937  -50.8076 H         1 UNK         0.0794 
    127 H127       33.7974  -45.9964  -52.5206 H         1 UNK         0.3016 
@<TRIPOS>BOND
     1    1    2 1    
     2    1   67 1    
     3    1   68 1    
     4    1   69 1    
     5    2    3 2    
     6    2    4 am   BACKBONE|DICT|INTERRES
     7    4    5 1    
     8    4   70 1    
     9    5    6 1    
    10    5   65 1    
    11    5   71 1    
    12    6    7 1    
    13    6   72 1    
    14    6   73 1    
    15    7    8 1    
    16    8    9 1    
    17    8   74 1    
    18    8   75 1    
    19    9   10 ar   
    20    9   14 ar   
    21   10   11 ar   
    22   10   76 1    
    23   11   12 ar   
    24   11   48 1    
    25   12   13 ar   
    26   12   77 1    
    27   13   14 ar   
    28   13   15 1    
    29   14   78 1    
    30   15   16 1    
    31   15   79 1    
    32   15   80 1    
    33   16   17 1    
    34   17   18 1    
    35   17   81 1    
    36   17   82 1    
    37   18   19 1    
    38   18   22 1    
    39   18   83 1    
    40   19   20 am   BACKBONE|DICT|INTERRES
    41   19   21 2    
    42   20   84 1    
    43   20   85 1    
    44   22   23 am   BACKBONE|DICT|INTERRES
    45   22   86 1    
    46   23   24 2    
    47   23   25 1    
    48   25   26 1    
    49   25   27 1    
    50   25   87 1    
    51   26   88 1    
    52   26   89 1    
    53   26   90 1    
    54   27   28 am   BACKBONE|DICT|INTERRES
    55   27   91 1    
    56   28   29 2    
    57   28   30 1    
    58   30   31 1    
    59   30   32 1    
    60   30   92 1    
    61   31   93 1    
    62   31   94 1    
    63   31   95 1    
    64   32   33 am   BACKBONE|DICT|INTERRES
    65   32   96 1    
    66   33   34 2    
    67   33   35 1    
    68   35   36 1    
    69   35   37 1    
    70   35   97 1    
    71   36   98 1    
    72   36   99 1    
    73   36  100 1    
    74   37   38 am   BACKBONE|DICT|INTERRES
    75   37  101 1    
    76   38   39 2    
    77   38   40 1    
    78   40   41 1    
    79   40   42 1    
    80   40  102 1    
    81   41  103 1    
    82   41  104 1    
    83   41  105 1    
    84   42   43 am   BACKBONE|DICT|INTERRES
    85   42  106 1    
    86   43   44 2    
    87   43   45 1    
    88   45   46 1    
    89   45   49 1    
    90   45  107 1    
    91   46   47 1    
    92   46  108 1    
    93   46  109 1    
    94   47   48 1    
    95   48  110 1    
    96   48  111 1    
    97   49   50 am   BACKBONE|DICT|INTERRES
    98   49  112 1    
    99   50   51 2    
   100   50   52 1    
   101   52   53 1    
   102   52   54 1    
   103   52  113 1    
   104   53  114 1    
   105   53  115 1    
   106   53  116 1    
   107   54   55 am   BACKBONE|DICT|INTERRES
   108   54  117 1    
   109   55   56 2    
   110   55   57 1    
   111   57   58 1    
   112   57   59 1    
   113   57  118 1    
   114   58  119 1    
   115   58  120 1    
   116   58  121 1    
   117   59   60 am   BACKBONE|DICT|INTERRES
   118   59  122 1    
   119   60   61 2    
   120   60   62 1    
   121   62   63 1    
   122   62   64 1    
   123   62  123 1    
   124   63  124 1    
   125   63  125 1    
   126   63  126 1    
   127   64   65 am   BACKBONE|DICT|INTERRES
   128   64  127 1    
   129   65   66 2    
@<TRIPOS>SUBSTRUCTURE
     1 UNK         1 GROUP             0       ****    0 ROOT    
