@<TRIPOS>MOLECULE
3R134
127   129    1
SMALL
USER_CHARGES


@<TRIPOS>ATOM
      1 CA         30.5220  -44.9685  -50.8681 C.3       0 UNK        -0.1968 
      2 C          31.7930  -45.1422  -51.6845 C.2       0 UNK         0.4852 
      3 O          31.7421  -45.6648  -52.7959 O.2       0 UNK        -0.5359 
      4 N          32.9328  -44.7197  -51.1203 N.am      1 UNK        -0.4300 
      5 CA         34.2931  -44.7359  -51.6866 C.3       1 UNK         0.0863 
      6 C6         34.4530  -43.9278  -53.0028 C.3       11 UNK        -0.0953 
      7 S7         33.9551  -42.1823  -52.7845 S.3       11 UNK        -0.2369 
      8 C8         33.3953  -41.7049  -54.4531 C.3       11 UNK         0.0226 
      9 C9         32.2294  -42.5469  -54.9552 C.ar      11 UNK        -0.0699 
     10 C10        32.3745  -43.3193  -56.1112 C.ar      11 UNK        -0.0804 
     11 C11        31.3261  -44.1243  -56.5661 C.ar      11 UNK        -0.0871 
     12 C12        30.1205  -44.1442  -55.8592 C.ar      11 UNK        -0.1008 
     13 C13        29.9529  -43.3583  -54.7151 C.ar      11 UNK        -0.0735 
     14 C14        31.0100  -42.5583  -54.2699 C.ar      11 UNK        -0.0945 
     15 C15        28.6449  -43.4035  -53.9376 C.3       11 UNK         0.0169 
     16 S16        27.6115  -41.9284  -54.2123 S.3       11 UNK        -0.2669 
     17 C17        27.0398  -42.1822  -55.9268 C.3       11 UNK        -0.0850 
     18 CA         25.7547  -43.0575  -56.0221 C.3       10 UNK         0.0855 
     19 C          24.4282  -42.2513  -55.8993 C.2       10 UNK         0.5543 
     20 N          23.3660  -42.6227  -56.6053 N.am      10 UNK        -0.7343 
     21 O          24.3477  -41.2806  -55.1512 O.2       10 UNK        -0.5027 
     22 N          25.7960  -43.9239  -57.2109 N.am      10 UNK        -0.4495 
     23 C          26.3675  -45.1313  -57.2605 C.2       10 UNK         0.4903 
     24 O          26.8647  -45.6940  -56.2866 O.2       10 UNK        -0.4860 
     25 CA         26.4126  -45.7931  -58.6438 C.3       9 UNK         0.0227 
     26 CB         27.3133  -44.9933  -59.6080 C.3       9 UNK        -0.1964 
     27 N          26.9107  -47.1662  -58.5513 N.am      9 UNK        -0.4231 
     28 C          26.6345  -48.1344  -59.4339 C.2       9 UNK         0.5014 
     29 O          25.8511  -47.9955  -60.3754 O.2       9 UNK        -0.5270 
     30 CA         27.3737  -49.4742  -59.2816 C.3       8 UNK         0.0284 
     31 CB         28.7629  -49.3938  -59.9359 C.3       8 UNK        -0.1977 
     32 N          27.5099  -49.9259  -57.8964 N.am      8 UNK        -0.4342 
     33 C          26.5101  -50.4292  -57.1597 C.2       8 UNK         0.5039 
     34 O          25.3514  -50.5421  -57.5623 O.2       8 UNK        -0.5547 
     35 CA         26.8612  -50.9099  -55.7408 C.3       7 UNK         0.0281 
     36 CB         27.4453  -52.3314  -55.7786 C.3       7 UNK        -0.1963 
     37 N          27.7972  -50.0120  -55.0648 N.am      7 UNK        -0.4444 
     38 C          27.4693  -48.8016  -54.5920 C.2       7 UNK         0.5104 
     39 O          26.3150  -48.3745  -54.5562 O.2       7 UNK        -0.5100 
     40 CA         28.6195  -47.9198  -54.0720 C.3       6 UNK         0.0396 
     41 CB         28.8532  -48.1758  -52.5753 C.3       6 UNK        -0.1801 
     42 N          29.8808  -48.1142  -54.7909 N.am      6 UNK        -0.4747 
     43 C          30.0765  -47.9028  -56.1007 C.2       6 UNK         0.5012 
     44 O          29.2061  -47.5211  -56.8804 O.2       6 UNK        -0.5003 
     45 CA         31.4708  -48.2522  -56.6465 C.3       5 UNK         0.0782 
     46 C46        32.5118  -47.1490  -56.3140 C.3       11 UNK        -0.0868 
     47 S47        32.9074  -46.1061  -57.7561 S.3       11 UNK        -0.2515 
     48 C48        31.4873  -44.9631  -57.8272 C.3       11 UNK         0.0199 
     49 N          31.8842  -49.5785  -56.1830 N.am      5 UNK        -0.4607 
     50 C          31.3229  -50.7273  -56.5848 C.2       4 UNK         0.5031 
     51 O          30.4165  -50.7905  -57.4144 O.2       4 UNK        -0.5119 
     52 CA         31.8350  -52.0201  -55.9283 C.3       4 UNK         0.0263 
     53 CB         33.0678  -52.5527  -56.6754 C.3       4 UNK        -0.1967 
     54 N          32.1571  -51.8451  -54.5102 N.am      4 UNK        -0.4237 
     55 C          31.2471  -51.5960  -53.5579 C.2       3 UNK         0.4908 
     56 O          30.0353  -51.5391  -53.7662 O.2       3 UNK        -0.5102 
     57 CA         31.7845  -51.3175  -52.1431 C.3       3 UNK         0.0241 
     58 CB         32.0237  -52.6342  -51.3869 C.3       3 UNK        -0.1971 
     59 N          33.0050  -50.4988  -52.1112 N.am      3 UNK        -0.4139 
     60 C          33.1091  -49.2693  -52.6341 C.2       2 UNK         0.5016 
     61 O          32.2151  -48.7268  -53.2857 O.2       2 UNK        -0.5319 
     62 CA         34.4336  -48.5288  -52.4293 C.3       2 UNK         0.0286 
     63 CB         35.4240  -48.8353  -53.5671 C.3       2 UNK        -0.1963 
     64 N          34.1401  -47.0994  -52.3770 N.am      2 UNK        -0.4790 
     65 C          34.8907  -46.1561  -51.8015 C.2       1 UNK         0.5024 
     66 O          36.0067  -46.3778  -51.3288 O.2       1 UNK        -0.4888 
     67 H67        30.5482  -45.6024  -49.9821 H         1 UNK         0.0892 
     68 H68        30.4049  -43.9316  -50.5537 H         1 UNK         0.0892 
     69 H69        29.6466  -45.2444  -51.4548 H         1 UNK         0.0892 
     70 H70        32.8816  -44.3288  -50.1901 H         1 UNK         0.3107 
     71 H71        34.9038  -44.2294  -50.9369 H         1 UNK         0.0773 
     72 H72        33.8722  -44.3868  -53.8037 H         1 UNK         0.0680 
     73 H73        35.4924  -43.9379  -53.3357 H         1 UNK         0.0680 
     74 H74        34.2441  -41.7672  -55.1359 H         1 UNK         0.0650 
     75 H75        33.0920  -40.6574  -54.4348 H         1 UNK         0.0650 
     76 H76        33.3106  -43.3095  -56.6525 H         1 UNK         0.1397 
     77 H77        29.3102  -44.7756  -56.1967 H         1 UNK         0.1363 
     78 H78        30.8914  -41.9609  -53.3766 H         1 UNK         0.1355 
     79 H79        28.8662  -43.4730  -52.8727 H         1 UNK         0.0707 
     80 H80        28.0758  -44.3002  -54.1883 H         1 UNK         0.0707 
     81 H81        26.8839  -41.2079  -56.3934 H         1 UNK         0.1034 
     82 H82        27.8583  -42.6310  -56.4896 H         1 UNK         0.1034 
     83 H83        25.7290  -43.7170  -55.1526 H         1 UNK         0.0482 
     84 H84        22.5113  -42.0952  -56.5174 H         1 UNK         0.3460 
     85 H85        23.3878  -43.4490  -57.1810 H         1 UNK         0.3460 
     86 H86        25.4029  -43.5259  -58.0523 H         1 UNK         0.2989 
     87 H87        25.3909  -45.8070  -59.0289 H         1 UNK         0.0559 
     88 H88        26.9622  -43.9684  -59.7312 H         1 UNK         0.0848 
     89 H89        27.3323  -45.4425  -60.6010 H         1 UNK         0.0848 
     90 H90        28.3408  -44.9449  -59.2452 H         1 UNK         0.0848 
     91 H91        27.5665  -47.3415  -57.7889 H         1 UNK         0.3144 
     92 H92        26.7970  -50.2280  -59.8222 H         1 UNK         0.0727 
     93 H93        29.2612  -50.3634  -59.9284 H         1 UNK         0.0790 
     94 H94        29.4101  -48.6809  -59.4240 H         1 UNK         0.0790 
     95 H95        28.6874  -49.0771  -60.9770 H         1 UNK         0.0790 
     96 H96        28.4423  -49.8954  -57.4995 H         1 UNK         0.3215 
     97 H97        25.9361  -50.9406  -55.1609 H         1 UNK         0.0863 
     98 H98        27.6312  -52.7096  -54.7731 H         1 UNK         0.0808 
     99 H99        28.3865  -52.3688  -56.3281 H         1 UNK         0.0808 
    100 H100       26.7558  -53.0237  -56.2635 H         1 UNK         0.0808 
    101 H101       28.7535  -50.3315  -54.9554 H         1 UNK         0.3118 
    102 H102       28.3294  -46.8757  -54.2035 H         1 UNK         0.0546 
    103 H103       29.1035  -49.2193  -52.3815 H         1 UNK         0.0828 
    104 H104       27.9616  -47.9378  -51.9943 H         1 UNK         0.0828 
    105 H105       29.6693  -47.5647  -52.1912 H         1 UNK         0.0828 
    106 H106       30.6844  -48.3947  -54.2288 H         1 UNK         0.3005 
    107 H107       31.3707  -48.3273  -57.7320 H         1 UNK         0.1257 
    108 H108       33.4549  -47.6000  -56.0061 H         1 UNK         0.0775 
    109 H109       32.2158  -46.5238  -55.4680 H         1 UNK         0.0775 
    110 H110       31.6227  -44.2922  -58.6764 H         1 UNK         0.0840 
    111 H111       30.5817  -45.5333  -58.0365 H         1 UNK         0.0840 
    112 H112       32.5514  -49.5998  -55.4256 H         1 UNK         0.2987 
    113 H113       31.0405  -52.7659  -56.0048 H         1 UNK         0.0785 
    114 H114       32.8446  -52.7092  -57.7318 H         1 UNK         0.0798 
    115 H115       33.3943  -53.5107  -56.2701 H         1 UNK         0.0798 
    116 H116       33.9079  -51.8592  -56.6193 H         1 UNK         0.0798 
    117 H117       33.1317  -51.8784  -54.2494 H         1 UNK         0.3079 
    118 H118       31.0106  -50.7594  -51.6120 H         1 UNK         0.0794 
    119 H119       32.2908  -52.4515  -50.3459 H         1 UNK         0.0786 
    120 H120       32.8214  -53.2238  -51.8406 H         1 UNK         0.0786 
    121 H121       31.1238  -53.2512  -51.3838 H         1 UNK         0.0786 
    122 H122       33.7913  -50.8820  -51.6059 H         1 UNK         0.3032 
    123 H123       34.8635  -48.8377  -51.4737 H         1 UNK         0.1094 
    124 H124       35.0375  -48.5191  -54.5355 H         1 UNK         0.0794 
    125 H125       36.3775  -48.3310  -53.4098 H         1 UNK         0.0794 
    126 H126       35.6323  -49.9040  -53.6298 H         1 UNK         0.0794 
    127 H127       33.2103  -46.8377  -52.7115 H         1 UNK         0.3016 
@<TRIPOS>BOND
     1    1    2 1    
     2    1   67 1    
     3    1   68 1    
     4    1   69 1    
     5    2    3 2    
     6    2    4 am   BACKBONE|DICT|INTERRES
     7    4    5 1    
     8    4   70 1    
     9    5    6 1    
    10    5   65 1    
    11    5   71 1    
    12    6    7 1    
    13    6   72 1    
    14    6   73 1    
    15    7    8 1    
    16    8    9 1    
    17    8   74 1    
    18    8   75 1    
    19    9   10 ar   
    20    9   14 ar   
    21   10   11 ar   
    22   10   76 1    
    23   11   12 ar   
    24   11   48 1    
    25   12   13 ar   
    26   12   77 1    
    27   13   14 ar   
    28   13   15 1    
    29   14   78 1    
    30   15   16 1    
    31   15   79 1    
    32   15   80 1    
    33   16   17 1    
    34   17   18 1    
    35   17   81 1    
    36   17   82 1    
    37   18   19 1    
    38   18   22 1    
    39   18   83 1    
    40   19   20 am   BACKBONE|DICT|INTERRES
    41   19   21 2    
    42   20   84 1    
    43   20   85 1    
    44   22   23 am   BACKBONE|DICT|INTERRES
    45   22   86 1    
    46   23   24 2    
    47   23   25 1    
    48   25   26 1    
    49   25   27 1    
    50   25   87 1    
    51   26   88 1    
    52   26   89 1    
    53   26   90 1    
    54   27   28 am   BACKBONE|DICT|INTERRES
    55   27   91 1    
    56   28   29 2    
    57   28   30 1    
    58   30   31 1    
    59   30   32 1    
    60   30   92 1    
    61   31   93 1    
    62   31   94 1    
    63   31   95 1    
    64   32   33 am   BACKBONE|DICT|INTERRES
    65   32   96 1    
    66   33   34 2    
    67   33   35 1    
    68   35   36 1    
    69   35   37 1    
    70   35   97 1    
    71   36   98 1    
    72   36   99 1    
    73   36  100 1    
    74   37   38 am   BACKBONE|DICT|INTERRES
    75   37  101 1    
    76   38   39 2    
    77   38   40 1    
    78   40   41 1    
    79   40   42 1    
    80   40  102 1    
    81   41  103 1    
    82   41  104 1    
    83   41  105 1    
    84   42   43 am   BACKBONE|DICT|INTERRES
    85   42  106 1    
    86   43   44 2    
    87   43   45 1    
    88   45   46 1    
    89   45   49 1    
    90   45  107 1    
    91   46   47 1    
    92   46  108 1    
    93   46  109 1    
    94   47   48 1    
    95   48  110 1    
    96   48  111 1    
    97   49   50 am   BACKBONE|DICT|INTERRES
    98   49  112 1    
    99   50   51 2    
   100   50   52 1    
   101   52   53 1    
   102   52   54 1    
   103   52  113 1    
   104   53  114 1    
   105   53  115 1    
   106   53  116 1    
   107   54   55 am   BACKBONE|DICT|INTERRES
   108   54  117 1    
   109   55   56 2    
   110   55   57 1    
   111   57   58 1    
   112   57   59 1    
   113   57  118 1    
   114   58  119 1    
   115   58  120 1    
   116   58  121 1    
   117   59   60 am   BACKBONE|DICT|INTERRES
   118   59  122 1    
   119   60   61 2    
   120   60   62 1    
   121   62   63 1    
   122   62   64 1    
   123   62  123 1    
   124   63  124 1    
   125   63  125 1    
   126   63  126 1    
   127   64   65 am   BACKBONE|DICT|INTERRES
   128   64  127 1    
   129   65   66 2    
@<TRIPOS>SUBSTRUCTURE
     1 UNK         1 GROUP             0       ****    0 ROOT    
