@<TRIPOS>MOLECULE
3R134
127   129    1
SMALL
USER_CHARGES


@<TRIPOS>ATOM
      1 CA         30.9855  -46.4151  -49.3503 C.3       0 UNK        -0.1968 
      2 C          32.4382  -46.0961  -49.6726 C.2       0 UNK         0.4852 
      3 O          33.3388  -46.6375  -49.0305 O.2       0 UNK        -0.5359 
      4 N          32.6640  -45.2196  -50.6617 N.am      1 UNK        -0.4300 
      5 CA         33.9753  -44.7844  -51.1699 C.3       1 UNK         0.0863 
      6 C6         33.8729  -43.6836  -52.2701 C.3       11 UNK        -0.0953 
      7 S7         32.4277  -42.5703  -52.1435 S.3       11 UNK        -0.2369 
      8 C8         31.1714  -43.4985  -53.0908 C.3       11 UNK         0.0226 
      9 C9         31.2171  -43.2094  -54.5840 C.ar      11 UNK        -0.0699 
     10 C10        32.0884  -43.9120  -55.4235 C.ar      11 UNK        -0.0804 
     11 C11        32.0912  -43.6787  -56.8014 C.ar      11 UNK        -0.0871 
     12 C12        31.1883  -42.7624  -57.3446 C.ar      11 UNK        -0.1008 
     13 C13        30.2961  -42.0735  -56.5201 C.ar      11 UNK        -0.0735 
     14 C14        30.3358  -42.2767  -55.1378 C.ar      11 UNK        -0.0945 
     15 C15        29.2614  -41.1470  -57.1350 C.3       11 UNK         0.0169 
     16 S16        27.8012  -42.0871  -57.6864 S.3       11 UNK        -0.2669 
     17 C17        27.0014  -42.4973  -56.0946 C.3       11 UNK        -0.0850 
     18 CA         27.2451  -43.9594  -55.5995 C.3       10 UNK         0.0855 
     19 C          26.6587  -44.1663  -54.1680 C.2       10 UNK         0.5543 
     20 N          26.0701  -45.3052  -53.8345 N.am      10 UNK        -0.7343 
     21 O          26.7656  -43.2801  -53.3237 O.2       10 UNK        -0.5027 
     22 N          26.8889  -44.9742  -56.6126 N.am      10 UNK        -0.4495 
     23 C          25.6651  -45.1439  -57.1305 C.2       10 UNK         0.4903 
     24 O          24.6451  -44.6259  -56.6748 O.2       10 UNK        -0.4860 
     25 CA         25.5554  -45.9587  -58.4242 C.3       9 UNK         0.0227 
     26 CB         25.9976  -45.0974  -59.6256 C.3       9 UNK        -0.1964 
     27 N          26.2938  -47.2248  -58.3972 N.am      9 UNK        -0.4231 
     28 C          26.0239  -48.2430  -59.2289 C.2       9 UNK         0.5014 
     29 O          25.1214  -48.2208  -60.0684 O.2       9 UNK        -0.5270 
     30 CA         26.9010  -49.5015  -59.1341 C.3       8 UNK         0.0284 
     31 CB         28.2042  -49.3076  -59.9263 C.3       8 UNK        -0.1977 
     32 N          27.1996  -49.9060  -57.7601 N.am      8 UNK        -0.4342 
     33 C          26.2883  -50.3527  -56.8838 C.2       8 UNK         0.5039 
     34 O          25.0957  -50.5065  -57.1512 O.2       8 UNK        -0.5547 
     35 CA         26.7839  -50.6795  -55.4640 C.3       7 UNK         0.0281 
     36 CB         27.3430  -52.1098  -55.4015 C.3       7 UNK        -0.1963 
     37 N          27.7849  -49.7308  -54.9673 N.am      7 UNK        -0.4444 
     38 C          27.5497  -48.4265  -54.7620 C.2       7 UNK         0.5104 
     39 O          26.4546  -47.8930  -54.9389 O.2       7 UNK        -0.5100 
     40 CA         28.7495  -47.5559  -54.3489 C.3       6 UNK         0.0396 
     41 CB         29.1034  -47.7515  -52.8667 C.3       6 UNK        -0.1801 
     42 N          29.9238  -47.8059  -55.1807 N.am      6 UNK        -0.4747 
     43 C          29.9794  -47.5937  -56.5042 C.2       6 UNK         0.5012 
     44 O          29.0632  -47.0807  -57.1537 O.2       6 UNK        -0.5003 
     45 CA         31.2426  -48.1115  -57.2226 C.3       5 UNK         0.0782 
     46 C46        32.4079  -47.0964  -57.1799 C.3       11 UNK        -0.0868 
     47 S47        32.2872  -45.8524  -58.5042 S.3       11 UNK        -0.2515 
     48 C48        33.0636  -44.4120  -57.7117 C.3       11 UNK         0.0199 
     49 N          31.6618  -49.4130  -56.6952 N.am      5 UNK        -0.4607 
     50 C          31.0092  -50.5620  -56.9079 C.2       4 UNK         0.5031 
     51 O          29.9750  -50.6469  -57.5660 O.2       4 UNK        -0.5119 
     52 CA         31.5947  -51.8241  -56.2557 C.3       4 UNK         0.0263 
     53 CB         32.7176  -52.4110  -57.1254 C.3       4 UNK        -0.1967 
     54 N          32.0946  -51.5830  -54.9004 N.am      4 UNK        -0.4237 
     55 C          31.3142  -51.2618  -53.8597 C.2       3 UNK         0.4908 
     56 O          30.0915  -51.1397  -53.9290 O.2       3 UNK        -0.5102 
     57 CA         32.0222  -50.9919  -52.5232 C.3       3 UNK         0.0241 
     58 CB         32.3624  -52.3121  -51.8127 C.3       3 UNK        -0.1971 
     59 N          33.2286  -50.1622  -52.6346 N.am      3 UNK        -0.4139 
     60 C          33.2536  -48.9239  -53.1443 C.2       2 UNK         0.5016 
     61 O          32.2948  -48.3861  -53.7060 O.2       2 UNK        -0.5319 
     62 CA         34.5447  -48.1200  -52.9797 C.3       2 UNK         0.0286 
     63 CB         35.2902  -47.9679  -54.3163 C.3       2 UNK        -0.1963 
     64 N          34.1132  -46.8207  -52.4900 N.am      2 UNK        -0.4790 
     65 C          34.7947  -45.9781  -51.7069 C.2       1 UNK         0.5024 
     66 O          35.9773  -46.1202  -51.3941 O.2       1 UNK        -0.4888 
     67 H67        30.7743  -46.1890  -48.3055 H         1 UNK         0.0892 
     68 H68        30.7895  -47.4741  -49.5167 H         1 UNK         0.0892 
     69 H69        30.2933  -45.8421  -49.9671 H         1 UNK         0.0892 
     70 H70        31.8772  -44.7613  -51.0964 H         1 UNK         0.3107 
     71 H71        34.5163  -44.3669  -50.3181 H         1 UNK         0.0773 
     72 H72        33.8797  -44.1092  -53.2712 H         1 UNK         0.0680 
     73 H73        34.7686  -43.0615  -52.2314 H         1 UNK         0.0680 
     74 H74        31.2820  -44.5710  -52.9289 H         1 UNK         0.0650 
     75 H75        30.1868  -43.2403  -52.6970 H         1 UNK         0.0650 
     76 H76        32.7586  -44.6510  -55.0124 H         1 UNK         0.1397 
     77 H77        31.1626  -42.6036  -58.4143 H         1 UNK         0.1363 
     78 H78        29.6464  -41.7448  -54.4965 H         1 UNK         0.1355 
     79 H79        29.6938  -40.6309  -57.9935 H         1 UNK         0.0707 
     80 H80        28.9644  -40.3690  -56.4299 H         1 UNK         0.0707 
     81 H81        25.9315  -42.3135  -56.2039 H         1 UNK         0.1034 
     82 H82        27.3366  -41.7768  -55.3473 H         1 UNK         0.1034 
     83 H83        28.3186  -44.0857  -55.4679 H         1 UNK         0.0482 
     84 H84        26.0287  -46.0849  -54.4832 H         1 UNK         0.3460 
     85 H85        25.6995  -45.4096  -52.9044 H         1 UNK         0.3460 
     86 H86        27.6740  -45.4649  -57.0239 H         1 UNK         0.2989 
     87 H87        24.4948  -46.1901  -58.5470 H         1 UNK         0.0559 
     88 H88        25.7669  -45.5797  -60.5752 H         1 UNK         0.0848 
     89 H89        27.0698  -44.8978  -59.6029 H         1 UNK         0.0848 
     90 H90        25.4883  -44.1326  -59.6252 H         1 UNK         0.0848 
     91 H91        27.0545  -47.3148  -57.7312 H         1 UNK         0.3144 
     92 H92        26.3485  -50.3200  -59.6006 H         1 UNK         0.0727 
     93 H93        28.7875  -50.2277  -59.9629 H         1 UNK         0.0790 
     94 H94        28.8299  -48.5282  -59.4917 H         1 UNK         0.0790 
     95 H95        27.9946  -49.0189  -60.9572 H         1 UNK         0.0790 
     96 H96        28.1793  -49.9104  -57.4891 H         1 UNK         0.3215 
     97 H97        25.9212  -50.6240  -54.7965 H         1 UNK         0.0863 
     98 H98        27.6098  -52.3868  -54.3815 H         1 UNK         0.0808 
     99 H99        28.2323  -52.2231  -56.0221 H         1 UNK         0.0808 
    100 H100       26.6056  -52.8334  -55.7514 H         1 UNK         0.0808 
    101 H101       28.7049  -50.1071  -54.7494 H         1 UNK         0.3118 
    102 H102       28.4760  -46.5109  -54.4918 H         1 UNK         0.0546 
    103 H103       28.2451  -47.5339  -52.2298 H         1 UNK         0.0828 
    104 H104       29.9112  -47.0860  -52.5624 H         1 UNK         0.0828 
    105 H105       29.4180  -48.7738  -52.6560 H         1 UNK         0.0828 
    106 H106       30.7415  -48.1920  -54.7118 H         1 UNK         0.3005 
    107 H107       30.9675  -48.2735  -58.2675 H         1 UNK         0.1257 
    108 H108       33.3597  -47.6078  -57.3331 H         1 UNK         0.0775 
    109 H109       32.4829  -46.6245  -56.1998 H         1 UNK         0.0775 
    110 H110       33.9533  -44.7239  -57.1621 H         1 UNK         0.0840 
    111 H111       33.4142  -43.7319  -58.4896 H         1 UNK         0.0840 
    112 H112       32.4676  -49.4176  -56.0879 H         1 UNK         0.2987 
    113 H113       30.7932  -52.5632  -56.1912 H         1 UNK         0.0785 
    114 H114       33.5653  -51.7298  -57.2100 H         1 UNK         0.0798 
    115 H115       32.3607  -52.6141  -58.1362 H         1 UNK         0.0798 
    116 H116       33.0831  -53.3539  -56.7180 H         1 UNK         0.0798 
    117 H117       33.0907  -51.6576  -54.7530 H         1 UNK         0.3079 
    118 H118       31.3163  -50.4454  -51.8941 H         1 UNK         0.0794 
    119 H119       33.1071  -52.8894  -52.3620 H         1 UNK         0.0786 
    120 H120       31.4754  -52.9392  -51.7088 H         1 UNK         0.0786 
    121 H121       32.7486  -52.1345  -50.8088 H         1 UNK         0.0786 
    122 H122       34.0645  -50.5261  -52.1996 H         1 UNK         0.3032 
    123 H123       35.1915  -48.5980  -52.2404 H         1 UNK         0.1094 
    124 H124       34.6717  -47.4812  -55.0709 H         1 UNK         0.0794 
    125 H125       36.1967  -47.3743  -54.1967 H         1 UNK         0.0794 
    126 H126       35.5881  -48.9400  -54.7109 H         1 UNK         0.0794 
    127 H127       33.1335  -46.6376  -52.6679 H         1 UNK         0.3016 
@<TRIPOS>BOND
     1    1    2 1    
     2    1   67 1    
     3    1   68 1    
     4    1   69 1    
     5    2    3 2    
     6    2    4 am   BACKBONE|DICT|INTERRES
     7    4    5 1    
     8    4   70 1    
     9    5    6 1    
    10    5   65 1    
    11    5   71 1    
    12    6    7 1    
    13    6   72 1    
    14    6   73 1    
    15    7    8 1    
    16    8    9 1    
    17    8   74 1    
    18    8   75 1    
    19    9   10 ar   
    20    9   14 ar   
    21   10   11 ar   
    22   10   76 1    
    23   11   12 ar   
    24   11   48 1    
    25   12   13 ar   
    26   12   77 1    
    27   13   14 ar   
    28   13   15 1    
    29   14   78 1    
    30   15   16 1    
    31   15   79 1    
    32   15   80 1    
    33   16   17 1    
    34   17   18 1    
    35   17   81 1    
    36   17   82 1    
    37   18   19 1    
    38   18   22 1    
    39   18   83 1    
    40   19   20 am   BACKBONE|DICT|INTERRES
    41   19   21 2    
    42   20   84 1    
    43   20   85 1    
    44   22   23 am   BACKBONE|DICT|INTERRES
    45   22   86 1    
    46   23   24 2    
    47   23   25 1    
    48   25   26 1    
    49   25   27 1    
    50   25   87 1    
    51   26   88 1    
    52   26   89 1    
    53   26   90 1    
    54   27   28 am   BACKBONE|DICT|INTERRES
    55   27   91 1    
    56   28   29 2    
    57   28   30 1    
    58   30   31 1    
    59   30   32 1    
    60   30   92 1    
    61   31   93 1    
    62   31   94 1    
    63   31   95 1    
    64   32   33 am   BACKBONE|DICT|INTERRES
    65   32   96 1    
    66   33   34 2    
    67   33   35 1    
    68   35   36 1    
    69   35   37 1    
    70   35   97 1    
    71   36   98 1    
    72   36   99 1    
    73   36  100 1    
    74   37   38 am   BACKBONE|DICT|INTERRES
    75   37  101 1    
    76   38   39 2    
    77   38   40 1    
    78   40   41 1    
    79   40   42 1    
    80   40  102 1    
    81   41  103 1    
    82   41  104 1    
    83   41  105 1    
    84   42   43 am   BACKBONE|DICT|INTERRES
    85   42  106 1    
    86   43   44 2    
    87   43   45 1    
    88   45   46 1    
    89   45   49 1    
    90   45  107 1    
    91   46   47 1    
    92   46  108 1    
    93   46  109 1    
    94   47   48 1    
    95   48  110 1    
    96   48  111 1    
    97   49   50 am   BACKBONE|DICT|INTERRES
    98   49  112 1    
    99   50   51 2    
   100   50   52 1    
   101   52   53 1    
   102   52   54 1    
   103   52  113 1    
   104   53  114 1    
   105   53  115 1    
   106   53  116 1    
   107   54   55 am   BACKBONE|DICT|INTERRES
   108   54  117 1    
   109   55   56 2    
   110   55   57 1    
   111   57   58 1    
   112   57   59 1    
   113   57  118 1    
   114   58  119 1    
   115   58  120 1    
   116   58  121 1    
   117   59   60 am   BACKBONE|DICT|INTERRES
   118   59  122 1    
   119   60   61 2    
   120   60   62 1    
   121   62   63 1    
   122   62   64 1    
   123   62  123 1    
   124   63  124 1    
   125   63  125 1    
   126   63  126 1    
   127   64   65 am   BACKBONE|DICT|INTERRES
   128   64  127 1    
   129   65   66 2    
@<TRIPOS>SUBSTRUCTURE
     1 UNK         1 GROUP             0       ****    0 ROOT    
