@<TRIPOS>MOLECULE
3R134
127   129    1
SMALL
USER_CHARGES


@<TRIPOS>ATOM
      1 CA         37.9902  -44.5641  -53.8517 C.3       0 UNK        -0.1968 
      2 C          37.1186  -45.7269  -54.3021 C.2       0 UNK         0.4852 
      3 O          37.6288  -46.6862  -54.8846 O.2       0 UNK        -0.5359 
      4 N          35.8080  -45.6553  -54.0343 N.am      1 UNK        -0.4300 
      5 CA         34.8160  -46.6780  -54.3829 C.3       1 UNK         0.0863 
      6 C6         33.3884  -46.0862  -54.5218 C.3       11 UNK        -0.0953 
      7 S7         33.2983  -44.8965  -55.9013 S.3       11 UNK        -0.2369 
      8 C8         33.0544  -43.3180  -55.0300 C.3       11 UNK         0.0226 
      9 C9         31.5824  -43.0588  -54.7489 C.ar      11 UNK        -0.0699 
     10 C10        31.0486  -43.2578  -53.4722 C.ar      11 UNK        -0.0804 
     11 C11        29.6957  -43.0023  -53.2215 C.ar      11 UNK        -0.0871 
     12 C12        28.8740  -42.5589  -54.2633 C.ar      11 UNK        -0.1008 
     13 C13        29.3995  -42.3446  -55.5416 C.ar      11 UNK        -0.0735 
     14 C14        30.7560  -42.5908  -55.7736 C.ar      11 UNK        -0.0945 
     15 C15        28.5117  -41.8167  -56.6613 C.3       11 UNK         0.0169 
     16 S16        28.5224  -42.9219  -58.1049 S.3       11 UNK        -0.2669 
     17 C17        27.1243  -42.2669  -59.0782 C.3       11 UNK        -0.0850 
     18 CA         25.7651  -42.8986  -58.6776 C.3       10 UNK         0.0855 
     19 C          24.6238  -42.3734  -59.5897 C.2       10 UNK         0.5543 
     20 N          23.9896  -41.2708  -59.2153 N.am      10 UNK        -0.7343 
     21 O          24.3418  -42.9268  -60.6511 O.2       10 UNK        -0.5027 
     22 N          25.8459  -44.3639  -58.6403 N.am      10 UNK        -0.4495 
     23 C          24.9300  -45.1908  -58.1311 C.2       10 UNK         0.4903 
     24 O          23.8585  -44.8171  -57.6528 O.2       10 UNK        -0.4860 
     25 CA         25.2757  -46.6897  -58.1049 C.3       9 UNK         0.0227 
     26 CB         24.8386  -47.3910  -59.4053 C.3       9 UNK        -0.1964 
     27 N          26.6747  -46.9901  -57.7652 N.am      9 UNK        -0.4231 
     28 C          27.7940  -46.8022  -58.4823 C.2       9 UNK         0.5014 
     29 O          27.8223  -46.2538  -59.5848 O.2       9 UNK        -0.5270 
     30 CA         29.1062  -47.3301  -57.8681 C.3       8 UNK         0.0284 
     31 CB         29.7653  -46.2667  -56.9738 C.3       8 UNK        -0.1977 
     32 N          28.9146  -48.5673  -57.1037 N.am      8 UNK        -0.4342 
     33 C          28.5415  -49.7402  -57.6392 C.2       8 UNK         0.5039 
     34 O          28.4068  -49.9329  -58.8481 O.2       8 UNK        -0.5547 
     35 CA         28.2500  -50.8886  -56.6626 C.3       7 UNK         0.0281 
     36 CB         29.5363  -51.6602  -56.3395 C.3       7 UNK        -0.1963 
     37 N          27.6372  -50.4002  -55.4253 N.am      7 UNK        -0.4444 
     38 C          26.3331  -50.1113  -55.3023 C.2       7 UNK         0.5104 
     39 O          25.5027  -50.3017  -56.1908 O.2       7 UNK        -0.5100 
     40 CA         25.8721  -49.4865  -53.9725 C.3       6 UNK         0.0396 
     41 CB         25.4667  -50.5839  -52.9760 C.3       6 UNK        -0.1801 
     42 N          26.8779  -48.6186  -53.3556 N.am      6 UNK        -0.4747 
     43 C          27.3306  -47.4699  -53.8810 C.2       6 UNK         0.5012 
     44 O          26.9120  -46.9939  -54.9347 O.2       6 UNK        -0.5003 
     45 CA         28.4745  -46.7607  -53.1275 C.3       5 UNK         0.0782 
     46 C46        27.9036  -45.6799  -52.1768 C.3       11 UNK        -0.0868 
     47 S47        29.2003  -44.8527  -51.1919 S.3       11 UNK        -0.2515 
     48 C48        29.1361  -43.1433  -51.8119 C.3       11 UNK         0.0199 
     49 N          29.3559  -47.7008  -52.4238 N.am      5 UNK        -0.4607 
     50 C          30.0814  -48.6726  -52.9888 C.2       4 UNK         0.5031 
     51 O          30.0423  -48.9440  -54.1920 O.2       4 UNK        -0.5119 
     52 CA         30.9731  -49.4584  -52.0166 C.3       4 UNK         0.0263 
     53 CB         30.1447  -50.3485  -51.0651 C.3       4 UNK        -0.1967 
     54 N          32.0433  -50.1941  -52.6971 N.am      4 UNK        -0.4237 
     55 C          32.0028  -51.3783  -53.3289 C.2       3 UNK         0.4908 
     56 O          31.0091  -52.1034  -53.3776 O.2       3 UNK        -0.5102 
     57 CA         33.2941  -51.8552  -54.0315 C.3       3 UNK         0.0241 
     58 CB         33.0742  -51.9951  -55.5476 C.3       3 UNK        -0.1971 
     59 N          34.4487  -50.9806  -53.8070 N.am      3 UNK        -0.4139 
     60 C          35.1713  -50.9209  -52.6798 C.2       2 UNK         0.5016 
     61 O          35.0116  -51.6787  -51.7227 O.2       2 UNK        -0.5319 
     62 CA         36.2254  -49.8001  -52.5896 C.3       2 UNK         0.0286 
     63 CB         37.6236  -50.3487  -52.9158 C.3       2 UNK        -0.1963 
     64 N          35.9524  -48.6396  -53.4499 N.am      2 UNK        -0.4790 
     65 C          34.8782  -47.8409  -53.3726 C.2       1 UNK         0.5024 
     66 O          33.9744  -48.0005  -52.5515 O.2       1 UNK        -0.4888 
     67 H67        38.7494  -44.9137  -53.1526 H         1 UNK         0.0892 
     68 H68        38.4948  -44.1204  -54.7095 H         1 UNK         0.0892 
     69 H69        37.4089  -43.7843  -53.3600 H         1 UNK         0.0892 
     70 H70        35.4507  -44.8580  -53.5289 H         1 UNK         0.3107 
     71 H71        35.0816  -47.0987  -55.3557 H         1 UNK         0.0773 
     72 H72        32.6644  -46.8771  -54.7288 H         1 UNK         0.0680 
     73 H73        33.0637  -45.6151  -53.5925 H         1 UNK         0.0680 
     74 H74        33.6399  -43.3002  -54.1098 H         1 UNK         0.0650 
     75 H75        33.4474  -42.5135  -55.6534 H         1 UNK         0.0650 
     76 H76        31.6859  -43.6000  -52.6683 H         1 UNK         0.1397 
     77 H77        27.8291  -42.3548  -54.0728 H         1 UNK         0.1363 
     78 H78        31.1685  -42.4256  -56.7597 H         1 UNK         0.1355 
     79 H79        28.8574  -40.8265  -56.9608 H         1 UNK         0.0707 
     80 H80        27.4853  -41.6988  -56.3107 H         1 UNK         0.0707 
     81 H81        27.0916  -41.1805  -58.9753 H         1 UNK         0.1034 
     82 H82        27.3358  -42.4633  -60.1312 H         1 UNK         0.1034 
     83 H83        25.5418  -42.5808  -57.6572 H         1 UNK         0.0482 
     84 H84        24.2187  -40.8034  -58.3518 H         1 UNK         0.3460 
     85 H85        23.2567  -40.9041  -59.8026 H         1 UNK         0.3460 
     86 H86        26.6846  -44.7783  -59.0349 H         1 UNK         0.2989 
     87 H87        24.6924  -47.1261  -57.2923 H         1 UNK         0.0559 
     88 H88        25.3570  -46.9943  -60.2786 H         1 UNK         0.0848 
     89 H89        23.7698  -47.2575  -59.5770 H         1 UNK         0.0848 
     90 H90        25.0293  -48.4634  -59.3592 H         1 UNK         0.0848 
     91 H91        26.8040  -47.3137  -56.8097 H         1 UNK         0.3144 
     92 H92        29.7917  -47.5552  -58.6878 H         1 UNK         0.0727 
     93 H93        30.6361  -46.6615  -56.4501 H         1 UNK         0.0790 
     94 H94        29.0733  -45.8713  -56.2303 H         1 UNK         0.0790 
     95 H95        30.1080  -45.4213  -57.5710 H         1 UNK         0.0790 
     96 H96        29.0678  -48.5243  -56.1029 H         1 UNK         0.3215 
     97 H97        27.5589  -51.5785  -57.1523 H         1 UNK         0.0863 
     98 H98        30.2818  -51.0160  -55.8743 H         1 UNK         0.0808 
     99 H99        29.9821  -52.0732  -57.2452 H         1 UNK         0.0808 
    100 H100       29.3432  -52.4925  -55.6626 H         1 UNK         0.0808 
    101 H101       28.2668  -50.1762  -54.6644 H         1 UNK         0.3118 
    102 H102       24.9915  -48.8760  -54.1838 H         1 UNK         0.0546 
    103 H103       25.0556  -50.1579  -52.0607 H         1 UNK         0.0828 
    104 H104       26.3124  -51.2165  -52.7034 H         1 UNK         0.0828 
    105 H105       24.6994  -51.2323  -53.4016 H         1 UNK         0.0828 
    106 H106       27.2822  -48.9340  -52.4855 H         1 UNK         0.3005 
    107 H107       29.0867  -46.2557  -53.8778 H         1 UNK         0.1257 
    108 H108       27.1916  -46.1214  -51.4766 H         1 UNK         0.0775 
    109 H109       27.3455  -44.9327  -52.7446 H         1 UNK         0.0775 
    110 H110       28.1096  -42.7776  -51.7549 H         1 UNK         0.0840 
    111 H111       29.7182  -42.5095  -51.1414 H         1 UNK         0.0840 
    112 H112       29.4601  -47.5296  -51.4338 H         1 UNK         0.2987 
    113 H113       31.4931  -48.7200  -51.4038 H         1 UNK         0.0785 
    114 H114       30.7882  -50.9552  -50.4278 H         1 UNK         0.0798 
    115 H115       29.5196  -49.7445  -50.4068 H         1 UNK         0.0798 
    116 H116       29.4792  -51.0205  -51.6079 H         1 UNK         0.0798 
    117 H117       32.9109  -49.6709  -52.7478 H         1 UNK         0.3079 
    118 H118       33.5291  -52.8433  -53.6302 H         1 UNK         0.0794 
    119 H119       32.2688  -52.6987  -55.7617 H         1 UNK         0.0786 
    120 H120       33.9675  -52.3722  -56.0459 H         1 UNK         0.0786 
    121 H121       32.8086  -51.0421  -56.0070 H         1 UNK         0.0786 
    122 H122       34.6714  -50.3256  -54.5424 H         1 UNK         0.3032 
    123 H123       36.2267  -49.4485  -51.5553 H         1 UNK         0.1094 
    124 H124       37.6914  -50.6926  -53.9487 H         1 UNK         0.0794 
    125 H125       38.3929  -49.5915  -52.7625 H         1 UNK         0.0794 
    126 H126       37.8718  -51.1947  -52.2730 H         1 UNK         0.0794 
    127 H127       36.6763  -48.3764  -54.1119 H         1 UNK         0.3016 
@<TRIPOS>BOND
     1    1    2 1    
     2    1   67 1    
     3    1   68 1    
     4    1   69 1    
     5    2    3 2    
     6    2    4 am   BACKBONE|DICT|INTERRES
     7    4    5 1    
     8    4   70 1    
     9    5    6 1    
    10    5   65 1    
    11    5   71 1    
    12    6    7 1    
    13    6   72 1    
    14    6   73 1    
    15    7    8 1    
    16    8    9 1    
    17    8   74 1    
    18    8   75 1    
    19    9   10 ar   
    20    9   14 ar   
    21   10   11 ar   
    22   10   76 1    
    23   11   12 ar   
    24   11   48 1    
    25   12   13 ar   
    26   12   77 1    
    27   13   14 ar   
    28   13   15 1    
    29   14   78 1    
    30   15   16 1    
    31   15   79 1    
    32   15   80 1    
    33   16   17 1    
    34   17   18 1    
    35   17   81 1    
    36   17   82 1    
    37   18   19 1    
    38   18   22 1    
    39   18   83 1    
    40   19   20 am   BACKBONE|DICT|INTERRES
    41   19   21 2    
    42   20   84 1    
    43   20   85 1    
    44   22   23 am   BACKBONE|DICT|INTERRES
    45   22   86 1    
    46   23   24 2    
    47   23   25 1    
    48   25   26 1    
    49   25   27 1    
    50   25   87 1    
    51   26   88 1    
    52   26   89 1    
    53   26   90 1    
    54   27   28 am   BACKBONE|DICT|INTERRES
    55   27   91 1    
    56   28   29 2    
    57   28   30 1    
    58   30   31 1    
    59   30   32 1    
    60   30   92 1    
    61   31   93 1    
    62   31   94 1    
    63   31   95 1    
    64   32   33 am   BACKBONE|DICT|INTERRES
    65   32   96 1    
    66   33   34 2    
    67   33   35 1    
    68   35   36 1    
    69   35   37 1    
    70   35   97 1    
    71   36   98 1    
    72   36   99 1    
    73   36  100 1    
    74   37   38 am   BACKBONE|DICT|INTERRES
    75   37  101 1    
    76   38   39 2    
    77   38   40 1    
    78   40   41 1    
    79   40   42 1    
    80   40  102 1    
    81   41  103 1    
    82   41  104 1    
    83   41  105 1    
    84   42   43 am   BACKBONE|DICT|INTERRES
    85   42  106 1    
    86   43   44 2    
    87   43   45 1    
    88   45   46 1    
    89   45   49 1    
    90   45  107 1    
    91   46   47 1    
    92   46  108 1    
    93   46  109 1    
    94   47   48 1    
    95   48  110 1    
    96   48  111 1    
    97   49   50 am   BACKBONE|DICT|INTERRES
    98   49  112 1    
    99   50   51 2    
   100   50   52 1    
   101   52   53 1    
   102   52   54 1    
   103   52  113 1    
   104   53  114 1    
   105   53  115 1    
   106   53  116 1    
   107   54   55 am   BACKBONE|DICT|INTERRES
   108   54  117 1    
   109   55   56 2    
   110   55   57 1    
   111   57   58 1    
   112   57   59 1    
   113   57  118 1    
   114   58  119 1    
   115   58  120 1    
   116   58  121 1    
   117   59   60 am   BACKBONE|DICT|INTERRES
   118   59  122 1    
   119   60   61 2    
   120   60   62 1    
   121   62   63 1    
   122   62   64 1    
   123   62  123 1    
   124   63  124 1    
   125   63  125 1    
   126   63  126 1    
   127   64   65 am   BACKBONE|DICT|INTERRES
   128   64  127 1    
   129   65   66 2    
@<TRIPOS>SUBSTRUCTURE
     1 UNK         1 GROUP             0       ****    0 ROOT    
