@<TRIPOS>MOLECULE
3R134
127   129    1
SMALL
USER_CHARGES


@<TRIPOS>ATOM
      1 CA         30.3565  -49.6092  -50.8639 C.3       0 UNK        -0.1968 
      2 C          31.3304  -48.5436  -50.3881 C.2       0 UNK         0.4852 
      3 O          31.9331  -48.6913  -49.3242 O.2       0 UNK        -0.5359 
      4 N          31.4876  -47.4737  -51.1753 N.am      1 UNK        -0.4300 
      5 CA         32.4534  -46.3961  -50.9515 C.3       1 UNK         0.0863 
      6 C6         31.9851  -45.1040  -51.6602 C.3       11 UNK        -0.0953 
      7 S7         33.0141  -43.6385  -51.3318 S.3       11 UNK        -0.2369 
      8 C8         31.9851  -42.3335  -52.0897 C.3       11 UNK         0.0226 
      9 C9         31.7393  -42.4833  -53.5932 C.ar      11 UNK        -0.0699 
     10 C10        32.6675  -43.0994  -54.4434 C.ar      11 UNK        -0.0804 
     11 C11        32.4259  -43.1911  -55.8170 C.ar      11 UNK        -0.0871 
     12 C12        31.2566  -42.6403  -56.3487 C.ar      11 UNK        -0.1008 
     13 C13        30.3215  -42.0208  -55.5166 C.ar      11 UNK        -0.0735 
     14 C14        30.5676  -41.9501  -54.1419 C.ar      11 UNK        -0.0945 
     15 C15        29.0629  -41.3968  -56.1037 C.3       11 UNK         0.0169 
     16 S16        27.7191  -42.6112  -56.2819 S.3       11 UNK        -0.2669 
     17 C17        28.1977  -43.4879  -57.8125 C.3       11 UNK        -0.0850 
     18 CA         26.9662  -43.9791  -58.6212 C.3       10 UNK         0.0855 
     19 C          27.3760  -44.5247  -60.0230 C.2       10 UNK         0.5543 
     20 N          26.9531  -45.7133  -60.4388 N.am      10 UNK        -0.7343 
     21 O          28.0903  -43.8472  -60.7576 O.2       10 UNK        -0.5027 
     22 N          26.1365  -44.9070  -57.8350 N.am      10 UNK        -0.4495 
     23 C          24.8168  -45.0693  -57.9813 C.2       10 UNK         0.4903 
     24 O          24.1231  -44.4026  -58.7514 O.2       10 UNK        -0.4860 
     25 CA         24.1815  -46.1859  -57.1291 C.3       9 UNK         0.0227 
     26 CB         22.7246  -46.4956  -57.5342 C.3       9 UNK        -0.1964 
     27 N          24.9834  -47.4185  -57.1035 N.am      9 UNK        -0.4231 
     28 C          25.3628  -48.1662  -58.1537 C.2       9 UNK         0.5014 
     29 O          25.1056  -47.8643  -59.3201 O.2       9 UNK        -0.5270 
     30 CA         26.1884  -49.4445  -57.8820 C.3       8 UNK         0.0284 
     31 CB         27.2764  -49.6510  -58.9527 C.3       8 UNK        -0.1977 
     32 N          26.8238  -49.4668  -56.5620 N.am      8 UNK        -0.4342 
     33 C          26.2263  -49.7959  -55.4095 C.2       8 UNK         0.5039 
     34 O          25.0621  -50.1875  -55.3298 O.2       8 UNK        -0.5547 
     35 CA         27.0437  -49.5781  -54.1236 C.3       7 UNK         0.0281 
     36 CB         27.9177  -50.8046  -53.8190 C.3       7 UNK        -0.1963 
     37 N          27.8683  -48.3624  -54.1732 N.am      7 UNK        -0.4444 
     38 C          27.3791  -47.1176  -54.2795 C.2       7 UNK         0.5104 
     39 O          26.1742  -46.8666  -54.2973 O.2       7 UNK        -0.5100 
     40 CA         28.3712  -45.9544  -54.4614 C.3       6 UNK         0.0396 
     41 CB         28.7641  -45.3344  -53.1106 C.3       6 UNK        -0.1801 
     42 N          29.5351  -46.2789  -55.2989 N.am      6 UNK        -0.4747 
     43 C          30.5815  -47.0626  -55.0130 C.2       6 UNK         0.5012 
     44 O          30.7926  -47.5579  -53.9025 O.2       6 UNK        -0.5003 
     45 CA         31.5071  -47.4146  -56.1939 C.3       5 UNK         0.0782 
     46 C46        32.8073  -46.5683  -56.2144 C.3       11 UNK        -0.0868 
     47 S47        32.7791  -45.3318  -57.5538 S.3       11 UNK        -0.2515 
     48 C48        33.4450  -43.8480  -56.7362 C.3       11 UNK         0.0199 
     49 N          31.7713  -48.8568  -56.2172 N.am      5 UNK        -0.4607 
     50 C          30.8281  -49.7749  -56.4791 C.2       4 UNK         0.5031 
     51 O          29.6577  -49.4832  -56.7281 O.2       4 UNK        -0.5119 
     52 CA         31.2332  -51.2592  -56.4764 C.3       4 UNK         0.0263 
     53 CB         31.4880  -51.7425  -57.9127 C.3       4 UNK        -0.1967 
     54 N          32.4095  -51.5425  -55.6544 N.am      4 UNK        -0.4237 
     55 C          32.4296  -51.5106  -54.3156 C.2       3 UNK         0.4908 
     56 O          31.4390  -51.2915  -53.6187 O.2       3 UNK        -0.5102 
     57 CA         33.7890  -51.7357  -53.6290 C.3       3 UNK         0.0241 
     58 CB         34.8138  -52.5079  -54.4925 C.3       3 UNK        -0.1971 
     59 N          34.3535  -50.4689  -53.1506 N.am      3 UNK        -0.4139 
     60 C          34.6533  -49.3902  -53.8891 C.2       2 UNK         0.5016 
     61 O          34.5066  -49.3213  -55.1112 O.2       2 UNK        -0.5319 
     62 CA         35.1097  -48.1579  -53.1056 C.3       2 UNK         0.0286 
     63 CB         35.8966  -47.1416  -53.9563 C.3       2 UNK        -0.1963 
     64 N          33.9105  -47.5397  -52.5533 N.am      2 UNK        -0.4790 
     65 C          33.8554  -46.8484  -51.4087 C.2       1 UNK         0.5024 
     66 O          34.8395  -46.6043  -50.7091 O.2       1 UNK        -0.4888 
     67 H67        29.4920  -49.6565  -50.2026 H         1 UNK         0.0892 
     68 H68        30.0063  -49.4031  -51.8747 H         1 UNK         0.0892 
     69 H69        30.8396  -50.5860  -50.8714 H         1 UNK         0.0892 
     70 H70        31.0174  -47.4552  -52.0782 H         1 UNK         0.3107 
     71 H71        32.5036  -46.1931  -49.8793 H         1 UNK         0.0773 
     72 H72        31.9235  -45.2585  -52.7385 H         1 UNK         0.0680 
     73 H73        30.9761  -44.8625  -51.3250 H         1 UNK         0.0680 
     74 H74        32.4679  -41.3714  -51.9156 H         1 UNK         0.0650 
     75 H75        31.0329  -42.3017  -51.5577 H         1 UNK         0.0650 
     76 H76        33.5858  -43.5024  -54.0401 H         1 UNK         0.1397 
     77 H77        31.0792  -42.6924  -57.4139 H         1 UNK         0.1363 
     78 H78        29.8478  -41.4634  -53.4978 H         1 UNK         0.1355 
     79 H79        28.7147  -40.5909  -55.4557 H         1 UNK         0.0707 
     80 H80        29.2807  -40.9314  -57.0660 H         1 UNK         0.0707 
     81 H81        28.7957  -42.8093  -58.4234 H         1 UNK         0.1034 
     82 H82        28.8540  -44.3202  -57.5575 H         1 UNK         0.1034 
     83 H83        26.3607  -43.0957  -58.8331 H         1 UNK         0.0482 
     84 H84        26.3195  -46.2755  -59.8836 H         1 UNK         0.3460 
     85 H85        27.2310  -46.0356  -61.3518 H         1 UNK         0.3460 
     86 H86        26.6223  -45.5025  -57.1838 H         1 UNK         0.2989 
     87 H87        24.1649  -45.8123  -56.1041 H         1 UNK         0.0559 
     88 H88        22.6557  -46.8379  -58.5674 H         1 UNK         0.0848 
     89 H89        22.0958  -45.6091  -57.4432 H         1 UNK         0.0848 
     90 H90        22.2905  -47.2655  -56.8964 H         1 UNK         0.0848 
     91 H91        25.2638  -47.7259  -56.1798 H         1 UNK         0.3144 
     92 H92        25.4946  -50.2851  -57.9457 H         1 UNK         0.0727 
     93 H93        27.9784  -48.8164  -58.9778 H         1 UNK         0.0790 
     94 H94        26.8411  -49.7431  -59.9486 H         1 UNK         0.0790 
     95 H95        27.8474  -50.5612  -58.7677 H         1 UNK         0.0790 
     96 H96        27.8165  -49.2374  -56.5398 H         1 UNK         0.3215 
     97 H97        26.3311  -49.4605  -53.3042 H         1 UNK         0.0863 
     98 H98        28.3639  -50.7402  -52.8280 H         1 UNK         0.0808 
     99 H99        28.7233  -50.9206  -54.5427 H         1 UNK         0.0808 
    100 H100       27.3265  -51.7211  -53.8410 H         1 UNK         0.0808 
    101 H101       28.8747  -48.4772  -54.1722 H         1 UNK         0.3118 
    102 H102       27.8319  -45.1867  -55.0147 H         1 UNK         0.0546 
    103 H103       29.4667  -44.5129  -53.2449 H         1 UNK         0.0828 
    104 H104       29.2103  -46.0664  -52.4389 H         1 UNK         0.0828 
    105 H105       27.8873  -44.9298  -52.6039 H         1 UNK         0.0828 
    106 H106       29.4773  -45.9247  -56.2420 H         1 UNK         0.3005 
    107 H107       30.9496  -47.2173  -57.1129 H         1 UNK         0.1257 
    108 H108       33.0009  -46.0837  -55.2551 H         1 UNK         0.0775 
    109 H109       33.6758  -47.1985  -56.4067 H         1 UNK         0.0775 
    110 H110       34.3571  -44.1099  -56.1974 H         1 UNK         0.0840 
    111 H111       33.7403  -43.1297  -57.5023 H         1 UNK         0.0840 
    112 H112       32.7089  -49.1551  -55.9657 H         1 UNK         0.2987 
    113 H113       30.3924  -51.8267  -56.0726 H         1 UNK         0.0785 
    114 H114       30.6141  -51.5690  -58.5426 H         1 UNK         0.0798 
    115 H115       31.6980  -52.8119  -57.9408 H         1 UNK         0.0798 
    116 H116       32.3291  -51.2212  -58.3717 H         1 UNK         0.0798 
    117 H117       33.2833  -51.6886  -56.1393 H         1 UNK         0.3079 
    118 H118       33.5853  -52.3412  -52.7443 H         1 UNK         0.0794 
    119 H119       35.1402  -51.9428  -55.3660 H         1 UNK         0.0786 
    120 H120       34.3980  -53.4530  -54.8446 H         1 UNK         0.0786 
    121 H121       35.7043  -52.7496  -53.9121 H         1 UNK         0.0786 
    122 H122       34.4523  -50.3951  -52.1474 H         1 UNK         0.3032 
    123 H123       35.7596  -48.5004  -52.2965 H         1 UNK         0.1094 
    124 H124       36.2656  -46.3180  -53.3450 H         1 UNK         0.0794 
    125 H125       36.7629  -47.6134  -54.4215 H         1 UNK         0.0794 
    126 H126       35.2911  -46.7150  -54.7538 H         1 UNK         0.0794 
    127 H127       33.0477  -47.7290  -53.0488 H         1 UNK         0.3016 
@<TRIPOS>BOND
     1    1    2 1    
     2    1   67 1    
     3    1   68 1    
     4    1   69 1    
     5    2    3 2    
     6    2    4 am   BACKBONE|DICT|INTERRES
     7    4    5 1    
     8    4   70 1    
     9    5    6 1    
    10    5   65 1    
    11    5   71 1    
    12    6    7 1    
    13    6   72 1    
    14    6   73 1    
    15    7    8 1    
    16    8    9 1    
    17    8   74 1    
    18    8   75 1    
    19    9   10 ar   
    20    9   14 ar   
    21   10   11 ar   
    22   10   76 1    
    23   11   12 ar   
    24   11   48 1    
    25   12   13 ar   
    26   12   77 1    
    27   13   14 ar   
    28   13   15 1    
    29   14   78 1    
    30   15   16 1    
    31   15   79 1    
    32   15   80 1    
    33   16   17 1    
    34   17   18 1    
    35   17   81 1    
    36   17   82 1    
    37   18   19 1    
    38   18   22 1    
    39   18   83 1    
    40   19   20 am   BACKBONE|DICT|INTERRES
    41   19   21 2    
    42   20   84 1    
    43   20   85 1    
    44   22   23 am   BACKBONE|DICT|INTERRES
    45   22   86 1    
    46   23   24 2    
    47   23   25 1    
    48   25   26 1    
    49   25   27 1    
    50   25   87 1    
    51   26   88 1    
    52   26   89 1    
    53   26   90 1    
    54   27   28 am   BACKBONE|DICT|INTERRES
    55   27   91 1    
    56   28   29 2    
    57   28   30 1    
    58   30   31 1    
    59   30   32 1    
    60   30   92 1    
    61   31   93 1    
    62   31   94 1    
    63   31   95 1    
    64   32   33 am   BACKBONE|DICT|INTERRES
    65   32   96 1    
    66   33   34 2    
    67   33   35 1    
    68   35   36 1    
    69   35   37 1    
    70   35   97 1    
    71   36   98 1    
    72   36   99 1    
    73   36  100 1    
    74   37   38 am   BACKBONE|DICT|INTERRES
    75   37  101 1    
    76   38   39 2    
    77   38   40 1    
    78   40   41 1    
    79   40   42 1    
    80   40  102 1    
    81   41  103 1    
    82   41  104 1    
    83   41  105 1    
    84   42   43 am   BACKBONE|DICT|INTERRES
    85   42  106 1    
    86   43   44 2    
    87   43   45 1    
    88   45   46 1    
    89   45   49 1    
    90   45  107 1    
    91   46   47 1    
    92   46  108 1    
    93   46  109 1    
    94   47   48 1    
    95   48  110 1    
    96   48  111 1    
    97   49   50 am   BACKBONE|DICT|INTERRES
    98   49  112 1    
    99   50   51 2    
   100   50   52 1    
   101   52   53 1    
   102   52   54 1    
   103   52  113 1    
   104   53  114 1    
   105   53  115 1    
   106   53  116 1    
   107   54   55 am   BACKBONE|DICT|INTERRES
   108   54  117 1    
   109   55   56 2    
   110   55   57 1    
   111   57   58 1    
   112   57   59 1    
   113   57  118 1    
   114   58  119 1    
   115   58  120 1    
   116   58  121 1    
   117   59   60 am   BACKBONE|DICT|INTERRES
   118   59  122 1    
   119   60   61 2    
   120   60   62 1    
   121   62   63 1    
   122   62   64 1    
   123   62  123 1    
   124   63  124 1    
   125   63  125 1    
   126   63  126 1    
   127   64   65 am   BACKBONE|DICT|INTERRES
   128   64  127 1    
   129   65   66 2    
@<TRIPOS>SUBSTRUCTURE
     1 UNK         1 GROUP             0       ****    0 ROOT    
