@<TRIPOS>MOLECULE
3R134
127   129    1
SMALL
USER_CHARGES


@<TRIPOS>ATOM
      1 CA         33.2259  -48.9606  -59.0706 C.3       0 UNK        -0.1968 
      2 C          33.3446  -49.1626  -57.5679 C.2       0 UNK         0.4852 
      3 O          33.0116  -50.2373  -57.0659 O.2       0 UNK        -0.5359 
      4 N          33.8178  -48.1406  -56.8425 N.am      1 UNK        -0.4300 
      5 CA         33.9600  -48.1255  -55.3820 C.3       1 UNK         0.0863 
      6 C6         33.9325  -46.6866  -54.8098 C.3       11 UNK        -0.0953 
      7 S7         32.2846  -45.9554  -55.0319 S.3       11 UNK        -0.2369 
      8 C8         32.5670  -44.2285  -54.5425 C.3       11 UNK         0.0226 
      9 C9         31.2220  -43.5521  -54.3478 C.ar      11 UNK        -0.0699 
     10 C10        30.6321  -43.5206  -53.0820 C.ar      11 UNK        -0.0804 
     11 C11        29.3113  -43.0864  -52.9217 C.ar      11 UNK        -0.0871 
     12 C12        28.6208  -42.5871  -54.0314 C.ar      11 UNK        -0.1008 
     13 C13        29.2278  -42.5490  -55.2908 C.ar      11 UNK        -0.0735 
     14 C14        30.5259  -43.0417  -55.4455 C.ar      11 UNK        -0.0945 
     15 C15        28.4828  -41.9872  -56.4897 C.3       11 UNK         0.0169 
     16 S16        27.8624  -43.3120  -57.5696 S.3       11 UNK        -0.2669 
     17 C17        27.0362  -42.3157  -58.8583 C.3       11 UNK        -0.0850 
     18 CA         25.4847  -42.3676  -58.7450 C.3       10 UNK         0.0855 
     19 C          24.7761  -41.3230  -59.6622 C.2       10 UNK         0.5543 
     20 N          23.5837  -41.5986  -60.1768 N.am      10 UNK        -0.7343 
     21 O          25.2947  -40.2316  -59.8856 O.2       10 UNK        -0.5027 
     22 N          24.9526  -43.7396  -58.8440 N.am      10 UNK        -0.4495 
     23 C          25.0304  -44.5475  -59.9084 C.2       10 UNK         0.4903 
     24 O          25.5587  -44.2337  -60.9766 O.2       10 UNK        -0.4860 
     25 CA         24.4176  -45.9481  -59.7342 C.3       9 UNK         0.0227 
     26 CB         24.4125  -46.7618  -61.0419 C.3       9 UNK        -0.1964 
     27 N          25.1208  -46.7156  -58.7066 N.am      9 UNK        -0.4231 
     28 C          24.9586  -46.6099  -57.3843 C.2       9 UNK         0.5014 
     29 O          24.1968  -45.7964  -56.8580 O.2       9 UNK        -0.5270 
     30 CA         25.7534  -47.5859  -56.4959 C.3       8 UNK         0.0284 
     31 CB         25.1720  -49.0097  -56.5891 C.3       8 UNK        -0.1977 
     32 N          27.2096  -47.6077  -56.6961 N.am      8 UNK        -0.4342 
     33 C          27.9211  -47.9071  -57.7960 C.2       8 UNK         0.5039 
     34 O          27.4288  -48.1538  -58.8981 O.2       8 UNK        -0.5547 
     35 CA         29.4515  -47.9842  -57.6307 C.3       7 UNK         0.0281 
     36 CB         30.0884  -46.6045  -57.8621 C.3       7 UNK        -0.1963 
     37 N          29.8584  -48.5031  -56.3212 N.am      7 UNK        -0.4444 
     38 C          29.5679  -49.7323  -55.8663 C.2       7 UNK         0.5104 
     39 O          29.0529  -50.6108  -56.5589 O.2       7 UNK        -0.5100 
     40 CA         29.8539  -50.0340  -54.3819 C.3       6 UNK         0.0396 
     41 CB         31.0103  -51.0344  -54.2386 C.3       6 UNK        -0.1801 
     42 N          30.1110  -48.8545  -53.5443 N.am      6 UNK        -0.4747 
     43 C          29.2130  -47.8919  -53.2701 C.2       6 UNK         0.5012 
     44 O          28.0836  -47.8662  -53.7630 O.2       6 UNK        -0.5003 
     45 CA         29.6656  -46.7417  -52.3446 C.3       5 UNK         0.0782 
     46 C46        28.4855  -46.0245  -51.6251 C.3       11 UNK        -0.0868 
     47 S47        29.0290  -44.6315  -50.5683 S.3       11 UNK        -0.2515 
     48 C48        28.6087  -43.1562  -51.5663 C.3       11 UNK         0.0199 
     49 N          30.7733  -47.1134  -51.4541 N.am      5 UNK        -0.4607 
     50 C          30.7414  -47.9989  -50.4506 C.2       4 UNK         0.5031 
     51 O          29.7592  -48.6774  -50.1452 O.2       4 UNK        -0.5119 
     52 CA         32.0572  -48.1562  -49.6651 C.3       4 UNK         0.0263 
     53 CB         31.8044  -48.1117  -48.1479 C.3       4 UNK        -0.1967 
     54 N          32.7964  -49.3798  -49.9948 N.am      4 UNK        -0.4237 
     55 C          33.1557  -49.7822  -51.2212 C.2       3 UNK         0.4908 
     56 O          32.8460  -49.1942  -52.2642 O.2       3 UNK        -0.5102 
     57 CA         34.0231  -51.0491  -51.2948 C.3       3 UNK         0.0241 
     58 CB         33.2326  -52.3146  -50.9181 C.3       3 UNK        -0.1971 
     59 N          34.5042  -51.1618  -52.6646 N.am      3 UNK        -0.4139 
     60 C          35.7329  -51.4951  -53.0714 C.2       2 UNK         0.5016 
     61 O          36.6084  -51.9453  -52.3315 O.2       2 UNK        -0.5319 
     62 CA         36.0390  -51.2553  -54.5645 C.3       2 UNK         0.0286 
     63 CB         35.9262  -52.5673  -55.3571 C.3       2 UNK        -0.1963 
     64 N          35.1438  -50.2560  -55.1619 N.am      2 UNK        -0.4790 
     65 C          35.1824  -48.9404  -54.9091 C.2       1 UNK         0.5024 
     66 O          36.1074  -48.3925  -54.3073 O.2       1 UNK        -0.4888 
     67 H67        32.1991  -49.1346  -59.3907 H         1 UNK         0.0892 
     68 H68        33.5075  -47.9514  -59.3705 H         1 UNK         0.0892 
     69 H69        33.8707  -49.6649  -59.5953 H         1 UNK         0.0892 
     70 H70        34.0992  -47.2911  -57.3105 H         1 UNK         0.3107 
     71 H71        33.0934  -48.6383  -54.9616 H         1 UNK         0.0773 
     72 H72        34.1449  -46.6874  -53.7387 H         1 UNK         0.0680 
     73 H73        34.6873  -46.0567  -55.2838 H         1 UNK         0.0680 
     74 H74        33.1494  -43.7167  -55.3100 H         1 UNK         0.0650 
     75 H75        33.1510  -44.1940  -53.6215 H         1 UNK         0.0650 
     76 H76        31.1783  -43.9083  -52.2333 H         1 UNK         0.1397 
     77 H77        27.6054  -42.2318  -53.9180 H         1 UNK         0.1363 
     78 H78        30.9792  -43.0615  -56.4274 H         1 UNK         0.1355 
     79 H79        27.6466  -41.3662  -56.1640 H         1 UNK         0.0707 
     80 H80        29.1501  -41.3371  -57.0577 H         1 UNK         0.0707 
     81 H81        27.3938  -41.2868  -58.7903 H         1 UNK         0.1034 
     82 H82        27.3635  -42.6715  -59.8361 H         1 UNK         0.1034 
     83 H83        25.2323  -42.0418  -57.7353 H         1 UNK         0.0482 
     84 H84        23.1255  -40.9155  -60.7592 H         1 UNK         0.3460 
     85 H85        23.1414  -42.4843  -59.9906 H         1 UNK         0.3460 
     86 H86        24.5287  -44.1163  -58.0027 H         1 UNK         0.2989 
     87 H87        23.3792  -45.8140  -59.4240 H         1 UNK         0.0559 
     88 H88        25.4244  -46.9536  -61.4017 H         1 UNK         0.0848 
     89 H89        23.8790  -46.2312  -61.8316 H         1 UNK         0.0848 
     90 H90        23.9174  -47.7237  -60.9083 H         1 UNK         0.0848 
     91 H91        25.8590  -47.3473  -59.0199 H         1 UNK         0.3144 
     92 H92        25.6127  -47.2481  -55.4677 H         1 UNK         0.0727 
     93 H93        25.6469  -49.6762  -55.8688 H         1 UNK         0.0790 
     94 H94        25.3067  -49.4418  -57.5814 H         1 UNK         0.0790 
     95 H95        24.1022  -49.0105  -56.3757 H         1 UNK         0.0790 
     96 H96        27.7358  -47.4518  -55.8433 H         1 UNK         0.3215 
     97 H97        29.8294  -48.6699  -58.3918 H         1 UNK         0.0863 
     98 H98        31.1766  -46.6628  -57.8573 H         1 UNK         0.0808 
     99 H99        29.7919  -46.1946  -58.8286 H         1 UNK         0.0808 
    100 H100       29.7869  -45.8849  -57.0994 H         1 UNK         0.0808 
    101 H101       30.3098  -47.8578  -55.6894 H         1 UNK         0.3118 
    102 H102       28.9557  -50.5134  -53.9873 H         1 UNK         0.0546 
    103 H103       31.1326  -51.3439  -53.2022 H         1 UNK         0.0828 
    104 H104       31.9540  -50.6158  -54.5826 H         1 UNK         0.0828 
    105 H105       30.8247  -51.9357  -54.8244 H         1 UNK         0.0828 
    106 H106       31.0211  -48.8074  -53.0947 H         1 UNK         0.3005 
    107 H107       30.0878  -46.0283  -53.0461 H         1 UNK         0.1257 
    108 H108       27.9425  -46.7318  -50.9962 H         1 UNK         0.0775 
    109 H109       27.7620  -45.6503  -52.3519 H         1 UNK         0.0775 
    110 H110       27.5256  -43.1306  -51.6973 H         1 UNK         0.0840 
    111 H111       28.8700  -42.2644  -50.9955 H         1 UNK         0.0840 
    112 H112       31.6511  -46.6531  -51.6473 H         1 UNK         0.2987 
    113 H113       32.7067  -47.3140  -49.9128 H         1 UNK         0.0785 
    114 H114       31.2539  -47.2113  -47.8712 H         1 UNK         0.0798 
    115 H115       31.2183  -48.9676  -47.8104 H         1 UNK         0.0798 
    116 H116       32.7396  -48.1023  -47.5877 H         1 UNK         0.0798 
    117 H117       33.0789  -49.9466  -49.2085 H         1 UNK         0.3079 
    118 H118       34.8684  -50.9238  -50.6146 H         1 UNK         0.0794 
    119 H119       32.3651  -52.4606  -51.5612 H         1 UNK         0.0786 
    120 H120       32.8729  -52.2663  -49.8898 H         1 UNK         0.0786 
    121 H121       33.8571  -53.2046  -50.9981 H         1 UNK         0.0786 
    122 H122       33.8926  -50.7221  -53.3388 H         1 UNK         0.3032 
    123 H123       37.0666  -50.8912  -54.6359 H         1 UNK         0.1094 
    124 H124       34.9141  -52.9731  -55.3250 H         1 UNK         0.0794 
    125 H125       36.1969  -52.4228  -56.4032 H         1 UNK         0.0794 
    126 H126       36.5960  -53.3270  -54.9515 H         1 UNK         0.0794 
    127 H127       34.3782  -50.5954  -55.7403 H         1 UNK         0.3016 
@<TRIPOS>BOND
     1    1    2 1    
     2    1   67 1    
     3    1   68 1    
     4    1   69 1    
     5    2    3 2    
     6    2    4 am   BACKBONE|DICT|INTERRES
     7    4    5 1    
     8    4   70 1    
     9    5    6 1    
    10    5   65 1    
    11    5   71 1    
    12    6    7 1    
    13    6   72 1    
    14    6   73 1    
    15    7    8 1    
    16    8    9 1    
    17    8   74 1    
    18    8   75 1    
    19    9   10 ar   
    20    9   14 ar   
    21   10   11 ar   
    22   10   76 1    
    23   11   12 ar   
    24   11   48 1    
    25   12   13 ar   
    26   12   77 1    
    27   13   14 ar   
    28   13   15 1    
    29   14   78 1    
    30   15   16 1    
    31   15   79 1    
    32   15   80 1    
    33   16   17 1    
    34   17   18 1    
    35   17   81 1    
    36   17   82 1    
    37   18   19 1    
    38   18   22 1    
    39   18   83 1    
    40   19   20 am   BACKBONE|DICT|INTERRES
    41   19   21 2    
    42   20   84 1    
    43   20   85 1    
    44   22   23 am   BACKBONE|DICT|INTERRES
    45   22   86 1    
    46   23   24 2    
    47   23   25 1    
    48   25   26 1    
    49   25   27 1    
    50   25   87 1    
    51   26   88 1    
    52   26   89 1    
    53   26   90 1    
    54   27   28 am   BACKBONE|DICT|INTERRES
    55   27   91 1    
    56   28   29 2    
    57   28   30 1    
    58   30   31 1    
    59   30   32 1    
    60   30   92 1    
    61   31   93 1    
    62   31   94 1    
    63   31   95 1    
    64   32   33 am   BACKBONE|DICT|INTERRES
    65   32   96 1    
    66   33   34 2    
    67   33   35 1    
    68   35   36 1    
    69   35   37 1    
    70   35   97 1    
    71   36   98 1    
    72   36   99 1    
    73   36  100 1    
    74   37   38 am   BACKBONE|DICT|INTERRES
    75   37  101 1    
    76   38   39 2    
    77   38   40 1    
    78   40   41 1    
    79   40   42 1    
    80   40  102 1    
    81   41  103 1    
    82   41  104 1    
    83   41  105 1    
    84   42   43 am   BACKBONE|DICT|INTERRES
    85   42  106 1    
    86   43   44 2    
    87   43   45 1    
    88   45   46 1    
    89   45   49 1    
    90   45  107 1    
    91   46   47 1    
    92   46  108 1    
    93   46  109 1    
    94   47   48 1    
    95   48  110 1    
    96   48  111 1    
    97   49   50 am   BACKBONE|DICT|INTERRES
    98   49  112 1    
    99   50   51 2    
   100   50   52 1    
   101   52   53 1    
   102   52   54 1    
   103   52  113 1    
   104   53  114 1    
   105   53  115 1    
   106   53  116 1    
   107   54   55 am   BACKBONE|DICT|INTERRES
   108   54  117 1    
   109   55   56 2    
   110   55   57 1    
   111   57   58 1    
   112   57   59 1    
   113   57  118 1    
   114   58  119 1    
   115   58  120 1    
   116   58  121 1    
   117   59   60 am   BACKBONE|DICT|INTERRES
   118   59  122 1    
   119   60   61 2    
   120   60   62 1    
   121   62   63 1    
   122   62   64 1    
   123   62  123 1    
   124   63  124 1    
   125   63  125 1    
   126   63  126 1    
   127   64   65 am   BACKBONE|DICT|INTERRES
   128   64  127 1    
   129   65   66 2    
@<TRIPOS>SUBSTRUCTURE
     1 UNK         1 GROUP             0       ****    0 ROOT    
