@<TRIPOS>MOLECULE
3R134
127   129    1
SMALL
USER_CHARGES


@<TRIPOS>ATOM
      1 CA         30.9139  -41.9246  -52.2161 C.3       0 UNK        -0.1968 
      2 C          31.6046  -43.2453  -51.9107 C.2       0 UNK         0.4852 
      3 O          31.5275  -43.7287  -50.7808 O.2       0 UNK        -0.5359 
      4 N          32.2657  -43.8475  -52.9079 N.am      1 UNK        -0.4300 
      5 CA         33.0702  -45.0724  -52.7853 C.3       1 UNK         0.0863 
      6 C6         34.2907  -45.0877  -53.7511 C.3       11 UNK        -0.0953 
      7 S7         35.1935  -43.4931  -53.7959 S.3       11 UNK        -0.2369 
      8 C8         35.2359  -43.0379  -55.5679 C.3       11 UNK         0.0226 
      9 C9         33.9359  -43.3197  -56.3135 C.ar      11 UNK        -0.0699 
     10 C10        33.9158  -44.2850  -57.3260 C.ar      11 UNK        -0.0804 
     11 C11        32.7269  -44.5977  -57.9902 C.ar      11 UNK        -0.0871 
     12 C12        31.5518  -43.9299  -57.6381 C.ar      11 UNK        -0.1008 
     13 C13        31.5544  -42.9750  -56.6183 C.ar      11 UNK        -0.0735 
     14 C14        32.7542  -42.6513  -55.9759 C.ar      11 UNK        -0.0945 
     15 C15        30.2429  -42.3418  -56.1896 C.3       11 UNK         0.0169 
     16 S16        29.3824  -43.4326  -55.0144 S.3       11 UNK        -0.2669 
     17 C17        27.6947  -42.7461  -55.0848 C.3       11 UNK        -0.0850 
     18 CA         26.6372  -43.6174  -54.3532 C.3       10 UNK         0.0855 
     19 C          25.2219  -42.9994  -54.5557 C.2       10 UNK         0.5543 
     20 N          24.3669  -43.5667  -55.4002 N.am      10 UNK        -0.7343 
     21 O          24.9026  -41.9853  -53.9407 O.2       10 UNK        -0.5027 
     22 N          26.7464  -45.0335  -54.7334 N.am      10 UNK        -0.4495 
     23 C          26.0646  -46.0549  -54.1987 C.2       10 UNK         0.4903 
     24 O          25.3256  -45.9444  -53.2196 O.2       10 UNK        -0.4860 
     25 CA         26.2461  -47.4342  -54.8691 C.3       9 UNK         0.0227 
     26 CB         24.9661  -48.2915  -54.7965 C.3       9 UNK        -0.1964 
     27 N          26.7428  -47.3644  -56.2507 N.am      9 UNK        -0.4231 
     28 C          26.1747  -46.7361  -57.2943 C.2       9 UNK         0.5014 
     29 O          25.1145  -46.1108  -57.2352 O.2       9 UNK        -0.5270 
     30 CA         26.9515  -46.7786  -58.6160 C.3       8 UNK         0.0284 
     31 CB         28.1066  -45.7628  -58.5859 C.3       8 UNK        -0.1977 
     32 N          27.4745  -48.1217  -58.8709 N.am      8 UNK        -0.4342 
     33 C          26.7904  -49.0877  -59.5012 C.2       8 UNK         0.5039 
     34 O          25.6882  -48.9191  -60.0247 O.2       8 UNK        -0.5547 
     35 CA         27.4360  -50.4847  -59.5532 C.3       7 UNK         0.0281 
     36 CB         28.3537  -50.6094  -60.7803 C.3       7 UNK        -0.1963 
     37 N          28.1956  -50.8048  -58.3432 N.am      7 UNK        -0.4444 
     38 C          27.6590  -50.9989  -57.1295 C.2       7 UNK         0.5104 
     39 O          26.4478  -51.0441  -56.9166 O.2       7 UNK        -0.5100 
     40 CA         28.6367  -51.1450  -55.9476 C.3       6 UNK         0.0396 
     41 CB         28.7849  -52.6200  -55.5445 C.3       6 UNK        -0.1801 
     42 N          29.9679  -50.5797  -56.1967 N.am      6 UNK        -0.4747 
     43 C          30.2326  -49.2840  -56.4133 C.2       6 UNK         0.5012 
     44 O          29.3570  -48.4160  -56.4555 O.2       6 UNK        -0.5003 
     45 CA         31.7172  -48.9191  -56.6250 C.3       5 UNK         0.0782 
     46 C46        31.9486  -47.4257  -56.9591 C.3       11 UNK        -0.0868 
     47 S47        31.5292  -47.0244  -58.6898 S.3       11 UNK        -0.2515 
     48 C48        32.7097  -45.6829  -59.0613 C.3       11 UNK         0.0199 
     49 N          32.5053  -49.3116  -55.4583 N.am      5 UNK        -0.4607 
     50 C          33.0226  -50.5245  -55.2321 C.2       4 UNK         0.5031 
     51 O          32.8593  -51.4847  -55.9851 O.2       4 UNK        -0.5119 
     52 CA         33.8282  -50.6953  -53.9388 C.3       4 UNK         0.0263 
     53 CB         35.1787  -49.9654  -54.0386 C.3       4 UNK        -0.1967 
     54 N          33.0741  -50.1697  -52.8014 N.am      4 UNK        -0.4237 
     55 C          32.4177  -50.9191  -51.9052 C.2       3 UNK         0.4908 
     56 O          32.4324  -52.1507  -51.8949 O.2       3 UNK        -0.5102 
     57 CA         31.6049  -50.1746  -50.8289 C.3       3 UNK         0.0241 
     58 CB         32.4447  -49.9889  -49.5546 C.3       3 UNK        -0.1971 
     59 N          31.1085  -48.8700  -51.2740 N.am      3 UNK        -0.4139 
     60 C          30.1732  -48.6922  -52.2173 C.2       2 UNK         0.5016 
     61 O          29.5681  -49.6137  -52.7635 O.2       2 UNK        -0.5319 
     62 CA         29.8616  -47.2437  -52.6312 C.3       2 UNK         0.0286 
     63 CB         28.6290  -46.7348  -51.8678 C.3       2 UNK        -0.1963 
     64 N          30.9499  -46.2770  -52.4411 N.am      2 UNK        -0.4790 
     65 C          32.1930  -46.3366  -52.9403 C.2       1 UNK         0.5024 
     66 O          32.6425  -47.3310  -53.5122 O.2       1 UNK        -0.4888 
     67 H67        31.2049  -41.1707  -51.4853 H         1 UNK         0.0892 
     68 H68        31.1714  -41.5501  -53.2061 H         1 UNK         0.0892 
     69 H69        29.8322  -42.0474  -52.1686 H         1 UNK         0.0892 
     70 H70        32.2425  -43.4489  -53.8358 H         1 UNK         0.3107 
     71 H71        33.4745  -45.1095  -51.7716 H         1 UNK         0.0773 
     72 H72        33.9820  -45.3748  -54.7556 H         1 UNK         0.0680 
     73 H73        34.9975  -45.8583  -53.4385 H         1 UNK         0.0680 
     74 H74        35.4721  -41.9764  -55.6512 H         1 UNK         0.0650 
     75 H75        36.0666  -43.5696  -56.0344 H         1 UNK         0.0650 
     76 H76        34.8257  -44.8102  -57.5827 H         1 UNK         0.1397 
     77 H77        30.6242  -44.1850  -58.1316 H         1 UNK         0.1363 
     78 H78        32.7670  -41.9055  -55.1931 H         1 UNK         0.1355 
     79 H79        30.4120  -41.3667  -55.7304 H         1 UNK         0.0707 
     80 H80        29.6170  -42.1703  -57.0669 H         1 UNK         0.0707 
     81 H81        27.4198  -42.6291  -56.1352 H         1 UNK         0.1034 
     82 H82        27.7156  -41.7402  -54.6607 H         1 UNK         0.1034 
     83 H83        26.8488  -43.5682  -53.2834 H         1 UNK         0.0482 
     84 H84        23.4532  -43.1613  -55.5262 H         1 UNK         0.3460 
     85 H85        24.6261  -44.4000  -55.9135 H         1 UNK         0.3460 
     86 H86        27.3550  -45.2255  -55.5141 H         1 UNK         0.2989 
     87 H87        27.0218  -47.9501  -54.3018 H         1 UNK         0.0559 
     88 H88        24.6688  -48.4682  -53.7622 H         1 UNK         0.0848 
     89 H89        25.1159  -49.2670  -55.2587 H         1 UNK         0.0848 
     90 H90        24.1273  -47.8081  -55.2982 H         1 UNK         0.0848 
     91 H91        27.6557  -47.7947  -56.3958 H         1 UNK         0.3144 
     92 H92        26.2712  -46.4910  -59.4207 H         1 UNK         0.0727 
     93 H93        28.6581  -45.7625  -59.5262 H         1 UNK         0.0790 
     94 H94        28.8152  -45.9734  -57.7836 H         1 UNK         0.0790 
     95 H95        27.7319  -44.7502  -58.4298 H         1 UNK         0.0790 
     96 H96        28.3585  -48.3535  -58.4364 H         1 UNK         0.3215 
     97 H97        26.6316  -51.2175  -59.6501 H         1 UNK         0.0863 
     98 H98        28.7590  -51.6172  -60.8728 H         1 UNK         0.0808 
     99 H99        29.1911  -49.9118  -60.7339 H         1 UNK         0.0808 
    100 H100       27.8047  -50.3977  -61.6991 H         1 UNK         0.0808 
    101 H101       29.2017  -50.8192  -58.4210 H         1 UNK         0.3118 
    102 H102       28.2036  -50.6033  -55.1039 H         1 UNK         0.0546 
    103 H103       27.8133  -53.0642  -55.3237 H         1 UNK         0.0828 
    104 H104       29.3975  -52.7249  -54.6487 H         1 UNK         0.0828 
    105 H105       29.2425  -53.2122  -56.3378 H         1 UNK         0.0828 
    106 H106       30.7545  -51.2189  -56.1567 H         1 UNK         0.3005 
    107 H107       32.0676  -49.5046  -57.4786 H         1 UNK         0.1257 
    108 H108       31.3971  -46.7671  -56.2843 H         1 UNK         0.0775 
    109 H109       33.0023  -47.1830  -56.8113 H         1 UNK         0.0775 
    110 H110       33.7018  -46.1190  -59.1880 H         1 UNK         0.0840 
    111 H111       32.4464  -45.2344  -60.0200 H         1 UNK         0.0840 
    112 H112       32.6385  -48.5827  -54.7603 H         1 UNK         0.2987 
    113 H113       34.0293  -51.7607  -53.8064 H         1 UNK         0.0785 
    114 H114       35.7822  -50.1320  -53.1462 H         1 UNK         0.0798 
    115 H115       35.0547  -48.8883  -54.1599 H         1 UNK         0.0798 
    116 H116       35.7554  -50.3266  -54.8913 H         1 UNK         0.0798 
    117 H117       32.9638  -49.1622  -52.7627 H         1 UNK         0.3079 
    118 H118       30.7413  -50.7964  -50.5828 H         1 UNK         0.0794 
    119 H119       32.8064  -50.9488  -49.1829 H         1 UNK         0.0786 
    120 H120       31.8587  -49.5347  -48.7553 H         1 UNK         0.0786 
    121 H121       33.3172  -49.3590  -49.7328 H         1 UNK         0.0786 
    122 H122       31.5369  -48.0500  -50.8699 H         1 UNK         0.3032 
    123 H123       29.6283  -47.2618  -53.6986 H         1 UNK         0.1094 
    124 H124       28.3189  -45.7523  -52.2243 H         1 UNK         0.0794 
    125 H125       27.7809  -47.4097  -51.9907 H         1 UNK         0.0794 
    126 H126       28.8243  -46.6540  -50.7978 H         1 UNK         0.0794 
    127 H127       30.7102  -45.4283  -51.9433 H         1 UNK         0.3016 
@<TRIPOS>BOND
     1    1    2 1    
     2    1   67 1    
     3    1   68 1    
     4    1   69 1    
     5    2    3 2    
     6    2    4 am   BACKBONE|DICT|INTERRES
     7    4    5 1    
     8    4   70 1    
     9    5    6 1    
    10    5   65 1    
    11    5   71 1    
    12    6    7 1    
    13    6   72 1    
    14    6   73 1    
    15    7    8 1    
    16    8    9 1    
    17    8   74 1    
    18    8   75 1    
    19    9   10 ar   
    20    9   14 ar   
    21   10   11 ar   
    22   10   76 1    
    23   11   12 ar   
    24   11   48 1    
    25   12   13 ar   
    26   12   77 1    
    27   13   14 ar   
    28   13   15 1    
    29   14   78 1    
    30   15   16 1    
    31   15   79 1    
    32   15   80 1    
    33   16   17 1    
    34   17   18 1    
    35   17   81 1    
    36   17   82 1    
    37   18   19 1    
    38   18   22 1    
    39   18   83 1    
    40   19   20 am   BACKBONE|DICT|INTERRES
    41   19   21 2    
    42   20   84 1    
    43   20   85 1    
    44   22   23 am   BACKBONE|DICT|INTERRES
    45   22   86 1    
    46   23   24 2    
    47   23   25 1    
    48   25   26 1    
    49   25   27 1    
    50   25   87 1    
    51   26   88 1    
    52   26   89 1    
    53   26   90 1    
    54   27   28 am   BACKBONE|DICT|INTERRES
    55   27   91 1    
    56   28   29 2    
    57   28   30 1    
    58   30   31 1    
    59   30   32 1    
    60   30   92 1    
    61   31   93 1    
    62   31   94 1    
    63   31   95 1    
    64   32   33 am   BACKBONE|DICT|INTERRES
    65   32   96 1    
    66   33   34 2    
    67   33   35 1    
    68   35   36 1    
    69   35   37 1    
    70   35   97 1    
    71   36   98 1    
    72   36   99 1    
    73   36  100 1    
    74   37   38 am   BACKBONE|DICT|INTERRES
    75   37  101 1    
    76   38   39 2    
    77   38   40 1    
    78   40   41 1    
    79   40   42 1    
    80   40  102 1    
    81   41  103 1    
    82   41  104 1    
    83   41  105 1    
    84   42   43 am   BACKBONE|DICT|INTERRES
    85   42  106 1    
    86   43   44 2    
    87   43   45 1    
    88   45   46 1    
    89   45   49 1    
    90   45  107 1    
    91   46   47 1    
    92   46  108 1    
    93   46  109 1    
    94   47   48 1    
    95   48  110 1    
    96   48  111 1    
    97   49   50 am   BACKBONE|DICT|INTERRES
    98   49  112 1    
    99   50   51 2    
   100   50   52 1    
   101   52   53 1    
   102   52   54 1    
   103   52  113 1    
   104   53  114 1    
   105   53  115 1    
   106   53  116 1    
   107   54   55 am   BACKBONE|DICT|INTERRES
   108   54  117 1    
   109   55   56 2    
   110   55   57 1    
   111   57   58 1    
   112   57   59 1    
   113   57  118 1    
   114   58  119 1    
   115   58  120 1    
   116   58  121 1    
   117   59   60 am   BACKBONE|DICT|INTERRES
   118   59  122 1    
   119   60   61 2    
   120   60   62 1    
   121   62   63 1    
   122   62   64 1    
   123   62  123 1    
   124   63  124 1    
   125   63  125 1    
   126   63  126 1    
   127   64   65 am   BACKBONE|DICT|INTERRES
   128   64  127 1    
   129   65   66 2    
@<TRIPOS>SUBSTRUCTURE
     1 UNK         1 GROUP             0       ****    0 ROOT    
