@<TRIPOS>MOLECULE
3R134
127   129    1
SMALL
USER_CHARGES


@<TRIPOS>ATOM
      1 CA         28.1349  -44.6910  -53.3614 C.3       0 UNK        -0.1968 
      2 C          29.3056  -45.3433  -52.6452 C.2       0 UNK         0.4852 
      3 O          29.1440  -45.8251  -51.5220 O.2       0 UNK        -0.5359 
      4 N          30.4842  -45.3807  -53.2829 N.am      1 UNK        -0.4300 
      5 CA         31.7170  -45.9761  -52.7466 C.3       1 UNK         0.0863 
      6 C6         32.9968  -45.3573  -53.3684 C.3       11 UNK        -0.0953 
      7 S7         33.0641  -43.5400  -53.2070 S.3       11 UNK        -0.2369 
      8 C8         33.8056  -43.0419  -54.7964 C.3       11 UNK         0.0226 
      9 C9         32.9130  -43.3810  -55.9822 C.ar      11 UNK        -0.0699 
     10 C10        33.2506  -44.4294  -56.8429 C.ar      11 UNK        -0.0804 
     11 C11        32.4185  -44.7671  -57.9142 C.ar      11 UNK        -0.0871 
     12 C12        31.2464  -44.0346  -58.1310 C.ar      11 UNK        -0.1008 
     13 C13        30.9046  -42.9746  -57.2839 C.ar      11 UNK        -0.0735 
     14 C14        31.7469  -42.6486  -56.2165 C.ar      11 UNK        -0.0945 
     15 C15        29.6261  -42.1811  -57.5105 C.3       11 UNK         0.0169 
     16 S16        28.4450  -42.4611  -56.1585 S.3       11 UNK        -0.2669 
     17 C17        27.0154  -41.4746  -56.7131 C.3       11 UNK        -0.0850 
     18 CA         25.7742  -41.6936  -55.8071 C.3       10 UNK         0.0855 
     19 C          24.6134  -40.7328  -56.1952 C.2       10 UNK         0.5543 
     20 N          23.4374  -41.2235  -56.5676 N.am      10 UNK        -0.7343 
     21 O          24.7820  -39.5168  -56.1485 O.2       10 UNK        -0.5027 
     22 N          25.3946  -43.1139  -55.7590 N.am      10 UNK        -0.4495 
     23 C          24.7888  -43.7338  -54.7428 C.2       10 UNK         0.4903 
     24 O          24.4394  -43.1651  -53.7083 O.2       10 UNK        -0.4860 
     25 CA         24.5478  -45.2516  -54.8764 C.3       9 UNK         0.0227 
     26 CB         23.1230  -45.5398  -55.3872 C.3       9 UNK        -0.1964 
     27 N          25.5569  -45.9827  -55.6619 N.am      9 UNK        -0.4231 
     28 C          25.8442  -45.9071  -56.9681 C.2       9 UNK         0.5014 
     29 O          25.2664  -45.1490  -57.7480 O.2       9 UNK        -0.5270 
     30 CA         26.9829  -46.7909  -57.5112 C.3       8 UNK         0.0284 
     31 CB         28.3239  -46.0388  -57.4619 C.3       8 UNK        -0.1977 
     32 N          27.1119  -48.1331  -56.9241 N.am      8 UNK        -0.4342 
     33 C          27.3670  -48.5030  -55.6626 C.2       8 UNK         0.5039 
     34 O          27.4962  -47.7143  -54.7266 O.2       8 UNK        -0.5547 
     35 CA         27.4903  -50.0123  -55.3945 C.3       7 UNK         0.0281 
     36 CB         26.1213  -50.7156  -55.4764 C.3       7 UNK        -0.1963 
     37 N          28.5036  -50.6768  -56.2248 N.am      7 UNK        -0.4444 
     38 C          28.5225  -50.8749  -57.5493 C.2       7 UNK         0.5104 
     39 O          27.6102  -50.5391  -58.3078 O.2       7 UNK        -0.5100 
     40 CA         29.8090  -51.5119  -58.1136 C.3       6 UNK         0.0396 
     41 CB         29.6779  -51.8831  -59.6021 C.3       6 UNK        -0.1801 
     42 N          30.9657  -50.6259  -57.9464 N.am      6 UNK        -0.4747 
     43 C          31.6064  -50.3889  -56.7940 C.2       6 UNK         0.5012 
     44 O          31.3005  -50.9332  -55.7292 O.2       6 UNK        -0.5003 
     45 CA         32.7306  -49.3339  -56.8325 C.3       5 UNK         0.0782 
     46 C46        32.1576  -47.8945  -56.8927 C.3       11 UNK        -0.0868 
     47 S47        31.7404  -47.3817  -58.5942 S.3       11 UNK        -0.2515 
     48 C48        32.7948  -45.9162  -58.8415 C.3       11 UNK         0.0199 
     49 N          33.6071  -49.4860  -55.6717 N.am      5 UNK        -0.4607 
     50 C          34.6190  -50.3553  -55.5793 C.2       4 UNK         0.5031 
     51 O          34.9585  -51.1053  -56.4950 O.2       4 UNK        -0.5119 
     52 CA         35.3936  -50.3909  -54.2544 C.3       4 UNK         0.0263 
     53 CB         36.4198  -49.2464  -54.1962 C.3       4 UNK        -0.1967 
     54 N          34.5057  -50.3087  -53.0908 N.am      4 UNK        -0.4237 
     55 C          34.5736  -51.1161  -52.0214 C.2       3 UNK         0.4908 
     56 O          35.3892  -52.0324  -51.9077 O.2       3 UNK        -0.5102 
     57 CA         33.5895  -50.8626  -50.8610 C.3       3 UNK         0.0241 
     58 CB         34.2956  -50.1190  -49.7150 C.3       3 UNK        -0.1971 
     59 N          32.4000  -50.1064  -51.2542 N.am      3 UNK        -0.4139 
     60 C          31.4060  -50.5816  -52.0154 C.2       2 UNK         0.5016 
     61 O          31.3223  -51.7593  -52.3646 O.2       2 UNK        -0.5319 
     62 CA         30.3251  -49.5823  -52.4736 C.3       2 UNK         0.0286 
     63 CB         29.0024  -49.8460  -51.7355 C.3       2 UNK        -0.1963 
     64 N          30.6608  -48.1582  -52.3335 N.am      2 UNK        -0.4790 
     65 C          31.6929  -47.5142  -52.8950 C.2       1 UNK         0.5024 
     66 O          32.5907  -48.0913  -53.5110 O.2       1 UNK        -0.4888 
     67 H67        28.2085  -44.8259  -54.4387 H         1 UNK         0.0892 
     68 H68        28.0995  -43.6237  -53.1451 H         1 UNK         0.0892 
     69 H69        27.1960  -45.1386  -53.0368 H         1 UNK         0.0892 
     70 H70        30.5661  -44.9692  -54.2021 H         1 UNK         0.3107 
     71 H71        31.7551  -45.7703  -51.6746 H         1 UNK         0.0773 
     72 H72        33.0733  -45.6369  -54.4185 H         1 UNK         0.0680 
     73 H73        33.8875  -45.7628  -52.8848 H         1 UNK         0.0680 
     74 H74        33.9861  -41.9662  -54.7785 H         1 UNK         0.0650 
     75 H75        34.7838  -43.5147  -54.8973 H         1 UNK         0.0650 
     76 H76        34.1574  -44.9927  -56.6693 H         1 UNK         0.1397 
     77 H77        30.5992  -44.2973  -58.9567 H         1 UNK         0.1363 
     78 H78        31.4816  -41.8365  -55.5531 H         1 UNK         0.1355 
     79 H79        29.1618  -42.4579  -58.4583 H         1 UNK         0.0707 
     80 H80        29.8628  -41.1181  -57.5737 H         1 UNK         0.0707 
     81 H81        26.7820  -41.7335  -57.7476 H         1 UNK         0.1034 
     82 H82        27.3112  -40.4236  -56.7157 H         1 UNK         0.1034 
     83 H83        26.0631  -41.4005  -54.7959 H         1 UNK         0.0482 
     84 H84        23.2938  -42.2197  -56.6073 H         1 UNK         0.3460 
     85 H85        22.6908  -40.5922  -56.8124 H         1 UNK         0.3460 
     86 H86        25.5802  -43.6613  -56.5936 H         1 UNK         0.2989 
     87 H87        24.6210  -45.6615  -53.8678 H         1 UNK         0.0559 
     88 H88        22.9179  -46.6101  -55.4060 H         1 UNK         0.0848 
     89 H89        22.9614  -45.1499  -56.3925 H         1 UNK         0.0848 
     90 H90        22.3768  -45.0788  -54.7386 H         1 UNK         0.0848 
     91 H91        26.1684  -46.5988  -55.1242 H         1 UNK         0.3144 
     92 H92        26.7493  -46.9616  -58.5633 H         1 UNK         0.0727 
     93 H93        29.0817  -46.5675  -58.0353 H         1 UNK         0.0790 
     94 H94        28.6975  -45.9210  -56.4455 H         1 UNK         0.0790 
     95 H95        28.2330  -45.0419  -57.8948 H         1 UNK         0.0790 
     96 H96        27.0467  -48.9001  -57.5914 H         1 UNK         0.3215 
     97 H97        27.8401  -50.1175  -54.3679 H         1 UNK         0.0863 
     98 H98        26.2017  -51.7680  -55.2046 H         1 UNK         0.0808 
     99 H99        25.6849  -50.6611  -56.4740 H         1 UNK         0.0808 
    100 H100       25.4095  -50.2576  -54.7883 H         1 UNK         0.0808 
    101 H101       29.3635  -50.9264  -55.7417 H         1 UNK         0.3118 
    102 H102       29.9895  -52.4339  -57.5568 H         1 UNK         0.0546 
    103 H103       28.8355  -52.5573  -59.7631 H         1 UNK         0.0828 
    104 H104       30.5711  -52.3919  -59.9648 H         1 UNK         0.0828 
    105 H105       29.5150  -51.0038  -60.2267 H         1 UNK         0.0828 
    106 H106       31.2324  -50.0868  -58.7592 H         1 UNK         0.3005 
    107 H107       33.3319  -49.5146  -57.7270 H         1 UNK         0.1257 
    108 H108       32.8922  -47.1934  -56.4968 H         1 UNK         0.0775 
    109 H109       31.2777  -47.7788  -56.2556 H         1 UNK         0.0775 
    110 H110       33.8403  -46.1996  -58.7094 H         1 UNK         0.0840 
    111 H111       32.6994  -45.5860  -59.8768 H         1 UNK         0.0840 
    112 H112       33.3437  -48.9321  -54.8606 H         1 UNK         0.2987 
    113 H113       35.9406  -51.3362  -54.2420 H         1 UNK         0.0785 
    114 H114       35.9351  -48.2691  -54.1880 H         1 UNK         0.0798 
    115 H115       37.0875  -49.2746  -55.0584 H         1 UNK         0.0798 
    116 H116       37.0408  -49.3189  -53.3032 H         1 UNK         0.0798 
    117 H117       33.7872  -49.5922  -53.1148 H         1 UNK         0.3079 
    118 H118       33.2660  -51.8372  -50.4889 H         1 UNK         0.0794 
    119 H119       34.6368  -49.1302  -50.0242 H         1 UNK         0.0786 
    120 H120       35.1707  -50.6725  -49.3711 H         1 UNK         0.0786 
    121 H121       33.6361  -49.9948  -48.8557 H         1 UNK         0.0786 
    122 H122       32.3725  -49.1294  -51.0018 H         1 UNK         0.3032 
    123 H123       30.1694  -49.7659  -53.5382 H         1 UNK         0.1094 
    124 H124       28.6740  -50.8772  -51.8733 H         1 UNK         0.0794 
    125 H125       29.1009  -49.6747  -50.6629 H         1 UNK         0.0794 
    126 H126       28.2050  -49.2001  -52.1047 H         1 UNK         0.0794 
    127 H127       29.9742  -47.5758  -51.8604 H         1 UNK         0.3016 
@<TRIPOS>BOND
     1    1    2 1    
     2    1   67 1    
     3    1   68 1    
     4    1   69 1    
     5    2    3 2    
     6    2    4 am   BACKBONE|DICT|INTERRES
     7    4    5 1    
     8    4   70 1    
     9    5    6 1    
    10    5   65 1    
    11    5   71 1    
    12    6    7 1    
    13    6   72 1    
    14    6   73 1    
    15    7    8 1    
    16    8    9 1    
    17    8   74 1    
    18    8   75 1    
    19    9   10 ar   
    20    9   14 ar   
    21   10   11 ar   
    22   10   76 1    
    23   11   12 ar   
    24   11   48 1    
    25   12   13 ar   
    26   12   77 1    
    27   13   14 ar   
    28   13   15 1    
    29   14   78 1    
    30   15   16 1    
    31   15   79 1    
    32   15   80 1    
    33   16   17 1    
    34   17   18 1    
    35   17   81 1    
    36   17   82 1    
    37   18   19 1    
    38   18   22 1    
    39   18   83 1    
    40   19   20 am   BACKBONE|DICT|INTERRES
    41   19   21 2    
    42   20   84 1    
    43   20   85 1    
    44   22   23 am   BACKBONE|DICT|INTERRES
    45   22   86 1    
    46   23   24 2    
    47   23   25 1    
    48   25   26 1    
    49   25   27 1    
    50   25   87 1    
    51   26   88 1    
    52   26   89 1    
    53   26   90 1    
    54   27   28 am   BACKBONE|DICT|INTERRES
    55   27   91 1    
    56   28   29 2    
    57   28   30 1    
    58   30   31 1    
    59   30   32 1    
    60   30   92 1    
    61   31   93 1    
    62   31   94 1    
    63   31   95 1    
    64   32   33 am   BACKBONE|DICT|INTERRES
    65   32   96 1    
    66   33   34 2    
    67   33   35 1    
    68   35   36 1    
    69   35   37 1    
    70   35   97 1    
    71   36   98 1    
    72   36   99 1    
    73   36  100 1    
    74   37   38 am   BACKBONE|DICT|INTERRES
    75   37  101 1    
    76   38   39 2    
    77   38   40 1    
    78   40   41 1    
    79   40   42 1    
    80   40  102 1    
    81   41  103 1    
    82   41  104 1    
    83   41  105 1    
    84   42   43 am   BACKBONE|DICT|INTERRES
    85   42  106 1    
    86   43   44 2    
    87   43   45 1    
    88   45   46 1    
    89   45   49 1    
    90   45  107 1    
    91   46   47 1    
    92   46  108 1    
    93   46  109 1    
    94   47   48 1    
    95   48  110 1    
    96   48  111 1    
    97   49   50 am   BACKBONE|DICT|INTERRES
    98   49  112 1    
    99   50   51 2    
   100   50   52 1    
   101   52   53 1    
   102   52   54 1    
   103   52  113 1    
   104   53  114 1    
   105   53  115 1    
   106   53  116 1    
   107   54   55 am   BACKBONE|DICT|INTERRES
   108   54  117 1    
   109   55   56 2    
   110   55   57 1    
   111   57   58 1    
   112   57   59 1    
   113   57  118 1    
   114   58  119 1    
   115   58  120 1    
   116   58  121 1    
   117   59   60 am   BACKBONE|DICT|INTERRES
   118   59  122 1    
   119   60   61 2    
   120   60   62 1    
   121   62   63 1    
   122   62   64 1    
   123   62  123 1    
   124   63  124 1    
   125   63  125 1    
   126   63  126 1    
   127   64   65 am   BACKBONE|DICT|INTERRES
   128   64  127 1    
   129   65   66 2    
@<TRIPOS>SUBSTRUCTURE
     1 UNK         1 GROUP             0       ****    0 ROOT    
