@<TRIPOS>MOLECULE
3R134
127   129    1
SMALL
USER_CHARGES


@<TRIPOS>ATOM
      1 CA         34.2217  -46.9366  -57.9056 C.3       0 UNK        -0.1968 
      2 C          34.0693  -46.9217  -56.3928 C.2       0 UNK         0.4852 
      3 O          33.9920  -47.9874  -55.7820 O.2       0 UNK        -0.5359 
      4 N          34.0576  -45.7243  -55.7881 N.am      1 UNK        -0.4300 
      5 CA         33.8458  -45.4512  -54.3567 C.3       1 UNK         0.0863 
      6 C6         34.0408  -43.9487  -54.0261 C.3       11 UNK        -0.0953 
      7 S7         33.1052  -42.8237  -55.1157 S.3       11 UNK        -0.2369 
      8 C8         32.1371  -41.8618  -53.9139 C.3       11 UNK         0.0226 
      9 C9         30.9042  -42.6220  -53.4546 C.ar      11 UNK        -0.0699 
     10 C10        30.8575  -43.2212  -52.1921 C.ar      11 UNK        -0.0804 
     11 C11        29.7063  -43.8956  -51.7707 C.ar      11 UNK        -0.0871 
     12 C12        28.6011  -43.9709  -52.6244 C.ar      11 UNK        -0.1008 
     13 C13        28.6480  -43.3937  -53.8964 C.ar      11 UNK        -0.0735 
     14 C14        29.7971  -42.7112  -54.3006 C.ar      11 UNK        -0.0945 
     15 C15        27.4659  -43.5160  -54.8453 C.3       11 UNK         0.0169 
     16 S16        27.1929  -45.2326  -55.3854 S.3       11 UNK        -0.2669 
     17 C17        28.7840  -45.6720  -56.1760 C.3       11 UNK        -0.0850 
     18 CA         28.7908  -45.4598  -57.7111 C.3       10 UNK         0.0855 
     19 C          30.2166  -45.7194  -58.2743 C.2       10 UNK         0.5543 
     20 N          31.0381  -44.6836  -58.3793 N.am      10 UNK        -0.7343 
     21 O          30.5929  -46.8498  -58.5766 O.2       10 UNK        -0.5027 
     22 N          27.7510  -46.2701  -58.3631 N.am      10 UNK        -0.4495 
     23 C          27.4803  -46.3052  -59.6750 C.2       10 UNK         0.4903 
     24 O          28.0337  -45.5977  -60.5174 O.2       10 UNK        -0.4860 
     25 CA         26.3735  -47.2728  -60.1183 C.3       9 UNK         0.0227 
     26 CB         26.8577  -48.7324  -60.0705 C.3       9 UNK        -0.1964 
     27 N          25.1834  -47.1076  -59.2807 N.am      9 UNK        -0.4231 
     28 C          24.1612  -46.2923  -59.5776 C.2       9 UNK         0.5014 
     29 O          24.0799  -45.6729  -60.6399 O.2       9 UNK        -0.5270 
     30 CA         23.0478  -46.0793  -58.5316 C.3       8 UNK         0.0284 
     31 CB         21.7047  -46.6774  -59.0005 C.3       8 UNK        -0.1977 
     32 N          23.3892  -46.4932  -57.1635 N.am      8 UNK        -0.4342 
     33 C          23.5016  -47.7302  -56.6631 C.2       8 UNK         0.5039 
     34 O          23.2799  -48.7668  -57.2922 O.2       8 UNK        -0.5547 
     35 CA         23.9761  -47.8119  -55.2018 C.3       7 UNK         0.0281 
     36 CB         22.8104  -48.2022  -54.2787 C.3       7 UNK        -0.1963 
     37 N          25.0920  -48.7397  -54.9902 N.am      7 UNK        -0.4444 
     38 C          26.2193  -48.8098  -55.7113 C.2       7 UNK         0.5104 
     39 O          26.4431  -48.1465  -56.7252 O.2       7 UNK        -0.5100 
     40 CA         27.3100  -49.7491  -55.1757 C.3       6 UNK         0.0396 
     41 CB         28.0528  -50.4627  -56.3189 C.3       6 UNK        -0.1801 
     42 N          28.2833  -49.0106  -54.3714 N.am      6 UNK        -0.4747 
     43 C          28.0644  -48.4639  -53.1665 C.2       6 UNK         0.5012 
     44 O          26.9891  -48.5489  -52.5702 O.2       6 UNK        -0.5003 
     45 CA         29.2762  -47.7769  -52.4926 C.3       5 UNK         0.0782 
     46 C46        28.9172  -47.1661  -51.1131 C.3       11 UNK        -0.0868 
     47 S47        30.3021  -46.2259  -50.3839 S.3       11 UNK        -0.2515 
     48 C48        29.6543  -44.5238  -50.3857 C.3       11 UNK         0.0199 
     49 N          30.3721  -48.7464  -52.3799 N.am      5 UNK        -0.4607 
     50 C          31.2329  -49.0506  -53.3556 C.2       4 UNK         0.5031 
     51 O          31.2632  -48.4719  -54.4422 O.2       4 UNK        -0.5119 
     52 CA         32.1009  -50.2882  -53.1185 C.3       4 UNK         0.0263 
     53 CB         31.3435  -51.5444  -53.6007 C.3       4 UNK        -0.1967 
     54 N          33.3791  -50.1568  -53.8152 N.am      4 UNK        -0.4237 
     55 C          34.4368  -50.9556  -53.6125 C.2       3 UNK         0.4908 
     56 O          34.4438  -51.9006  -52.8222 O.2       3 UNK        -0.5102 
     57 CA         35.7156  -50.6370  -54.3964 C.3       3 UNK         0.0241 
     58 CB         35.5611  -50.9727  -55.8901 C.3       3 UNK        -0.1971 
     59 N          36.0793  -49.2323  -54.2236 N.am      3 UNK        -0.4139 
     60 C          36.8085  -48.7657  -53.1995 C.2       2 UNK         0.5016 
     61 O          37.3203  -49.4858  -52.3409 O.2       2 UNK        -0.5319 
     62 CA         37.0222  -47.2441  -53.1085 C.3       2 UNK         0.0286 
     63 CB         38.4159  -46.8656  -53.6362 C.3       2 UNK        -0.1963 
     64 N          36.0140  -46.4652  -53.8292 N.am      2 UNK        -0.4790 
     65 C          34.7487  -46.2847  -53.4224 C.2       1 UNK         0.5024 
     66 O          34.2938  -46.7407  -52.3732 O.2       1 UNK        -0.4888 
     67 H67        33.3471  -47.3998  -58.3618 H         1 UNK         0.0892 
     68 H68        34.3297  -45.9333  -58.3167 H         1 UNK         0.0892 
     69 H69        35.1000  -47.5164  -58.1878 H         1 UNK         0.0892 
     70 H70        34.1265  -44.8924  -56.3573 H         1 UNK         0.3107 
     71 H71        32.8111  -45.7233  -54.1357 H         1 UNK         0.0773 
     72 H72        33.7658  -43.7585  -52.9871 H         1 UNK         0.0680 
     73 H73        35.0930  -43.6695  -54.1123 H         1 UNK         0.0680 
     74 H74        31.8267  -40.9281  -54.3852 H         1 UNK         0.0650 
     75 H75        32.7652  -41.5785  -53.0679 H         1 UNK         0.0650 
     76 H76        31.7132  -43.1577  -51.5339 H         1 UNK         0.1397 
     77 H77        27.7057  -44.4890  -52.3103 H         1 UNK         0.1363 
     78 H78        29.8389  -42.2566  -55.2811 H         1 UNK         0.1355 
     79 H79        27.6029  -42.8865  -55.7260 H         1 UNK         0.0707 
     80 H80        26.5658  -43.1547  -54.3462 H         1 UNK         0.0707 
     81 H81        28.9890  -46.7197  -55.9503 H         1 UNK         0.1034 
     82 H82        29.5954  -45.1148  -55.7067 H         1 UNK         0.1034 
     83 H83        28.5391  -44.4162  -57.9093 H         1 UNK         0.0482 
     84 H84        31.9632  -44.8302  -58.7477 H         1 UNK         0.3460 
     85 H85        30.7416  -43.7539  -58.1280 H         1 UNK         0.3460 
     86 H86        27.2498  -46.9079  -57.7472 H         1 UNK         0.2989 
     87 H87        26.1281  -47.0486  -61.1586 H         1 UNK         0.0559 
     88 H88        27.7259  -48.8730  -60.7157 H         1 UNK         0.0848 
     89 H89        26.0830  -49.4169  -60.4158 H         1 UNK         0.0848 
     90 H90        27.1498  -49.0394  -59.0668 H         1 UNK         0.0848 
     91 H91        25.1976  -47.5685  -58.3772 H         1 UNK         0.3144 
     92 H92        22.9092  -44.9986  -58.4704 H         1 UNK         0.0727 
     93 H93        20.9119  -46.4934  -58.2756 H         1 UNK         0.0790 
     94 H94        21.7702  -47.7533  -59.1636 H         1 UNK         0.0790 
     95 H95        21.3903  -46.2303  -59.9444 H         1 UNK         0.0790 
     96 H96        23.6269  -45.7264  -56.5481 H         1 UNK         0.3215 
     97 H97        24.3360  -46.8272  -54.8960 H         1 UNK         0.0863 
     98 H98        23.1057  -48.1748  -53.2296 H         1 UNK         0.0808 
     99 H99        22.4426  -49.2052  -54.4995 H         1 UNK         0.0808 
    100 H100       21.9713  -47.5148  -54.3955 H         1 UNK         0.0808 
    101 H101       25.0453  -49.3018  -54.1525 H         1 UNK         0.3118 
    102 H102       26.8436  -50.5110  -54.5478 H         1 UNK         0.0546 
    103 H103       27.3547  -51.0017  -56.9606 H         1 UNK         0.0828 
    104 H104       28.7675  -51.1902  -55.9340 H         1 UNK         0.0828 
    105 H105       28.5987  -49.7596  -56.9499 H         1 UNK         0.0828 
    106 H106       29.2072  -48.8949  -54.7727 H         1 UNK         0.3005 
    107 H107       29.5814  -46.9577  -53.1492 H         1 UNK         0.1257 
    108 H108       28.6355  -47.9514  -50.4091 H         1 UNK         0.0775 
    109 H109       28.0446  -46.5170  -51.1949 H         1 UNK         0.0775 
    110 H110       28.6360  -44.5115  -49.9939 H         1 UNK         0.0840 
    111 H111       30.2470  -43.9261  -49.6915 H         1 UNK         0.0840 
    112 H112       30.3865  -49.2906  -51.5297 H         1 UNK         0.2987 
    113 H113       32.3002  -50.3707  -52.0478 H         1 UNK         0.0785 
    114 H114       31.8789  -52.4612  -53.3553 H         1 UNK         0.0798 
    115 H115       31.1893  -51.5266  -54.6804 H         1 UNK         0.0798 
    116 H116       30.3605  -51.6170  -53.1333 H         1 UNK         0.0798 
    117 H117       33.4407  -49.3833  -54.4773 H         1 UNK         0.3079 
    118 H118       36.5174  -51.2661  -54.0028 H         1 UNK         0.0794 
    119 H119       35.3401  -52.0320  -56.0266 H         1 UNK         0.0786 
    120 H120       36.4782  -50.7599  -56.4396 H         1 UNK         0.0786 
    121 H121       34.7530  -50.4120  -56.3598 H         1 UNK         0.0786 
    122 H122       35.6138  -48.5714  -54.8381 H         1 UNK         0.3032 
    123 H123       36.9715  -46.9748  -52.0508 H         1 UNK         0.1094 
    124 H124       38.5260  -47.1037  -54.6950 H         1 UNK         0.0794 
    125 H125       38.6143  -45.8013  -53.5074 H         1 UNK         0.0794 
    126 H126       39.1967  -47.4054  -53.0984 H         1 UNK         0.0794 
    127 H127       36.2952  -46.0555  -54.7087 H         1 UNK         0.3016 
@<TRIPOS>BOND
     1    1    2 1    
     2    1   67 1    
     3    1   68 1    
     4    1   69 1    
     5    2    3 2    
     6    2    4 am   BACKBONE|DICT|INTERRES
     7    4    5 1    
     8    4   70 1    
     9    5    6 1    
    10    5   65 1    
    11    5   71 1    
    12    6    7 1    
    13    6   72 1    
    14    6   73 1    
    15    7    8 1    
    16    8    9 1    
    17    8   74 1    
    18    8   75 1    
    19    9   10 ar   
    20    9   14 ar   
    21   10   11 ar   
    22   10   76 1    
    23   11   12 ar   
    24   11   48 1    
    25   12   13 ar   
    26   12   77 1    
    27   13   14 ar   
    28   13   15 1    
    29   14   78 1    
    30   15   16 1    
    31   15   79 1    
    32   15   80 1    
    33   16   17 1    
    34   17   18 1    
    35   17   81 1    
    36   17   82 1    
    37   18   19 1    
    38   18   22 1    
    39   18   83 1    
    40   19   20 am   BACKBONE|DICT|INTERRES
    41   19   21 2    
    42   20   84 1    
    43   20   85 1    
    44   22   23 am   BACKBONE|DICT|INTERRES
    45   22   86 1    
    46   23   24 2    
    47   23   25 1    
    48   25   26 1    
    49   25   27 1    
    50   25   87 1    
    51   26   88 1    
    52   26   89 1    
    53   26   90 1    
    54   27   28 am   BACKBONE|DICT|INTERRES
    55   27   91 1    
    56   28   29 2    
    57   28   30 1    
    58   30   31 1    
    59   30   32 1    
    60   30   92 1    
    61   31   93 1    
    62   31   94 1    
    63   31   95 1    
    64   32   33 am   BACKBONE|DICT|INTERRES
    65   32   96 1    
    66   33   34 2    
    67   33   35 1    
    68   35   36 1    
    69   35   37 1    
    70   35   97 1    
    71   36   98 1    
    72   36   99 1    
    73   36  100 1    
    74   37   38 am   BACKBONE|DICT|INTERRES
    75   37  101 1    
    76   38   39 2    
    77   38   40 1    
    78   40   41 1    
    79   40   42 1    
    80   40  102 1    
    81   41  103 1    
    82   41  104 1    
    83   41  105 1    
    84   42   43 am   BACKBONE|DICT|INTERRES
    85   42  106 1    
    86   43   44 2    
    87   43   45 1    
    88   45   46 1    
    89   45   49 1    
    90   45  107 1    
    91   46   47 1    
    92   46  108 1    
    93   46  109 1    
    94   47   48 1    
    95   48  110 1    
    96   48  111 1    
    97   49   50 am   BACKBONE|DICT|INTERRES
    98   49  112 1    
    99   50   51 2    
   100   50   52 1    
   101   52   53 1    
   102   52   54 1    
   103   52  113 1    
   104   53  114 1    
   105   53  115 1    
   106   53  116 1    
   107   54   55 am   BACKBONE|DICT|INTERRES
   108   54  117 1    
   109   55   56 2    
   110   55   57 1    
   111   57   58 1    
   112   57   59 1    
   113   57  118 1    
   114   58  119 1    
   115   58  120 1    
   116   58  121 1    
   117   59   60 am   BACKBONE|DICT|INTERRES
   118   59  122 1    
   119   60   61 2    
   120   60   62 1    
   121   62   63 1    
   122   62   64 1    
   123   62  123 1    
   124   63  124 1    
   125   63  125 1    
   126   63  126 1    
   127   64   65 am   BACKBONE|DICT|INTERRES
   128   64  127 1    
   129   65   66 2    
@<TRIPOS>SUBSTRUCTURE
     1 UNK         1 GROUP             0       ****    0 ROOT    
