@<TRIPOS>MOLECULE
3R134
127   129    1
SMALL
USER_CHARGES


@<TRIPOS>ATOM
      1 CA         29.7881  -44.8192  -53.1991 C.3       0 UNK        -0.1968 
      2 C          31.1227  -45.0334  -52.5042 C.2       0 UNK         0.4852 
      3 O          31.1526  -45.4724  -51.3531 O.2       0 UNK        -0.5359 
      4 N          32.2272  -44.7173  -53.1927 N.am      1 UNK        -0.4300 
      5 CA         33.6011  -44.9153  -52.7217 C.3       1 UNK         0.0863 
      6 C6         34.6223  -44.0579  -53.5111 C.3       11 UNK        -0.0953 
      7 S7         34.3744  -42.2701  -53.2443 S.3       11 UNK        -0.2369 
      8 C8         33.9693  -41.6818  -54.9181 C.3       11 UNK         0.0226 
      9 C9         32.5802  -42.1221  -55.3543 C.ar      11 UNK        -0.0699 
     10 C10        32.4230  -43.2044  -56.2231 C.ar      11 UNK        -0.0804 
     11 C11        31.1465  -43.6169  -56.6257 C.ar      11 UNK        -0.0871 
     12 C12        30.0308  -42.9123  -56.1611 C.ar      11 UNK        -0.1008 
     13 C13        30.1700  -41.8117  -55.3053 C.ar      11 UNK        -0.0735 
     14 C14        31.4530  -41.4332  -54.9001 C.ar      11 UNK        -0.0945 
     15 C15        28.9717  -41.0190  -54.7768 C.3       11 UNK         0.0169 
     16 S16        27.4819  -41.0611  -55.8391 S.3       11 UNK        -0.2669 
     17 C17        26.2806  -41.8888  -54.7396 C.3       11 UNK        -0.0850 
     18 CA         26.4142  -43.4334  -54.7708 C.3       10 UNK         0.0855 
     19 C          25.5974  -44.1102  -53.6315 C.2       10 UNK         0.5543 
     20 N          24.7313  -45.0756  -53.9133 N.am      10 UNK        -0.7343 
     21 O          25.7629  -43.7599  -52.4660 O.2       10 UNK        -0.5027 
     22 N          26.1428  -43.9801  -56.1132 N.am      10 UNK        -0.4495 
     23 C          26.7882  -45.0281  -56.6333 C.2       10 UNK         0.4903 
     24 O          27.7114  -45.6068  -56.0669 O.2       10 UNK        -0.4860 
     25 CA         26.3646  -45.4719  -58.0356 C.3       9 UNK         0.0227 
     26 CB         26.9728  -44.5413  -59.1027 C.3       9 UNK        -0.1964 
     27 N          26.8011  -46.8493  -58.2684 N.am      9 UNK        -0.4231 
     28 C          26.2682  -47.6793  -59.1747 C.2       9 UNK         0.5014 
     29 O          25.3146  -47.3794  -59.8952 O.2       9 UNK        -0.5270 
     30 CA         26.8968  -49.0728  -59.3232 C.3       8 UNK         0.0284 
     31 CB         28.1915  -48.9932  -60.1509 C.3       8 UNK        -0.1977 
     32 N          27.1859  -49.6863  -58.0266 N.am      8 UNK        -0.4342 
     33 C          26.4434  -50.6390  -57.4455 C.2       8 UNK         0.5039 
     34 O          25.4121  -51.0963  -57.9411 O.2       8 UNK        -0.5547 
     35 CA         26.9279  -51.2088  -56.0962 C.3       7 UNK         0.0281 
     36 CB         27.6442  -52.5518  -56.3126 C.3       7 UNK        -0.1963 
     37 N          27.8160  -50.3130  -55.3533 N.am      7 UNK        -0.4444 
     38 C          27.4371  -49.1523  -54.8010 C.2       7 UNK         0.5104 
     39 O          26.2724  -48.7541  -54.7779 O.2       7 UNK        -0.5100 
     40 CA         28.5485  -48.2738  -54.2000 C.3       6 UNK         0.0396 
     41 CB         28.7113  -48.5681  -52.7025 C.3       6 UNK        -0.1801 
     42 N          29.8509  -48.3823  -54.8736 N.am      6 UNK        -0.4747 
     43 C          30.0800  -48.1820  -56.1834 C.2       6 UNK         0.5012 
     44 O          29.1947  -47.9780  -57.0130 O.2       6 UNK        -0.5003 
     45 CA         31.5357  -48.2692  -56.6646 C.3       5 UNK         0.0782 
     46 C46        32.3123  -46.9525  -56.3983 C.3       11 UNK        -0.0868 
     47 S47        32.3443  -45.8844  -57.8764 S.3       11 UNK        -0.2515 
     48 C48        30.9172  -44.7785  -57.5951 C.3       11 UNK         0.0199 
     49 N          32.1834  -49.4455  -56.0827 N.am      5 UNK        -0.4607 
     50 C          32.2211  -50.6435  -56.6845 C.2       4 UNK         0.5031 
     51 O          31.7966  -50.8536  -57.8210 O.2       4 UNK        -0.5119 
     52 CA         32.8212  -51.8192  -55.8942 C.3       4 UNK         0.0263 
     53 CB         34.3258  -51.9465  -56.1823 C.3       4 UNK        -0.1967 
     54 N          32.6123  -51.7288  -54.4489 N.am      4 UNK        -0.4237 
     55 C          31.4185  -51.7252  -53.8393 C.2       3 UNK         0.4908 
     56 O          30.3390  -51.8116  -54.4261 O.2       3 UNK        -0.5102 
     57 CA         31.4368  -51.5516  -52.3115 C.3       3 UNK         0.0241 
     58 CB         31.6005  -52.9159  -51.6222 C.3       3 UNK        -0.1971 
     59 N          32.4607  -50.6242  -51.8093 N.am      3 UNK        -0.4139 
     60 C          32.6558  -49.3612  -52.2186 C.2       2 UNK         0.5016 
     61 O          32.0402  -48.8407  -53.1529 O.2       2 UNK        -0.5319 
     62 CA         33.7202  -48.5673  -51.4408 C.3       2 UNK         0.0286 
     63 CB         35.1431  -49.1017  -51.7115 C.3       2 UNK        -0.1963 
     64 N          33.6239  -47.1190  -51.6701 N.am      2 UNK        -0.4790 
     65 C          33.9598  -46.4152  -52.7611 C.2       1 UNK         0.5024 
     66 O          34.5049  -46.8877  -53.7601 O.2       1 UNK        -0.4888 
     67 H67        29.8373  -45.1143  -54.2473 H         1 UNK         0.0892 
     68 H68        29.0060  -45.4096  -52.7229 H         1 UNK         0.0892 
     69 H69        29.5014  -43.7702  -53.1432 H         1 UNK         0.0892 
     70 H70        32.1391  -44.3208  -54.1184 H         1 UNK         0.3107 
     71 H71        33.6512  -44.5945  -51.6785 H         1 UNK         0.0773 
     72 H72        34.5871  -44.2905  -54.5764 H         1 UNK         0.0680 
     73 H73        35.6390  -44.2898  -53.1879 H         1 UNK         0.0680 
     74 H74        34.7285  -42.0280  -55.6213 H         1 UNK         0.0650 
     75 H75        34.0224  -40.5921  -54.9278 H         1 UNK         0.0650 
     76 H76        33.3042  -43.7135  -56.5862 H         1 UNK         0.1397 
     77 H77        29.0474  -43.2251  -56.4788 H         1 UNK         0.1363 
     78 H78        31.5792  -40.5942  -54.2291 H         1 UNK         0.1355 
     79 H79        28.7360  -41.3836  -53.7767 H         1 UNK         0.0707 
     80 H80        29.2550  -39.9720  -54.6574 H         1 UNK         0.0707 
     81 H81        26.4104  -41.4995  -53.7278 H         1 UNK         0.1034 
     82 H82        25.2746  -41.5918  -55.0407 H         1 UNK         0.1034 
     83 H83        27.4528  -43.6518  -54.5197 H         1 UNK         0.0482 
     84 H84        24.2154  -45.5108  -53.1651 H         1 UNK         0.3460 
     85 H85        24.6063  -45.3889  -54.8620 H         1 UNK         0.3460 
     86 H86        25.4013  -43.5386  -56.6370 H         1 UNK         0.2989 
     87 H87        25.2748  -45.4276  -58.0882 H         1 UNK         0.0559 
     88 H88        26.6842  -43.5030  -58.9342 H         1 UNK         0.0848 
     89 H89        26.6364  -44.8091  -60.1044 H         1 UNK         0.0848 
     90 H90        28.0625  -44.5819  -59.0944 H         1 UNK         0.0848 
     91 H91        27.5785  -47.1566  -57.6846 H         1 UNK         0.3144 
     92 H92        26.1917  -49.6946  -59.8792 H         1 UNK         0.0727 
     93 H93        28.6222  -49.9824  -60.3067 H         1 UNK         0.0790 
     94 H94        28.9480  -48.3722  -59.6698 H         1 UNK         0.0790 
     95 H95        27.9979  -48.5652  -61.1354 H         1 UNK         0.0790 
     96 H96        27.9864  -49.3093  -57.5252 H         1 UNK         0.3215 
     97 H97        26.0421  -51.3882  -55.4830 H         1 UNK         0.0863 
     98 H98        27.9086  -53.0174  -55.3629 H         1 UNK         0.0808 
     99 H99        28.5610  -52.4301  -56.8914 H         1 UNK         0.0808 
    100 H100       27.0070  -53.2547  -56.8510 H         1 UNK         0.0808 
    101 H101       28.7863  -50.5967  -55.2636 H         1 UNK         0.3118 
    102 H102       28.2288  -47.2374  -54.2876 H         1 UNK         0.0546 
    103 H103       28.9506  -49.6148  -52.5273 H         1 UNK         0.0828 
    104 H104       27.7876  -48.3534  -52.1636 H         1 UNK         0.0828 
    105 H105       29.4972  -47.9595  -52.2544 H         1 UNK         0.0828 
    106 H106       30.6503  -48.5632  -54.2669 H         1 UNK         0.3005 
    107 H107       31.4870  -48.4152  -57.7466 H         1 UNK         0.1257 
    108 H108       33.3545  -47.1752  -56.1651 H         1 UNK         0.0775 
    109 H109       31.9335  -46.4031  -55.5346 H         1 UNK         0.0775 
    110 H110       30.6281  -44.3569  -58.5584 H         1 UNK         0.0840 
    111 H111       30.0694  -45.3762  -57.2604 H         1 UNK         0.0840 
    112 H112       32.4943  -49.3592  -55.1213 H         1 UNK         0.2987 
    113 H113       32.3271  -52.7297  -56.2404 H         1 UNK         0.0785 
    114 H114       34.5110  -52.0409  -57.2534 H         1 UNK         0.0798 
    115 H115       34.7494  -52.8298  -55.7039 H         1 UNK         0.0798 
    116 H116       34.8795  -51.0744  -55.8317 H         1 UNK         0.0798 
    117 H117       33.4377  -51.6408  -53.8747 H         1 UNK         0.3079 
    118 H118       30.4682  -51.1492  -52.0175 H         1 UNK         0.0794 
    119 H119       31.4935  -52.8307  -50.5406 H         1 UNK         0.0786 
    120 H120       32.5744  -53.3611  -51.8300 H         1 UNK         0.0786 
    121 H121       30.8406  -53.6201  -51.9647 H         1 UNK         0.0786 
    122 H122       33.0206  -50.9651  -51.0408 H         1 UNK         0.3032 
    123 H123       33.5051  -48.7071  -50.3799 H         1 UNK         0.1094 
    124 H124       35.3790  -49.1207  -52.7760 H         1 UNK         0.0794 
    125 H125       35.8974  -48.4936  -51.2120 H         1 UNK         0.0794 
    126 H126       35.2580  -50.1210  -51.3416 H         1 UNK         0.0794 
    127 H127       33.0730  -46.6206  -50.9808 H         1 UNK         0.3016 
@<TRIPOS>BOND
     1    1    2 1    
     2    1   67 1    
     3    1   68 1    
     4    1   69 1    
     5    2    3 2    
     6    2    4 am   BACKBONE|DICT|INTERRES
     7    4    5 1    
     8    4   70 1    
     9    5    6 1    
    10    5   65 1    
    11    5   71 1    
    12    6    7 1    
    13    6   72 1    
    14    6   73 1    
    15    7    8 1    
    16    8    9 1    
    17    8   74 1    
    18    8   75 1    
    19    9   10 ar   
    20    9   14 ar   
    21   10   11 ar   
    22   10   76 1    
    23   11   12 ar   
    24   11   48 1    
    25   12   13 ar   
    26   12   77 1    
    27   13   14 ar   
    28   13   15 1    
    29   14   78 1    
    30   15   16 1    
    31   15   79 1    
    32   15   80 1    
    33   16   17 1    
    34   17   18 1    
    35   17   81 1    
    36   17   82 1    
    37   18   19 1    
    38   18   22 1    
    39   18   83 1    
    40   19   20 am   BACKBONE|DICT|INTERRES
    41   19   21 2    
    42   20   84 1    
    43   20   85 1    
    44   22   23 am   BACKBONE|DICT|INTERRES
    45   22   86 1    
    46   23   24 2    
    47   23   25 1    
    48   25   26 1    
    49   25   27 1    
    50   25   87 1    
    51   26   88 1    
    52   26   89 1    
    53   26   90 1    
    54   27   28 am   BACKBONE|DICT|INTERRES
    55   27   91 1    
    56   28   29 2    
    57   28   30 1    
    58   30   31 1    
    59   30   32 1    
    60   30   92 1    
    61   31   93 1    
    62   31   94 1    
    63   31   95 1    
    64   32   33 am   BACKBONE|DICT|INTERRES
    65   32   96 1    
    66   33   34 2    
    67   33   35 1    
    68   35   36 1    
    69   35   37 1    
    70   35   97 1    
    71   36   98 1    
    72   36   99 1    
    73   36  100 1    
    74   37   38 am   BACKBONE|DICT|INTERRES
    75   37  101 1    
    76   38   39 2    
    77   38   40 1    
    78   40   41 1    
    79   40   42 1    
    80   40  102 1    
    81   41  103 1    
    82   41  104 1    
    83   41  105 1    
    84   42   43 am   BACKBONE|DICT|INTERRES
    85   42  106 1    
    86   43   44 2    
    87   43   45 1    
    88   45   46 1    
    89   45   49 1    
    90   45  107 1    
    91   46   47 1    
    92   46  108 1    
    93   46  109 1    
    94   47   48 1    
    95   48  110 1    
    96   48  111 1    
    97   49   50 am   BACKBONE|DICT|INTERRES
    98   49  112 1    
    99   50   51 2    
   100   50   52 1    
   101   52   53 1    
   102   52   54 1    
   103   52  113 1    
   104   53  114 1    
   105   53  115 1    
   106   53  116 1    
   107   54   55 am   BACKBONE|DICT|INTERRES
   108   54  117 1    
   109   55   56 2    
   110   55   57 1    
   111   57   58 1    
   112   57   59 1    
   113   57  118 1    
   114   58  119 1    
   115   58  120 1    
   116   58  121 1    
   117   59   60 am   BACKBONE|DICT|INTERRES
   118   59  122 1    
   119   60   61 2    
   120   60   62 1    
   121   62   63 1    
   122   62   64 1    
   123   62  123 1    
   124   63  124 1    
   125   63  125 1    
   126   63  126 1    
   127   64   65 am   BACKBONE|DICT|INTERRES
   128   64  127 1    
   129   65   66 2    
@<TRIPOS>SUBSTRUCTURE
     1 UNK         1 GROUP             0       ****    0 ROOT    
