@<TRIPOS>MOLECULE
3R134
127   129    1
SMALL
USER_CHARGES


@<TRIPOS>ATOM
      1 CA         28.9398  -47.1003  -50.0119 C.3       0 UNK        -0.1968 
      2 C          30.3551  -46.5787  -49.8096 C.2       0 UNK         0.4852 
      3 O          30.9873  -46.9050  -48.8044 O.2       0 UNK        -0.5359 
      4 N          30.8461  -45.7671  -50.7567 N.am      1 UNK        -0.4300 
      5 CA         32.1809  -45.1509  -50.7743 C.3       1 UNK         0.0863 
      6 C6         32.3626  -44.2078  -51.9907 C.3       11 UNK        -0.0953 
      7 S7         31.0047  -43.0048  -52.1796 S.3       11 UNK        -0.2369 
      8 C8         31.5668  -42.0581  -53.6284 C.3       11 UNK         0.0226 
      9 C9         31.6662  -42.9155  -54.8834 C.ar      11 UNK        -0.0699 
     10 C10        32.9144  -43.3497  -55.3408 C.ar      11 UNK        -0.0804 
     11 C11        33.0255  -44.1079  -56.5107 C.ar      11 UNK        -0.0871 
     12 C12        31.8661  -44.4122  -57.2342 C.ar      11 UNK        -0.1008 
     13 C13        30.6095  -44.0042  -56.7771 C.ar      11 UNK        -0.0735 
     14 C14        30.5150  -43.2572  -55.5991 C.ar      11 UNK        -0.0945 
     15 C15        29.3538  -44.4005  -57.5390 C.3       11 UNK         0.0169 
     16 S16        28.5672  -42.9764  -58.3456 S.3       11 UNK        -0.2669 
     17 C17        27.1681  -43.7953  -59.1837 C.3       11 UNK        -0.0850 
     18 CA         25.8622  -43.7720  -58.3463 C.3       10 UNK         0.0855 
     19 C          24.6487  -44.1463  -59.2374 C.2       10 UNK         0.5543 
     20 N          24.2939  -45.4182  -59.3663 N.am      10 UNK        -0.7343 
     21 O          24.0193  -43.2668  -59.8201 O.2       10 UNK        -0.5027 
     22 N          25.9577  -44.6371  -57.1588 N.am      10 UNK        -0.4495 
     23 C          25.7663  -44.2374  -55.8937 C.2       10 UNK         0.4903 
     24 O          25.5392  -43.0696  -55.5731 O.2       10 UNK        -0.4860 
     25 CA         25.8588  -45.3209  -54.7936 C.3       9 UNK         0.0227 
     26 CB         25.1797  -44.9003  -53.4734 C.3       9 UNK        -0.1964 
     27 N          25.3824  -46.6409  -55.2243 N.am      9 UNK        -0.4231 
     28 C          24.1715  -46.9520  -55.7174 C.2       9 UNK         0.5014 
     29 O          23.2197  -46.1700  -55.7423 O.2       9 UNK        -0.5270 
     30 CA         24.0086  -48.3712  -56.3105 C.3       8 UNK         0.0284 
     31 CB         22.9430  -48.4290  -57.4252 C.3       8 UNK        -0.1977 
     32 N          25.2682  -48.9710  -56.7788 N.am      8 UNK        -0.4342 
     33 C          26.1407  -48.4515  -57.6559 C.2       8 UNK         0.5039 
     34 O          25.9817  -47.3765  -58.2402 O.2       8 UNK        -0.5547 
     35 CA         27.4685  -49.2093  -57.8171 C.3       7 UNK         0.0281 
     36 CB         27.8635  -49.3289  -59.2985 C.3       7 UNK        -0.1963 
     37 N          28.5510  -48.5425  -57.0881 N.am      7 UNK        -0.4444 
     38 C          28.5803  -48.2554  -55.7804 C.2       7 UNK         0.5104 
     39 O          27.6802  -48.5617  -54.9958 O.2       7 UNK        -0.5100 
     40 CA         29.8017  -47.4650  -55.2720 C.3       6 UNK         0.0396 
     41 CB         29.7806  -47.2500  -53.7497 C.3       6 UNK        -0.1801 
     42 N          31.0964  -48.0356  -55.6518 N.am      6 UNK        -0.4747 
     43 C          31.6593  -47.9708  -56.8667 C.2       6 UNK         0.5012 
     44 O          31.0674  -47.5622  -57.8672 O.2       6 UNK        -0.5003 
     45 CA         33.1189  -48.4373  -56.9909 C.3       5 UNK         0.0782 
     46 C46        34.1110  -47.3353  -56.5310 C.3       11 UNK        -0.0868 
     47 S47        34.4705  -46.1415  -57.8633 S.3       11 UNK        -0.2515 
     48 C48        34.4127  -44.5391  -56.9875 C.3       11 UNK         0.0199 
     49 N          33.3415  -49.6928  -56.2664 N.am      5 UNK        -0.4607 
     50 C          33.6172  -50.8656  -56.8552 C.2       4 UNK         0.5031 
     51 O          33.6237  -51.0290  -58.0759 O.2       4 UNK        -0.5119 
     52 CA         33.9898  -52.0616  -55.9582 C.3       4 UNK         0.0263 
     53 CB         35.4981  -52.3478  -56.0549 C.3       4 UNK        -0.1967 
     54 N          33.6388  -51.8725  -54.5507 N.am      4 UNK        -0.4237 
     55 C          32.4162  -52.0643  -54.0399 C.2       3 UNK         0.4908 
     56 O          31.4546  -52.4689  -54.6941 O.2       3 UNK        -0.5102 
     57 CA         32.2283  -51.7357  -52.5468 C.3       3 UNK         0.0241 
     58 CB         32.3977  -53.0041  -51.6945 C.3       3 UNK        -0.1971 
     59 N          33.1094  -50.6793  -52.0263 N.am      3 UNK        -0.4139 
     60 C          33.1471  -49.4243  -52.4915 C.2       2 UNK         0.5016 
     61 O          32.5394  -49.0459  -53.4963 O.2       2 UNK        -0.5319 
     62 CA         33.9948  -48.4063  -51.7294 C.3       2 UNK         0.0286 
     63 CB         35.2924  -48.0861  -52.4935 C.3       2 UNK        -0.1963 
     64 N          33.1597  -47.2196  -51.6123 N.am      2 UNK        -0.4790 
     65 C          33.3106  -46.2022  -50.7588 C.2       1 UNK         0.5024 
     66 O          34.2594  -46.0844  -49.9822 O.2       1 UNK        -0.4888 
     67 H67        28.4456  -46.6260  -50.8595 H         1 UNK         0.0892 
     68 H68        28.9585  -48.1757  -50.1868 H         1 UNK         0.0892 
     69 H69        28.3386  -46.9096  -49.1232 H         1 UNK         0.0892 
     70 H70        30.2483  -45.4893  -51.5210 H         1 UNK         0.3107 
     71 H71        32.2721  -44.5567  -49.8627 H         1 UNK         0.0773 
     72 H72        33.3017  -43.6573  -51.9070 H         1 UNK         0.0680 
     73 H73        32.4249  -44.7868  -52.9140 H         1 UNK         0.0680 
     74 H74        32.5273  -41.5929  -53.4011 H         1 UNK         0.0650 
     75 H75        30.8674  -41.2397  -53.8048 H         1 UNK         0.0650 
     76 H76        33.8048  -43.0877  -54.7855 H         1 UNK         0.1397 
     77 H77        31.9357  -44.9832  -58.1496 H         1 UNK         0.1363 
     78 H78        29.5455  -42.9342  -55.2448 H         1 UNK         0.1355 
     79 H79        28.6439  -44.8505  -56.8469 H         1 UNK         0.0707 
     80 H80        29.5821  -45.1614  -58.2873 H         1 UNK         0.0707 
     81 H81        27.0216  -43.2697  -60.1297 H         1 UNK         0.1034 
     82 H82        27.4369  -44.8191  -59.4524 H         1 UNK         0.1034 
     83 H83        25.6959  -42.7388  -58.0355 H         1 UNK         0.0482 
     84 H84        24.8476  -46.1583  -58.9392 H         1 UNK         0.3460 
     85 H85        23.5035  -45.6516  -59.9445 H         1 UNK         0.3460 
     86 H86        26.0686  -45.6275  -57.3541 H         1 UNK         0.2989 
     87 H87        26.9233  -45.4418  -54.5883 H         1 UNK         0.0559 
     88 H88        25.6272  -43.9892  -53.0745 H         1 UNK         0.0848 
     89 H89        24.1155  -44.7064  -53.6110 H         1 UNK         0.0848 
     90 H90        25.2848  -45.6709  -52.7099 H         1 UNK         0.0848 
     91 H91        26.0830  -47.3775  -55.2191 H         1 UNK         0.3144 
     92 H92        23.6597  -48.9973  -55.4880 H         1 UNK         0.0727 
     93 H93        22.8140  -49.4454  -57.7971 H         1 UNK         0.0790 
     94 H94        23.2083  -47.7954  -58.2710 H         1 UNK         0.0790 
     95 H95        21.9710  -48.0949  -57.0603 H         1 UNK         0.0790 
     96 H96        25.5373  -49.8231  -56.3047 H         1 UNK         0.3215 
     97 H97        27.3577  -50.2164  -57.4104 H         1 UNK         0.0863 
     98 H98        27.0760  -49.8169  -59.8742 H         1 UNK         0.0808 
     99 H99        28.0393  -48.3513  -59.7501 H         1 UNK         0.0808 
    100 H100       28.7703  -49.9214  -59.4211 H         1 UNK         0.0808 
    101 H101       29.3465  -48.2231  -57.6362 H         1 UNK         0.3118 
    102 H102       29.7375  -46.4782  -55.7243 H         1 UNK         0.0546 
    103 H103       28.8582  -46.7621  -53.4328 H         1 UNK         0.0828 
    104 H104       30.6070  -46.6110  -53.4431 H         1 UNK         0.0828 
    105 H105       29.8583  -48.1938  -53.2082 H         1 UNK         0.0828 
    106 H106       31.6387  -48.4348  -54.8864 H         1 UNK         0.3005 
    107 H107       33.2867  -48.6100  -58.0567 H         1 UNK         0.1257 
    108 H108       35.0669  -47.7835  -56.2548 H         1 UNK         0.0775 
    109 H109       33.7582  -46.8206  -55.6344 H         1 UNK         0.0775 
    110 H110       35.1066  -44.5847  -56.1465 H         1 UNK         0.0840 
    111 H111       34.7952  -43.7685  -57.6580 H         1 UNK         0.0840 
    112 H112       33.2790  -49.6459  -55.2554 H         1 UNK         0.2987 
    113 H113       33.4547  -52.9337  -56.3407 H         1 UNK         0.0785 
    114 H114       35.7955  -52.5347  -57.0878 H         1 UNK         0.0798 
    115 H115       35.7727  -53.2308  -55.4774 H         1 UNK         0.0798 
    116 H116       36.0933  -51.5089  -55.6919 H         1 UNK         0.0798 
    117 H117       34.3697  -51.5459  -53.9357 H         1 UNK         0.3079 
    118 H118       31.2013  -51.3830  -52.4291 H         1 UNK         0.0794 
    119 H119       31.7369  -53.8000  -52.0417 H         1 UNK         0.0786 
    120 H120       32.1517  -52.8169  -50.6490 H         1 UNK         0.0786 
    121 H121       33.4184  -53.3865  -51.7375 H         1 UNK         0.0786 
    122 H122       33.6515  -50.9118  -51.2061 H         1 UNK         0.3032 
    123 H123       34.2285  -48.7857  -50.7321 H         1 UNK         0.1094 
    124 H124       35.8970  -47.3517  -51.9612 H         1 UNK         0.0794 
    125 H125       35.9048  -48.9801  -52.6164 H         1 UNK         0.0794 
    126 H126       35.0872  -47.6895  -53.4887 H         1 UNK         0.0794 
    127 H127       32.3432  -47.2437  -52.2090 H         1 UNK         0.3016 
@<TRIPOS>BOND
     1    1    2 1    
     2    1   67 1    
     3    1   68 1    
     4    1   69 1    
     5    2    3 2    
     6    2    4 am   BACKBONE|DICT|INTERRES
     7    4    5 1    
     8    4   70 1    
     9    5    6 1    
    10    5   65 1    
    11    5   71 1    
    12    6    7 1    
    13    6   72 1    
    14    6   73 1    
    15    7    8 1    
    16    8    9 1    
    17    8   74 1    
    18    8   75 1    
    19    9   10 ar   
    20    9   14 ar   
    21   10   11 ar   
    22   10   76 1    
    23   11   12 ar   
    24   11   48 1    
    25   12   13 ar   
    26   12   77 1    
    27   13   14 ar   
    28   13   15 1    
    29   14   78 1    
    30   15   16 1    
    31   15   79 1    
    32   15   80 1    
    33   16   17 1    
    34   17   18 1    
    35   17   81 1    
    36   17   82 1    
    37   18   19 1    
    38   18   22 1    
    39   18   83 1    
    40   19   20 am   BACKBONE|DICT|INTERRES
    41   19   21 2    
    42   20   84 1    
    43   20   85 1    
    44   22   23 am   BACKBONE|DICT|INTERRES
    45   22   86 1    
    46   23   24 2    
    47   23   25 1    
    48   25   26 1    
    49   25   27 1    
    50   25   87 1    
    51   26   88 1    
    52   26   89 1    
    53   26   90 1    
    54   27   28 am   BACKBONE|DICT|INTERRES
    55   27   91 1    
    56   28   29 2    
    57   28   30 1    
    58   30   31 1    
    59   30   32 1    
    60   30   92 1    
    61   31   93 1    
    62   31   94 1    
    63   31   95 1    
    64   32   33 am   BACKBONE|DICT|INTERRES
    65   32   96 1    
    66   33   34 2    
    67   33   35 1    
    68   35   36 1    
    69   35   37 1    
    70   35   97 1    
    71   36   98 1    
    72   36   99 1    
    73   36  100 1    
    74   37   38 am   BACKBONE|DICT|INTERRES
    75   37  101 1    
    76   38   39 2    
    77   38   40 1    
    78   40   41 1    
    79   40   42 1    
    80   40  102 1    
    81   41  103 1    
    82   41  104 1    
    83   41  105 1    
    84   42   43 am   BACKBONE|DICT|INTERRES
    85   42  106 1    
    86   43   44 2    
    87   43   45 1    
    88   45   46 1    
    89   45   49 1    
    90   45  107 1    
    91   46   47 1    
    92   46  108 1    
    93   46  109 1    
    94   47   48 1    
    95   48  110 1    
    96   48  111 1    
    97   49   50 am   BACKBONE|DICT|INTERRES
    98   49  112 1    
    99   50   51 2    
   100   50   52 1    
   101   52   53 1    
   102   52   54 1    
   103   52  113 1    
   104   53  114 1    
   105   53  115 1    
   106   53  116 1    
   107   54   55 am   BACKBONE|DICT|INTERRES
   108   54  117 1    
   109   55   56 2    
   110   55   57 1    
   111   57   58 1    
   112   57   59 1    
   113   57  118 1    
   114   58  119 1    
   115   58  120 1    
   116   58  121 1    
   117   59   60 am   BACKBONE|DICT|INTERRES
   118   59  122 1    
   119   60   61 2    
   120   60   62 1    
   121   62   63 1    
   122   62   64 1    
   123   62  123 1    
   124   63  124 1    
   125   63  125 1    
   126   63  126 1    
   127   64   65 am   BACKBONE|DICT|INTERRES
   128   64  127 1    
   129   65   66 2    
@<TRIPOS>SUBSTRUCTURE
     1 UNK         1 GROUP             0       ****    0 ROOT    
