@<TRIPOS>MOLECULE
3R134
127   129    1
SMALL
USER_CHARGES


@<TRIPOS>ATOM
      1 CA         35.7843  -47.2654  -47.3571 C.3       0 UNK        -0.1968 
      2 C          34.8426  -46.6908  -48.4050 C.2       0 UNK         0.4852 
      3 O          33.6279  -46.8625  -48.2909 O.2       0 UNK        -0.5359 
      4 N          35.3952  -46.0212  -49.4274 N.am      1 UNK        -0.4300 
      5 CA         34.7141  -45.3706  -50.5567 C.3       1 UNK         0.0863 
      6 C6         33.6923  -44.2804  -50.1195 C.3       11 UNK        -0.0953 
      7 S7         33.2776  -43.1025  -51.4534 S.3       11 UNK        -0.2369 
      8 C8         31.6574  -43.7378  -52.0025 C.3       11 UNK         0.0226 
      9 C9         31.4308  -43.5164  -53.4930 C.ar      11 UNK        -0.0699 
     10 C10        32.2923  -44.1074  -54.4199 C.ar      11 UNK        -0.0804 
     11 C11        32.0932  -43.9454  -55.7914 C.ar      11 UNK        -0.0871 
     12 C12        31.0208  -43.1741  -56.2420 C.ar      11 UNK        -0.1008 
     13 C13        30.1385  -42.5869  -55.3289 C.ar      11 UNK        -0.0735 
     14 C14        30.3483  -42.7601  -53.9550 C.ar      11 UNK        -0.0945 
     15 C15        28.9646  -41.7574  -55.8287 C.3       11 UNK         0.0169 
     16 S16        27.5325  -42.7996  -56.2500 S.3       11 UNK        -0.2669 
     17 C17        28.0696  -43.5364  -57.8345 C.3       11 UNK        -0.0850 
     18 CA         26.8855  -44.0671  -58.6850 C.3       10 UNK         0.0855 
     19 C          27.3486  -44.5632  -60.0867 C.2       10 UNK         0.5543 
     20 N          26.9050  -45.7180  -60.5721 N.am      10 UNK        -0.7343 
     21 O          28.1154  -43.8781  -60.7590 O.2       10 UNK        -0.5027 
     22 N          26.1129  -45.0773  -57.9498 N.am      10 UNK        -0.4495 
     23 C          24.7786  -45.1403  -57.8983 C.2       10 UNK         0.4903 
     24 O          24.0307  -44.3209  -58.4354 O.2       10 UNK        -0.4860 
     25 CA         24.1841  -46.3230  -57.1110 C.3       9 UNK         0.0227 
     26 CB         22.6863  -46.5515  -57.4071 C.3       9 UNK        -0.1964 
     27 N          24.9396  -47.5710  -57.2730 N.am      9 UNK        -0.4231 
     28 C          25.1731  -48.2469  -58.4102 C.2       9 UNK         0.5014 
     29 O          24.8153  -47.8457  -59.5190 O.2       9 UNK        -0.5270 
     30 CA         25.9457  -49.5825  -58.3195 C.3       8 UNK         0.0284 
     31 CB         27.0612  -49.6524  -59.3780 C.3       8 UNK        -0.1977 
     32 N          26.5334  -49.8395  -57.0028 N.am      8 UNK        -0.4342 
     33 C          25.8764  -50.2458  -55.9088 C.2       8 UNK         0.5039 
     34 O          24.6860  -50.5584  -55.8995 O.2       8 UNK        -0.5547 
     35 CA         26.6667  -50.2219  -54.5888 C.3       7 UNK         0.0281 
     36 CB         27.3818  -51.5612  -54.3475 C.3       7 UNK        -0.1963 
     37 N          27.6363  -49.1203  -54.5415 N.am      7 UNK        -0.4444 
     38 C          27.3079  -47.8206  -54.4749 C.2       7 UNK         0.5104 
     39 O          26.1487  -47.4132  -54.4060 O.2       7 UNK        -0.5100 
     40 CA         28.4636  -46.8057  -54.5357 C.3       6 UNK         0.0396 
     41 CB         29.0573  -46.5884  -53.1384 C.3       6 UNK        -0.1801 
     42 N          29.5201  -47.2052  -55.4715 N.am      6 UNK        -0.4747 
     43 C          29.3582  -47.2352  -56.8019 C.2       6 UNK         0.5012 
     44 O          28.3109  -46.9117  -57.3636 O.2       6 UNK        -0.5003 
     45 CA         30.5306  -47.7731  -57.6475 C.3       5 UNK         0.0782 
     46 C46        31.5541  -46.6655  -58.0176 C.3       11 UNK        -0.0868 
     47 S47        32.8737  -46.4056  -56.7774 S.3       11 UNK        -0.2515 
     48 C48        33.0560  -44.5957  -56.7704 C.3       11 UNK         0.0199 
     49 N          31.1712  -48.9658  -57.0774 N.am      5 UNK        -0.4607 
     50 C          30.5678  -50.1193  -56.7725 C.2       4 UNK         0.5031 
     51 O          29.3621  -50.3051  -56.9264 O.2       4 UNK        -0.5119 
     52 CA         31.4193  -51.2524  -56.1681 C.3       4 UNK         0.0263 
     53 CB         31.8925  -52.2259  -57.2644 C.3       4 UNK        -0.1967 
     54 N          32.5339  -50.8149  -55.3114 N.am      4 UNK        -0.4237 
     55 C          33.6602  -50.1666  -55.6412 C.2       3 UNK         0.4908 
     56 O          33.9359  -49.8197  -56.7902 O.2       3 UNK        -0.5102 
     57 CA         34.6024  -49.8021  -54.4748 C.3       3 UNK         0.0241 
     58 CB         35.9001  -49.1240  -54.9528 C.3       3 UNK        -0.1971 
     59 N          33.9421  -48.9189  -53.5103 N.am      3 UNK        -0.4139 
     60 C          33.0258  -49.2812  -52.6069 C.2       2 UNK         0.5016 
     61 O          32.6860  -50.4541  -52.4345 O.2       2 UNK        -0.5319 
     62 CA         32.3352  -48.1499  -51.8163 C.3       2 UNK         0.0286 
     63 CB         31.2602  -48.6826  -50.8496 C.3       2 UNK        -0.1963 
     64 N          33.2312  -47.2677  -51.0628 N.am      2 UNK        -0.4790 
     65 C          34.0990  -46.3750  -51.5549 C.2       1 UNK         0.5024 
     66 O          34.4003  -46.3023  -52.7458 O.2       1 UNK        -0.4888 
     67 H67        36.8290  -47.0580  -47.5877 H         1 UNK         0.0892 
     68 H68        35.5616  -46.8382  -46.3798 H         1 UNK         0.0892 
     69 H69        35.6592  -48.3459  -47.2932 H         1 UNK         0.0892 
     70 H70        36.4034  -45.9523  -49.4590 H         1 UNK         0.3107 
     71 H71        35.5150  -44.8617  -51.0962 H         1 UNK         0.0773 
     72 H72        34.1184  -43.6916  -49.3059 H         1 UNK         0.0680 
     73 H73        32.7808  -44.7224  -49.7134 H         1 UNK         0.0680 
     74 H74        30.8735  -43.2626  -51.4110 H         1 UNK         0.0650 
     75 H75        31.5886  -44.8070  -51.8018 H         1 UNK         0.0650 
     76 H76        33.1275  -44.6970  -54.0757 H         1 UNK         0.1397 
     77 H77        30.8703  -43.0337  -57.3031 H         1 UNK         0.1363 
     78 H78        29.6660  -42.3091  -53.2476 H         1 UNK         0.1355 
     79 H79        28.6608  -41.0432  -55.0619 H         1 UNK         0.0707 
     80 H80        29.2607  -41.1621  -56.6937 H         1 UNK         0.0707 
     81 H81        28.6203  -42.7787  -58.3946 H         1 UNK         0.1034 
     82 H82        28.7779  -44.3377  -57.6244 H         1 UNK         0.1034 
     83 H83        26.2416  -43.2103  -58.8907 H         1 UNK         0.0482 
     84 H84        26.2442  -46.2806  -60.0519 H         1 UNK         0.3460 
     85 H85        27.2100  -46.0169  -61.4843 H         1 UNK         0.3460 
     86 H86        26.6679  -45.8187  -57.5331 H         1 UNK         0.2989 
     87 H87        24.2719  -46.0543  -56.0574 H         1 UNK         0.0559 
     88 H88        22.5116  -46.7737  -58.4603 H         1 UNK         0.0848 
     89 H89        22.0983  -45.6667  -57.1600 H         1 UNK         0.0848 
     90 H90        22.2871  -47.3778  -56.8190 H         1 UNK         0.0848 
     91 H91        25.3183  -47.9507  -56.4142 H         1 UNK         0.3144 
     92 H92        25.2287  -50.3778  -58.5322 H         1 UNK         0.0727 
     93 H93        27.7776  -48.8395  -59.2594 H         1 UNK         0.0790 
     94 H94        26.6526  -49.5809  -60.3868 H         1 UNK         0.0790 
     95 H95        27.6089  -50.5933  -59.3183 H         1 UNK         0.0790 
     96 H96        27.5368  -49.6926  -56.9237 H         1 UNK         0.3215 
     97 H97        25.9495  -50.0706  -53.7788 H         1 UNK         0.0863 
     98 H98        27.9129  -51.5632  -53.3955 H         1 UNK         0.0808 
     99 H99        28.1001  -51.7896  -55.1348 H         1 UNK         0.0808 
    100 H100       26.6640  -52.3821  -54.3183 H         1 UNK         0.0808 
    101 H101       28.6095  -49.3642  -54.6483 H         1 UNK         0.3118 
    102 H102       28.0567  -45.8516  -54.8797 H         1 UNK         0.0546 
    103 H103       28.3095  -46.1757  -52.4600 H         1 UNK         0.0828 
    104 H104       29.8889  -45.8870  -53.1676 H         1 UNK         0.0828 
    105 H105       29.4097  -47.5217  -52.7019 H         1 UNK         0.0828 
    106 H106       30.4175  -47.4666  -55.0913 H         1 UNK         0.3005 
    107 H107       30.0739  -48.1027  -58.5834 H         1 UNK         0.1257 
    108 H108       31.0490  -45.7216  -58.2328 H         1 UNK         0.0775 
    109 H109       32.0521  -46.9426  -58.9480 H         1 UNK         0.0775 
    110 H110       34.0776  -44.3502  -56.4764 H         1 UNK         0.0840 
    111 H111       32.9283  -44.2012  -57.7796 H         1 UNK         0.0840 
    112 H112       32.1785  -48.9161  -56.9584 H         1 UNK         0.2987 
    113 H113       30.7531  -51.8098  -55.5076 H         1 UNK         0.0785 
    114 H114       31.0429  -52.6300  -57.8166 H         1 UNK         0.0798 
    115 H115       32.4331  -53.0710  -56.8382 H         1 UNK         0.0798 
    116 H116       32.5457  -51.7401  -57.9897 H         1 UNK         0.0798 
    117 H117       32.4057  -50.9881  -54.3171 H         1 UNK         0.3079 
    118 H118       34.8754  -50.7324  -53.9721 H         1 UNK         0.0794 
    119 H119       35.6977  -48.1765  -55.4546 H         1 UNK         0.0786 
    120 H120       36.4381  -49.7598  -55.6572 H         1 UNK         0.0786 
    121 H121       36.5728  -48.9234  -54.1187 H         1 UNK         0.0786 
    122 H122       34.1766  -47.9294  -53.5573 H         1 UNK         0.3032 
    123 H123       31.8328  -47.5319  -52.5624 H         1 UNK         0.1094 
    124 H124       31.7013  -49.2833  -50.0531 H         1 UNK         0.0794 
    125 H125       30.7045  -47.8677  -50.3848 H         1 UNK         0.0794 
    126 H126       30.5349  -49.3115  -51.3678 H         1 UNK         0.0794 
    127 H127       33.1184  -47.2647  -50.0507 H         1 UNK         0.3016 
@<TRIPOS>BOND
     1    1    2 1    
     2    1   67 1    
     3    1   68 1    
     4    1   69 1    
     5    2    3 2    
     6    2    4 am   BACKBONE|DICT|INTERRES
     7    4    5 1    
     8    4   70 1    
     9    5    6 1    
    10    5   65 1    
    11    5   71 1    
    12    6    7 1    
    13    6   72 1    
    14    6   73 1    
    15    7    8 1    
    16    8    9 1    
    17    8   74 1    
    18    8   75 1    
    19    9   10 ar   
    20    9   14 ar   
    21   10   11 ar   
    22   10   76 1    
    23   11   12 ar   
    24   11   48 1    
    25   12   13 ar   
    26   12   77 1    
    27   13   14 ar   
    28   13   15 1    
    29   14   78 1    
    30   15   16 1    
    31   15   79 1    
    32   15   80 1    
    33   16   17 1    
    34   17   18 1    
    35   17   81 1    
    36   17   82 1    
    37   18   19 1    
    38   18   22 1    
    39   18   83 1    
    40   19   20 am   BACKBONE|DICT|INTERRES
    41   19   21 2    
    42   20   84 1    
    43   20   85 1    
    44   22   23 am   BACKBONE|DICT|INTERRES
    45   22   86 1    
    46   23   24 2    
    47   23   25 1    
    48   25   26 1    
    49   25   27 1    
    50   25   87 1    
    51   26   88 1    
    52   26   89 1    
    53   26   90 1    
    54   27   28 am   BACKBONE|DICT|INTERRES
    55   27   91 1    
    56   28   29 2    
    57   28   30 1    
    58   30   31 1    
    59   30   32 1    
    60   30   92 1    
    61   31   93 1    
    62   31   94 1    
    63   31   95 1    
    64   32   33 am   BACKBONE|DICT|INTERRES
    65   32   96 1    
    66   33   34 2    
    67   33   35 1    
    68   35   36 1    
    69   35   37 1    
    70   35   97 1    
    71   36   98 1    
    72   36   99 1    
    73   36  100 1    
    74   37   38 am   BACKBONE|DICT|INTERRES
    75   37  101 1    
    76   38   39 2    
    77   38   40 1    
    78   40   41 1    
    79   40   42 1    
    80   40  102 1    
    81   41  103 1    
    82   41  104 1    
    83   41  105 1    
    84   42   43 am   BACKBONE|DICT|INTERRES
    85   42  106 1    
    86   43   44 2    
    87   43   45 1    
    88   45   46 1    
    89   45   49 1    
    90   45  107 1    
    91   46   47 1    
    92   46  108 1    
    93   46  109 1    
    94   47   48 1    
    95   48  110 1    
    96   48  111 1    
    97   49   50 am   BACKBONE|DICT|INTERRES
    98   49  112 1    
    99   50   51 2    
   100   50   52 1    
   101   52   53 1    
   102   52   54 1    
   103   52  113 1    
   104   53  114 1    
   105   53  115 1    
   106   53  116 1    
   107   54   55 am   BACKBONE|DICT|INTERRES
   108   54  117 1    
   109   55   56 2    
   110   55   57 1    
   111   57   58 1    
   112   57   59 1    
   113   57  118 1    
   114   58  119 1    
   115   58  120 1    
   116   58  121 1    
   117   59   60 am   BACKBONE|DICT|INTERRES
   118   59  122 1    
   119   60   61 2    
   120   60   62 1    
   121   62   63 1    
   122   62   64 1    
   123   62  123 1    
   124   63  124 1    
   125   63  125 1    
   126   63  126 1    
   127   64   65 am   BACKBONE|DICT|INTERRES
   128   64  127 1    
   129   65   66 2    
@<TRIPOS>SUBSTRUCTURE
     1 UNK         1 GROUP             0       ****    0 ROOT    
