@<TRIPOS>MOLECULE
3R134
127   129    1
SMALL
USER_CHARGES


@<TRIPOS>ATOM
      1 CA         34.5546  -47.1573  -58.1991 C.3       0 UNK        -0.1968 
      2 C          34.0005  -46.7699  -56.8367 C.2       0 UNK         0.4852 
      3 O          32.8131  -46.9691  -56.5892 O.2       0 UNK        -0.5359 
      4 N          34.8482  -46.2173  -55.9604 N.am      1 UNK        -0.4300 
      5 CA         34.5285  -45.8317  -54.5831 C.3       1 UNK         0.0863 
      6 C6         35.4251  -44.6362  -54.1537 C.3       11 UNK        -0.0953 
      7 S7         35.0461  -43.9246  -52.5157 S.3       11 UNK        -0.2369 
      8 C8         33.9239  -42.5528  -52.9314 C.3       11 UNK         0.0226 
      9 C9         32.4864  -42.9966  -53.1818 C.ar      11 UNK        -0.0699 
     10 C10        31.8262  -43.8321  -52.2720 C.ar      11 UNK        -0.0804 
     11 C11        30.4792  -44.1554  -52.4543 C.ar      11 UNK        -0.0871 
     12 C12        29.7886  -43.6176  -53.5406 C.ar      11 UNK        -0.1008 
     13 C13        30.4382  -42.8152  -54.4821 C.ar      11 UNK        -0.0735 
     14 C14        31.7905  -42.5093  -54.2940 C.ar      11 UNK        -0.0945 
     15 C15        29.6816  -42.2434  -55.6789 C.3       11 UNK         0.0169 
     16 S16        28.7597  -43.5106  -56.6160 S.3       11 UNK        -0.2669 
     17 C17        27.1433  -43.5435  -55.7520 C.3       11 UNK        -0.0850 
     18 CA         25.9066  -43.5919  -56.6855 C.3       10 UNK         0.0855 
     19 C          25.8582  -42.3923  -57.6811 C.2       10 UNK         0.5543 
     20 N          25.9341  -42.6088  -58.9888 N.am      10 UNK        -0.7343 
     21 O          25.7383  -41.2467  -57.2535 O.2       10 UNK        -0.5027 
     22 N          25.7203  -44.9348  -57.2643 N.am      10 UNK        -0.4495 
     23 C          24.5876  -45.3546  -57.8481 C.2       10 UNK         0.4903 
     24 O          23.5771  -44.6605  -57.9640 O.2       10 UNK        -0.4860 
     25 CA         24.5636  -46.7898  -58.3959 C.3       9 UNK         0.0227 
     26 CB         25.1009  -46.8182  -59.8346 C.3       9 UNK        -0.1964 
     27 N          25.2983  -47.7401  -57.5541 N.am      9 UNK        -0.4231 
     28 C          24.8454  -48.1944  -56.3739 C.2       9 UNK         0.5014 
     29 O          23.7665  -47.8414  -55.8929 O.2       9 UNK        -0.5270 
     30 CA         25.7155  -49.1906  -55.5745 C.3       8 UNK         0.0284 
     31 CB         24.8719  -50.2887  -54.8924 C.3       8 UNK        -0.1977 
     32 N          26.8315  -49.7833  -56.3179 N.am      8 UNK        -0.4342 
     33 C          26.7951  -50.5738  -57.3991 C.2       8 UNK         0.5039 
     34 O          25.7592  -50.9841  -57.9254 O.2       8 UNK        -0.5547 
     35 CA         28.1718  -50.9108  -58.0104 C.3       7 UNK         0.0281 
     36 CB         28.0720  -51.6256  -59.3750 C.3       7 UNK        -0.1963 
     37 N          29.0345  -49.7218  -58.1002 N.am      7 UNK        -0.4444 
     38 C          28.7633  -48.5814  -58.7535 C.2       7 UNK         0.5104 
     39 O          27.7693  -48.4200  -59.4593 O.2       7 UNK        -0.5100 
     40 CA         29.7453  -47.4147  -58.5318 C.3       6 UNK         0.0396 
     41 CB         29.2297  -46.0809  -59.1088 C.3       6 UNK        -0.1801 
     42 N          30.1260  -47.2591  -57.1230 N.am      6 UNK        -0.4747 
     43 C          29.3259  -47.0574  -56.0640 C.2       6 UNK         0.5012 
     44 O          28.1039  -46.9090  -56.1428 O.2       6 UNK        -0.5003 
     45 CA         30.0284  -47.1042  -54.6855 C.3       5 UNK         0.0782 
     46 C46        29.0493  -46.9601  -53.4879 C.3       11 UNK        -0.0868 
     47 S47        29.9437  -46.8267  -51.8968 S.3       11 UNK        -0.2515 
     48 C48        29.7557  -45.0645  -51.4707 C.3       11 UNK         0.0199 
     49 N          30.8838  -48.2952  -54.5576 N.am      5 UNK        -0.4607 
     50 C          30.4935  -49.5722  -54.6780 C.2       4 UNK         0.5031 
     51 O          29.3563  -49.9228  -54.9911 O.2       4 UNK        -0.5119 
     52 CA         31.5534  -50.6429  -54.3986 C.3       4 UNK         0.0263 
     53 CB         32.5496  -50.7491  -55.5660 C.3       4 UNK        -0.1967 
     54 N          32.2643  -50.3601  -53.1512 N.am      4 UNK        -0.4237 
     55 C          31.7985  -50.6713  -51.9303 C.2       3 UNK         0.4908 
     56 O          30.7377  -51.2700  -51.7459 O.2       3 UNK        -0.5102 
     57 CA         32.6527  -50.2849  -50.7059 C.3       3 UNK         0.0241 
     58 CB         32.8550  -51.4869  -49.7646 C.3       3 UNK        -0.1971 
     59 N          33.9655  -49.7749  -51.1033 N.am      3 UNK        -0.4139 
     60 C          34.3806  -48.5115  -50.9600 C.2       2 UNK         0.5016 
     61 O          33.7601  -47.6447  -50.3420 O.2       2 UNK        -0.5319 
     62 CA         35.6982  -48.1278  -51.6643 C.3       2 UNK         0.0286 
     63 CB         36.4539  -49.3163  -52.3044 C.3       2 UNK        -0.1963 
     64 N          35.4789  -47.0769  -52.6656 N.am      2 UNK        -0.4790 
     65 C          34.5965  -47.0865  -53.6775 C.2       1 UNK         0.5024 
     66 O          33.8499  -48.0404  -53.9107 O.2       1 UNK        -0.4888 
     67 H67        35.6109  -46.9079  -58.2977 H         1 UNK         0.0892 
     68 H68        34.4421  -48.2297  -58.3559 H         1 UNK         0.0892 
     69 H69        34.0079  -46.6384  -58.9859 H         1 UNK         0.0892 
     70 H70        35.8163  -46.1069  -56.2256 H         1 UNK         0.3107 
     71 H71        33.4916  -45.4891  -54.5531 H         1 UNK         0.0773 
     72 H72        36.4774  -44.9261  -54.1605 H         1 UNK         0.0680 
     73 H73        35.3433  -43.8391  -54.8944 H         1 UNK         0.0680 
     74 H74        33.9194  -41.8521  -52.0955 H         1 UNK         0.0650 
     75 H75        34.3239  -42.0034  -53.7849 H         1 UNK         0.0650 
     76 H76        32.3567  -44.2200  -51.4129 H         1 UNK         0.1397 
     77 H77        28.7396  -43.8353  -53.6519 H         1 UNK         0.1363 
     78 H78        32.2953  -41.8630  -54.9991 H         1 UNK         0.1355 
     79 H79        29.0101  -41.4517  -55.3448 H         1 UNK         0.0707 
     80 H80        30.3814  -41.7716  -56.3702 H         1 UNK         0.0707 
     81 H81        27.0629  -42.6735  -55.0984 H         1 UNK         0.1034 
     82 H82        27.1231  -44.4102  -55.0903 H         1 UNK         0.1034 
     83 H83        25.0410  -43.4424  -56.0369 H         1 UNK         0.0482 
     84 H84        26.0337  -43.5459  -59.3423 H         1 UNK         0.3460 
     85 H85        25.8975  -41.8273  -59.6236 H         1 UNK         0.3460 
     86 H86        26.5030  -45.5716  -57.1796 H         1 UNK         0.2989 
     87 H87        23.5210  -47.1135  -58.4313 H         1 UNK         0.0559 
     88 H88        26.1193  -46.4342  -59.8960 H         1 UNK         0.0848 
     89 H89        24.4844  -46.2027  -60.4911 H         1 UNK         0.0848 
     90 H90        25.0977  -47.8295  -60.2418 H         1 UNK         0.0848 
     91 H91        26.1940  -48.0671  -57.8970 H         1 UNK         0.3144 
     92 H92        26.1801  -48.5989  -54.7845 H         1 UNK         0.0727 
     93 H93        25.4975  -50.9619  -54.3062 H         1 UNK         0.0790 
     94 H94        24.3236  -50.8872  -55.6204 H         1 UNK         0.0790 
     95 H95        24.1391  -49.8560  -54.2103 H         1 UNK         0.0790 
     96 H96        27.7537  -49.5571  -55.9489 H         1 UNK         0.3215 
     97 H97        28.6565  -51.5953  -57.3122 H         1 UNK         0.0863 
     98 H98        29.0588  -51.8635  -59.7717 H         1 UNK         0.0808 
     99 H99        27.5497  -51.0183  -60.1149 H         1 UNK         0.0808 
    100 H100       27.5247  -52.5645  -59.2829 H         1 UNK         0.0808 
    101 H101       29.8512  -49.7288  -57.5058 H         1 UNK         0.3118 
    102 H102       30.6587  -47.6755  -59.0679 H         1 UNK         0.0546 
    103 H103       28.2931  -45.7746  -58.6437 H         1 UNK         0.0828 
    104 H104       29.0490  -46.1611  -60.1812 H         1 UNK         0.0828 
    105 H105       29.9539  -45.2800  -58.9613 H         1 UNK         0.0828 
    106 H106       31.1297  -47.3084  -56.9337 H         1 UNK         0.3005 
    107 H107       30.6970  -46.2411  -54.6732 H         1 UNK         0.1257 
    108 H108       28.3965  -46.0968  -53.6128 H         1 UNK         0.0775 
    109 H109       28.3849  -47.8240  -53.4335 H         1 UNK         0.0775 
    110 H110       28.6950  -44.8132  -51.4228 H         1 UNK         0.0840 
    111 H111       30.1485  -44.9040  -50.4655 H         1 UNK         0.0840 
    112 H112       31.8619  -48.1122  -54.3576 H         1 UNK         0.2987 
    113 H113       31.0442  -51.6050  -54.3064 H         1 UNK         0.0785 
    114 H114       33.2931  -51.5245  -55.3816 H         1 UNK         0.0798 
    115 H115       33.0804  -49.8127  -55.7410 H         1 UNK         0.0798 
    116 H116       32.0357  -51.0080  -56.4925 H         1 UNK         0.0798 
    117 H117       33.0791  -49.7602  -53.2293 H         1 UNK         0.3079 
    118 H118       32.0923  -49.5185  -50.1662 H         1 UNK         0.0794 
    119 H119       31.9000  -51.8669  -49.3993 H         1 UNK         0.0786 
    120 H120       33.4447  -51.2093  -48.8907 H         1 UNK         0.0786 
    121 H121       33.3648  -52.3108  -50.2656 H         1 UNK         0.0786 
    122 H122       34.5529  -50.4118  -51.6233 H         1 UNK         0.3032 
    123 H123       36.3400  -47.7014  -50.8913 H         1 UNK         0.1094 
    124 H124       36.6850  -50.0853  -51.5660 H         1 UNK         0.0794 
    125 H125       35.8896  -49.7820  -53.1133 H         1 UNK         0.0794 
    126 H126       37.4058  -48.9880  -52.7223 H         1 UNK         0.0794 
    127 H127       35.9853  -46.2150  -52.5099 H         1 UNK         0.3016 
@<TRIPOS>BOND
     1    1    2 1    
     2    1   67 1    
     3    1   68 1    
     4    1   69 1    
     5    2    3 2    
     6    2    4 am   BACKBONE|DICT|INTERRES
     7    4    5 1    
     8    4   70 1    
     9    5    6 1    
    10    5   65 1    
    11    5   71 1    
    12    6    7 1    
    13    6   72 1    
    14    6   73 1    
    15    7    8 1    
    16    8    9 1    
    17    8   74 1    
    18    8   75 1    
    19    9   10 ar   
    20    9   14 ar   
    21   10   11 ar   
    22   10   76 1    
    23   11   12 ar   
    24   11   48 1    
    25   12   13 ar   
    26   12   77 1    
    27   13   14 ar   
    28   13   15 1    
    29   14   78 1    
    30   15   16 1    
    31   15   79 1    
    32   15   80 1    
    33   16   17 1    
    34   17   18 1    
    35   17   81 1    
    36   17   82 1    
    37   18   19 1    
    38   18   22 1    
    39   18   83 1    
    40   19   20 am   BACKBONE|DICT|INTERRES
    41   19   21 2    
    42   20   84 1    
    43   20   85 1    
    44   22   23 am   BACKBONE|DICT|INTERRES
    45   22   86 1    
    46   23   24 2    
    47   23   25 1    
    48   25   26 1    
    49   25   27 1    
    50   25   87 1    
    51   26   88 1    
    52   26   89 1    
    53   26   90 1    
    54   27   28 am   BACKBONE|DICT|INTERRES
    55   27   91 1    
    56   28   29 2    
    57   28   30 1    
    58   30   31 1    
    59   30   32 1    
    60   30   92 1    
    61   31   93 1    
    62   31   94 1    
    63   31   95 1    
    64   32   33 am   BACKBONE|DICT|INTERRES
    65   32   96 1    
    66   33   34 2    
    67   33   35 1    
    68   35   36 1    
    69   35   37 1    
    70   35   97 1    
    71   36   98 1    
    72   36   99 1    
    73   36  100 1    
    74   37   38 am   BACKBONE|DICT|INTERRES
    75   37  101 1    
    76   38   39 2    
    77   38   40 1    
    78   40   41 1    
    79   40   42 1    
    80   40  102 1    
    81   41  103 1    
    82   41  104 1    
    83   41  105 1    
    84   42   43 am   BACKBONE|DICT|INTERRES
    85   42  106 1    
    86   43   44 2    
    87   43   45 1    
    88   45   46 1    
    89   45   49 1    
    90   45  107 1    
    91   46   47 1    
    92   46  108 1    
    93   46  109 1    
    94   47   48 1    
    95   48  110 1    
    96   48  111 1    
    97   49   50 am   BACKBONE|DICT|INTERRES
    98   49  112 1    
    99   50   51 2    
   100   50   52 1    
   101   52   53 1    
   102   52   54 1    
   103   52  113 1    
   104   53  114 1    
   105   53  115 1    
   106   53  116 1    
   107   54   55 am   BACKBONE|DICT|INTERRES
   108   54  117 1    
   109   55   56 2    
   110   55   57 1    
   111   57   58 1    
   112   57   59 1    
   113   57  118 1    
   114   58  119 1    
   115   58  120 1    
   116   58  121 1    
   117   59   60 am   BACKBONE|DICT|INTERRES
   118   59  122 1    
   119   60   61 2    
   120   60   62 1    
   121   62   63 1    
   122   62   64 1    
   123   62  123 1    
   124   63  124 1    
   125   63  125 1    
   126   63  126 1    
   127   64   65 am   BACKBONE|DICT|INTERRES
   128   64  127 1    
   129   65   66 2    
@<TRIPOS>SUBSTRUCTURE
     1 UNK         1 GROUP             0       ****    0 ROOT    
