@<TRIPOS>MOLECULE
3R134
127   129    1
SMALL
USER_CHARGES


@<TRIPOS>ATOM
      1 CA         37.3205  -44.0606  -51.2030 C.3       0 UNK        -0.1968 
      2 C          36.8414  -44.3856  -52.6103 C.2       0 UNK         0.4852 
      3 O          37.5520  -44.1053  -53.5767 O.2       0 UNK        -0.5359 
      4 N          35.6424  -44.9730  -52.7321 N.am      1 UNK        -0.4300 
      5 CA         35.0283  -45.3668  -54.0072 C.3       1 UNK         0.0863 
      6 C6         33.5014  -45.5999  -53.8432 C.3       11 UNK        -0.0953 
      7 S7         32.5863  -45.3122  -55.3954 S.3       11 UNK        -0.2369 
      8 C8         31.7274  -43.7459  -55.0486 C.3       11 UNK         0.0226 
      9 C9         30.3404  -43.9813  -54.4684 C.ar      11 UNK        -0.0699 
     10 C10        30.1494  -44.0892  -53.0871 C.ar      11 UNK        -0.0804 
     11 C11        28.8683  -44.2921  -52.5625 C.ar      11 UNK        -0.0871 
     12 C12        27.7733  -44.3642  -53.4288 C.ar      11 UNK        -0.1008 
     13 C13        27.9539  -44.2730  -54.8103 C.ar      11 UNK        -0.0735 
     14 C14        29.2399  -44.0844  -55.3238 C.ar      11 UNK        -0.0945 
     15 C15        26.7643  -44.4316  -55.7444 C.3       11 UNK         0.0169 
     16 S16        25.8643  -42.8726  -56.0210 S.3       11 UNK        -0.2669 
     17 C17        26.9710  -41.9547  -57.1494 C.3       11 UNK        -0.0850 
     18 CA         26.5221  -42.0248  -58.6429 C.3       10 UNK         0.0855 
     19 C          27.2772  -41.0231  -59.5740 C.2       10 UNK         0.5543 
     20 N          27.5684  -39.8140  -59.1115 N.am      10 UNK        -0.7343 
     21 O          27.5562  -41.3050  -60.7385 O.2       10 UNK        -0.5027 
     22 N          26.4999  -43.4021  -59.1718 N.am      10 UNK        -0.4495 
     23 C          27.5624  -44.2009  -59.3353 C.2       10 UNK         0.4903 
     24 O          28.7168  -43.8994  -59.0226 O.2       10 UNK        -0.4860 
     25 CA         27.2898  -45.5741  -59.9655 C.3       9 UNK         0.0227 
     26 CB         27.5896  -45.5405  -61.4731 C.3       9 UNK        -0.1964 
     27 N          28.1359  -46.5831  -59.3275 N.am      9 UNK        -0.4231 
     28 C          27.7832  -47.3026  -58.2557 C.2       9 UNK         0.5014 
     29 O          26.6607  -47.2734  -57.7453 O.2       9 UNK        -0.5270 
     30 CA         28.8961  -48.1606  -57.6271 C.3       8 UNK         0.0284 
     31 CB         29.7044  -47.3284  -56.6191 C.3       8 UNK        -0.1977 
     32 N          28.3806  -49.3436  -56.9390 N.am      8 UNK        -0.4342 
     33 C          27.7617  -50.3772  -57.5237 C.2       8 UNK         0.5039 
     34 O          27.5872  -50.4778  -58.7394 O.2       8 UNK        -0.5547 
     35 CA         27.2703  -51.5005  -56.5992 C.3       7 UNK         0.0281 
     36 CB         28.4146  -52.4836  -56.2981 C.3       7 UNK        -0.1963 
     37 N          26.7389  -50.9749  -55.3389 N.am      7 UNK        -0.4444 
     38 C          25.4408  -50.7452  -55.0959 C.2       7 UNK         0.5104 
     39 O          24.5453  -50.9532  -55.9155 O.2       7 UNK        -0.5100 
     40 CA         25.0572  -50.2290  -53.6946 C.3       6 UNK         0.0396 
     41 CB         24.5341  -51.3864  -52.8285 C.3       6 UNK        -0.1801 
     42 N          26.1639  -49.5749  -52.9927 N.am      6 UNK        -0.4747 
     43 C          26.5716  -48.3173  -53.2189 C.2       6 UNK         0.5012 
     44 O          25.9981  -47.5457  -53.9858 O.2       6 UNK        -0.5003 
     45 CA         27.8436  -47.8443  -52.4800 C.3       5 UNK         0.0782 
     46 C46        27.4679  -47.0051  -51.2336 C.3       11 UNK        -0.0868 
     47 S47        28.9159  -46.1600  -50.5102 S.3       11 UNK        -0.2515 
     48 C48        28.6676  -44.4395  -51.0610 C.3       11 UNK         0.0199 
     49 N          28.7628  -48.9406  -52.1374 N.am      5 UNK        -0.4607 
     50 C          29.3579  -49.7473  -53.0227 C.2       4 UNK         0.5031 
     51 O          29.1435  -49.7074  -54.2358 O.2       4 UNK        -0.5119 
     52 CA         30.2879  -50.8308  -52.4592 C.3       4 UNK         0.0263 
     53 CB         29.5284  -52.1597  -52.3125 C.3       4 UNK        -0.1967 
     54 N          31.4406  -51.0255  -53.3392 N.am      4 UNK        -0.4237 
     55 C          32.4460  -50.1495  -53.4461 C.2       3 UNK         0.4908 
     56 O          32.5611  -49.1448  -52.7366 O.2       3 UNK        -0.5102 
     57 CA         33.4921  -50.4335  -54.5302 C.3       3 UNK         0.0241 
     58 CB         32.9526  -50.0618  -55.9255 C.3       3 UNK        -0.1971 
     59 N          34.6649  -49.6290  -54.2159 N.am      3 UNK        -0.4139 
     60 C          35.9087  -49.7712  -54.6834 C.2       2 UNK         0.5016 
     61 O          36.2488  -50.6570  -55.4700 O.2       2 UNK        -0.5319 
     62 CA         36.9430  -48.7473  -54.1653 C.3       2 UNK         0.0286 
     63 CB         38.1462  -48.5715  -55.1170 C.3       2 UNK        -0.1963 
     64 N          36.3405  -47.4482  -53.8184 N.am      2 UNK        -0.4790 
     65 C          35.7189  -46.5929  -54.6503 C.2       1 UNK         0.5024 
     66 O          35.6604  -46.7468  -55.8706 O.2       1 UNK        -0.4888 
     67 H67        36.5954  -44.3572  -50.4453 H         1 UNK         0.0892 
     68 H68        38.2571  -44.5780  -50.9967 H         1 UNK         0.0892 
     69 H69        37.4940  -42.9894  -51.1042 H         1 UNK         0.0892 
     70 H70        35.1017  -45.1696  -51.9015 H         1 UNK         0.3107 
     71 H71        35.1721  -44.5281  -54.6926 H         1 UNK         0.0773 
     72 H72        33.2841  -46.6087  -53.4877 H         1 UNK         0.0680 
     73 H73        33.0980  -44.9337  -53.0805 H         1 UNK         0.0680 
     74 H74        31.6429  -43.1872  -55.9820 H         1 UNK         0.0650 
     75 H75        32.3249  -43.1229  -54.3814 H         1 UNK         0.0650 
     76 H76        30.9968  -44.0234  -52.4192 H         1 UNK         0.1397 
     77 H77        26.7782  -44.5157  -53.0340 H         1 UNK         0.1363 
     78 H78        29.3890  -44.0282  -56.3934 H         1 UNK         0.1355 
     79 H79        26.0701  -45.1626  -55.3276 H         1 UNK         0.0707 
     80 H80        27.0888  -44.8465  -56.6948 H         1 UNK         0.0707 
     81 H81        26.9637  -40.9245  -56.7927 H         1 UNK         0.1034 
     82 H82        28.0006  -42.2902  -57.0374 H         1 UNK         0.1034 
     83 H83        25.4833  -41.6953  -58.6840 H         1 UNK         0.0482 
     84 H84        27.3189  -39.5313  -58.1775 H         1 UNK         0.3460 
     85 H85        28.0369  -39.1615  -59.7209 H         1 UNK         0.3460 
     86 H86        25.5967  -43.7291  -59.4829 H         1 UNK         0.2989 
     87 H87        26.2374  -45.8329  -59.8293 H         1 UNK         0.0559 
     88 H88        26.9610  -44.8063  -61.9791 H         1 UNK         0.0848 
     89 H89        27.3963  -46.5074  -61.9381 H         1 UNK         0.0848 
     90 H90        28.6276  -45.2719  -61.6746 H         1 UNK         0.0848 
     91 H91        29.0967  -46.6147  -59.6379 H         1 UNK         0.3144 
     92 H92        29.5652  -48.5021  -58.4195 H         1 UNK         0.0727 
     93 H93        29.0804  -46.9856  -55.7925 H         1 UNK         0.0790 
     94 H94        30.1362  -46.4453  -57.0915 H         1 UNK         0.0790 
     95 H95        30.5273  -47.9028  -56.1941 H         1 UNK         0.0790 
     96 H96        28.5265  -49.3758  -55.9327 H         1 UNK         0.3215 
     97 H97        26.4890  -52.0501  -57.1291 H         1 UNK         0.0863 
     98 H98        28.0747  -53.3075  -55.6705 H         1 UNK         0.0808 
     99 H99        29.2479  -51.9957  -55.7914 H         1 UNK         0.0808 
    100 H100       28.8049  -52.9182  -57.2194 H         1 UNK         0.0808 
    101 H101       27.4205  -50.7006  -54.6417 H         1 UNK         0.3118 
    102 H102       24.2460  -49.5085  -53.8199 H         1 UNK         0.0546 
    103 H103       25.2987  -52.1465  -52.6626 H         1 UNK         0.0828 
    104 H104       23.6855  -51.8783  -53.3061 H         1 UNK         0.0828 
    105 H105       24.1939  -51.0324  -51.8552 H         1 UNK         0.0828 
    106 H106       26.6799  -50.1329  -52.3279 H         1 UNK         0.3005 
    107 H107       28.3731  -47.1961  -53.1827 H         1 UNK         0.1257 
    108 H108       27.0261  -47.6430  -50.4658 H         1 UNK         0.0775 
    109 H109       26.7050  -46.2623  -51.4715 H         1 UNK         0.0775 
    110 H110       27.6729  -44.0986  -50.7694 H         1 UNK         0.0840 
    111 H111       29.3725  -43.7963  -50.5320 H         1 UNK         0.0840 
    112 H112       28.9908  -49.0318  -51.1577 H         1 UNK         0.2987 
    113 H113       30.6465  -50.5206  -51.4751 H         1 UNK         0.0785 
    114 H114       28.6801  -52.0536  -51.6351 H         1 UNK         0.0798 
    115 H115       30.1707  -52.9393  -51.9024 H         1 UNK         0.0798 
    116 H116       29.1399  -52.5148  -53.2677 H         1 UNK         0.0798 
    117 H117       31.3989  -51.8063  -53.9776 H         1 UNK         0.3079 
    118 H118       33.7602  -51.4915  -54.4973 H         1 UNK         0.0794 
    119 H119       32.0350  -50.6045  -56.1562 H         1 UNK         0.0786 
    120 H120       33.6741  -50.3003  -56.7071 H         1 UNK         0.0786 
    121 H121       32.7290  -48.9963  -55.9947 H         1 UNK         0.0786 
    122 H122       34.4736  -48.9021  -53.5368 H         1 UNK         0.3032 
    123 H123       37.3264  -49.1645  -53.2325 H         1 UNK         0.1094 
    124 H124       38.8554  -47.8401  -54.7295 H         1 UNK         0.0794 
    125 H125       38.6863  -49.5111  -55.2403 H         1 UNK         0.0794 
    126 H126       37.8362  -48.2459  -56.1102 H         1 UNK         0.0794 
    127 H127       36.3462  -47.2142  -52.8350 H         1 UNK         0.3016 
@<TRIPOS>BOND
     1    1    2 1    
     2    1   67 1    
     3    1   68 1    
     4    1   69 1    
     5    2    3 2    
     6    2    4 am   BACKBONE|DICT|INTERRES
     7    4    5 1    
     8    4   70 1    
     9    5    6 1    
    10    5   65 1    
    11    5   71 1    
    12    6    7 1    
    13    6   72 1    
    14    6   73 1    
    15    7    8 1    
    16    8    9 1    
    17    8   74 1    
    18    8   75 1    
    19    9   10 ar   
    20    9   14 ar   
    21   10   11 ar   
    22   10   76 1    
    23   11   12 ar   
    24   11   48 1    
    25   12   13 ar   
    26   12   77 1    
    27   13   14 ar   
    28   13   15 1    
    29   14   78 1    
    30   15   16 1    
    31   15   79 1    
    32   15   80 1    
    33   16   17 1    
    34   17   18 1    
    35   17   81 1    
    36   17   82 1    
    37   18   19 1    
    38   18   22 1    
    39   18   83 1    
    40   19   20 am   BACKBONE|DICT|INTERRES
    41   19   21 2    
    42   20   84 1    
    43   20   85 1    
    44   22   23 am   BACKBONE|DICT|INTERRES
    45   22   86 1    
    46   23   24 2    
    47   23   25 1    
    48   25   26 1    
    49   25   27 1    
    50   25   87 1    
    51   26   88 1    
    52   26   89 1    
    53   26   90 1    
    54   27   28 am   BACKBONE|DICT|INTERRES
    55   27   91 1    
    56   28   29 2    
    57   28   30 1    
    58   30   31 1    
    59   30   32 1    
    60   30   92 1    
    61   31   93 1    
    62   31   94 1    
    63   31   95 1    
    64   32   33 am   BACKBONE|DICT|INTERRES
    65   32   96 1    
    66   33   34 2    
    67   33   35 1    
    68   35   36 1    
    69   35   37 1    
    70   35   97 1    
    71   36   98 1    
    72   36   99 1    
    73   36  100 1    
    74   37   38 am   BACKBONE|DICT|INTERRES
    75   37  101 1    
    76   38   39 2    
    77   38   40 1    
    78   40   41 1    
    79   40   42 1    
    80   40  102 1    
    81   41  103 1    
    82   41  104 1    
    83   41  105 1    
    84   42   43 am   BACKBONE|DICT|INTERRES
    85   42  106 1    
    86   43   44 2    
    87   43   45 1    
    88   45   46 1    
    89   45   49 1    
    90   45  107 1    
    91   46   47 1    
    92   46  108 1    
    93   46  109 1    
    94   47   48 1    
    95   48  110 1    
    96   48  111 1    
    97   49   50 am   BACKBONE|DICT|INTERRES
    98   49  112 1    
    99   50   51 2    
   100   50   52 1    
   101   52   53 1    
   102   52   54 1    
   103   52  113 1    
   104   53  114 1    
   105   53  115 1    
   106   53  116 1    
   107   54   55 am   BACKBONE|DICT|INTERRES
   108   54  117 1    
   109   55   56 2    
   110   55   57 1    
   111   57   58 1    
   112   57   59 1    
   113   57  118 1    
   114   58  119 1    
   115   58  120 1    
   116   58  121 1    
   117   59   60 am   BACKBONE|DICT|INTERRES
   118   59  122 1    
   119   60   61 2    
   120   60   62 1    
   121   62   63 1    
   122   62   64 1    
   123   62  123 1    
   124   63  124 1    
   125   63  125 1    
   126   63  126 1    
   127   64   65 am   BACKBONE|DICT|INTERRES
   128   64  127 1    
   129   65   66 2    
@<TRIPOS>SUBSTRUCTURE
     1 UNK         1 GROUP             0       ****    0 ROOT    
