@<TRIPOS>MOLECULE
3R134
127   129    1
SMALL
USER_CHARGES


@<TRIPOS>ATOM
      1 CA         37.3931  -43.8721  -48.2027 C.3       0 UNK        -0.1968 
      2 C          37.2765  -44.1241  -49.6989 C.2       0 UNK         0.4852 
      3 O          38.2966  -44.2465  -50.3789 O.2       0 UNK        -0.5359 
      4 N          36.0429  -44.1949  -50.2166 N.am      1 UNK        -0.4300 
      5 CA         35.7364  -44.4948  -51.6164 C.3       1 UNK         0.0863 
      6 C6         34.2919  -44.0626  -51.9689 C.3       11 UNK        -0.0953 
      7 S7         34.0150  -43.9438  -53.7663 S.3       11 UNK        -0.2369 
      8 C8         32.8492  -45.3131  -54.0300 C.3       11 UNK         0.0226 
      9 C9         31.4397  -44.9779  -53.5718 C.ar      11 UNK        -0.0699 
     10 C10        30.8979  -45.5936  -52.4402 C.ar      11 UNK        -0.0804 
     11 C11        29.5734  -45.3452  -52.0674 C.ar      11 UNK        -0.0871 
     12 C12        28.8012  -44.4511  -52.8172 C.ar      11 UNK        -0.1008 
     13 C13        29.3269  -43.8488  -53.9627 C.ar      11 UNK        -0.0735 
     14 C14        30.6513  -44.1057  -54.3273 C.ar      11 UNK        -0.0945 
     15 C15        28.4479  -42.9597  -54.8302 C.3       11 UNK         0.0169 
     16 S16        27.3128  -43.9461  -55.8622 S.3       11 UNK        -0.2669 
     17 C17        28.4786  -44.8506  -56.9402 C.3       11 UNK        -0.0850 
     18 CA         27.9563  -45.0317  -58.3881 C.3       10 UNK         0.0855 
     19 C          29.0649  -45.5956  -59.3279 C.2       10 UNK         0.5543 
     20 N          28.8516  -46.6895  -60.0512 N.am      10 UNK        -0.7343 
     21 O          30.1414  -45.0112  -59.4203 O.2       10 UNK        -0.5027 
     22 N          26.6988  -45.7957  -58.4227 N.am      10 UNK        -0.4495 
     23 C          25.7543  -45.6529  -59.3613 C.2       10 UNK         0.4903 
     24 O          25.7999  -44.8012  -60.2509 O.2       10 UNK        -0.4860 
     25 CA         24.5645  -46.6331  -59.2988 C.3       9 UNK         0.0227 
     26 CB         23.7685  -46.6921  -60.6200 C.3       9 UNK        -0.1964 
     27 N          24.9379  -47.9863  -58.8640 N.am      9 UNK        -0.4231 
     28 C          25.8377  -48.8056  -59.4343 C.2       9 UNK         0.5014 
     29 O          26.4929  -48.4990  -60.4315 O.2       9 UNK        -0.5270 
     30 CA         26.0824  -50.1771  -58.7739 C.3       8 UNK         0.0284 
     31 CB         27.5815  -50.5223  -58.7601 C.3       8 UNK        -0.1977 
     32 N          25.5863  -50.2081  -57.3973 N.am      8 UNK        -0.4342 
     33 C          24.4708  -50.8245  -56.9816 C.2       8 UNK         0.5039 
     34 O          23.7666  -51.5291  -57.7054 O.2       8 UNK        -0.5547 
     35 CA         24.0422  -50.5906  -55.5175 C.3       7 UNK         0.0281 
     36 CB         24.5339  -51.7412  -54.6246 C.3       7 UNK        -0.1963 
     37 N          24.5138  -49.3163  -54.9638 N.am      7 UNK        -0.4444 
     38 C          24.2014  -48.1049  -55.4455 C.2       7 UNK         0.5104 
     39 O          23.3808  -47.9234  -56.3443 O.2       7 UNK        -0.5100 
     40 CA         24.9878  -46.8995  -54.9006 C.3       6 UNK         0.0396 
     41 CB         24.1426  -46.1177  -53.8843 C.3       6 UNK        -0.1801 
     42 N          26.2844  -47.2250  -54.2950 N.am      6 UNK        -0.4747 
     43 C          27.3181  -47.8484  -54.8759 C.2       6 UNK         0.5012 
     44 O          27.2676  -48.2988  -56.0242 O.2       6 UNK        -0.5003 
     45 CA         28.6079  -47.9747  -54.0300 C.3       5 UNK         0.0782 
     46 C46        28.3791  -48.3878  -52.5430 C.3       11 UNK        -0.0868 
     47 S47        27.5645  -47.1515  -51.4634 S.3       11 UNK        -0.2515 
     48 C48        28.9495  -46.1030  -50.9060 C.3       11 UNK         0.0199 
     49 N          29.5710  -48.8870  -54.6538 N.am      5 UNK        -0.4607 
     50 C          30.5043  -48.5407  -55.5477 C.2       4 UNK         0.5031 
     51 O          30.6401  -47.4062  -56.0079 O.2       4 UNK        -0.5119 
     52 CA         31.4437  -49.6706  -56.0095 C.3       4 UNK         0.0263 
     53 CB         30.8650  -50.3928  -57.2353 C.3       4 UNK        -0.1967 
     54 N          32.7851  -49.1764  -56.3328 N.am      4 UNK        -0.4237 
     55 C          33.6493  -48.6893  -55.4325 C.2       3 UNK         0.4908 
     56 O          33.4239  -48.6724  -54.2201 O.2       3 UNK        -0.5102 
     57 CA         34.9842  -48.1496  -55.9876 C.3       3 UNK         0.0241 
     58 CB         34.7818  -47.0509  -57.0493 C.3       3 UNK        -0.1971 
     59 N          35.8528  -47.6251  -54.9297 N.am      3 UNK        -0.4139 
     60 C          36.6149  -48.3755  -54.1232 C.2       2 UNK         0.5016 
     61 O          36.7087  -49.6009  -54.2156 O.2       2 UNK        -0.5319 
     62 CA         37.4422  -47.6451  -53.0500 C.3       2 UNK         0.0286 
     63 CB         38.9200  -47.5784  -53.4712 C.3       2 UNK        -0.1963 
     64 N          36.9745  -46.2848  -52.7580 N.am      2 UNK        -0.4790 
     65 C          35.9955  -45.9918  -51.8912 C.2       1 UNK         0.5024 
     66 O          35.3326  -46.8415  -51.2927 O.2       1 UNK        -0.4888 
     67 H67        36.4172  -43.7729  -47.7277 H         1 UNK         0.0892 
     68 H68        37.9208  -44.6966  -47.7238 H         1 UNK         0.0892 
     69 H69        37.9538  -42.9560  -48.0192 H         1 UNK         0.0892 
     70 H70        35.2449  -44.1164  -49.6025 H         1 UNK         0.3107 
     71 H71        36.4190  -43.9018  -52.2299 H         1 UNK         0.0773 
     72 H72        33.5560  -44.7216  -51.5051 H         1 UNK         0.0680 
     73 H73        34.0948  -43.0695  -51.5620 H         1 UNK         0.0680 
     74 H74        33.2227  -46.2011  -53.5205 H         1 UNK         0.0650 
     75 H75        32.8135  -45.5563  -55.0909 H         1 UNK         0.0650 
     76 H76        31.4953  -46.2972  -51.8763 H         1 UNK         0.1397 
     77 H77        27.7703  -44.2704  -52.5438 H         1 UNK         0.1363 
     78 H78        31.0652  -43.6509  -55.2167 H         1 UNK         0.1355 
     79 H79        29.0546  -42.3148  -55.4679 H         1 UNK         0.0707 
     80 H80        27.8610  -42.2959  -54.1936 H         1 UNK         0.0707 
     81 H81        29.4275  -44.3123  -56.9525 H         1 UNK         0.1034 
     82 H82        28.6904  -45.8186  -56.4889 H         1 UNK         0.1034 
     83 H83        27.7478  -44.0299  -58.7686 H         1 UNK         0.0482 
     84 H84        27.9604  -47.1724  -60.0345 H         1 UNK         0.3460 
     85 H85        29.5847  -47.0228  -60.6557 H         1 UNK         0.3460 
     86 H86        26.6115  -46.5368  -57.7420 H         1 UNK         0.2989 
     87 H87        23.8958  -46.2420  -58.5309 H         1 UNK         0.0559 
     88 H88        23.3735  -45.7106  -60.8849 H         1 UNK         0.0848 
     89 H89        22.9185  -47.3698  -60.5413 H         1 UNK         0.0848 
     90 H90        24.3896  -47.0277  -61.4512 H         1 UNK         0.0848 
     91 H91        24.4458  -48.3142  -58.0393 H         1 UNK         0.3144 
     92 H92        25.5660  -50.9228  -59.3813 H         1 UNK         0.0727 
     93 H93        28.1585  -49.7505  -58.2495 H         1 UNK         0.0790 
     94 H94        27.9768  -50.6088  -59.7730 H         1 UNK         0.0790 
     95 H95        27.7666  -51.4727  -58.2596 H         1 UNK         0.0790 
     96 H96        26.1063  -49.6302  -56.7397 H         1 UNK         0.3215 
     97 H97        22.9503  -50.5779  -55.4953 H         1 UNK         0.0863 
     98 H98        24.1694  -51.6358  -53.6026 H         1 UNK         0.0808 
     99 H99        25.6231  -51.7905  -54.5914 H         1 UNK         0.0808 
    100 H100       24.1759  -52.7026  -54.9961 H         1 UNK         0.0808 
    101 H101       25.1947  -49.3641  -54.2203 H         1 UNK         0.3118 
    102 H102       25.1871  -46.2429  -55.7495 H         1 UNK         0.0546 
    103 H103       23.9447  -46.7049  -52.9867 H         1 UNK         0.0828 
    104 H104       23.1785  -45.8362  -54.3104 H         1 UNK         0.0828 
    105 H105       24.6408  -45.1965  -53.5814 H         1 UNK         0.0828 
    106 H106       26.4191  -46.9124  -53.3404 H         1 UNK         0.3005 
    107 H107       29.0494  -46.9794  -54.0495 H         1 UNK         0.1257 
    108 H108       27.7987  -49.3111  -52.4958 H         1 UNK         0.0775 
    109 H109       29.3385  -48.6264  -52.0802 H         1 UNK         0.0775 
    110 H110       28.5801  -45.3869  -50.1706 H         1 UNK         0.0840 
    111 H111       29.6873  -46.7209  -50.3918 H         1 UNK         0.0840 
    112 H112       29.5016  -49.8554  -54.3781 H         1 UNK         0.2987 
    113 H113       31.5447  -50.3944  -55.1977 H         1 UNK         0.0785 
    114 H114       29.9088  -50.8561  -56.9915 H         1 UNK         0.0798 
    115 H115       31.5262  -51.1877  -57.5807 H         1 UNK         0.0798 
    116 H116       30.6979  -49.7067  -58.0669 H         1 UNK         0.0798 
    117 H117       33.0241  -49.1328  -57.3123 H         1 UNK         0.3079 
    118 H118       35.4917  -48.9894  -56.4675 H         1 UNK         0.0794 
    119 H119       35.7365  -46.7391  -57.4737 H         1 UNK         0.0786 
    120 H120       34.3023  -46.1642  -56.6384 H         1 UNK         0.0786 
    121 H121       34.1675  -47.3974  -57.8808 H         1 UNK         0.0786 
    122 H122       35.8134  -46.6325  -54.7537 H         1 UNK         0.3032 
    123 H123       37.3788  -48.2435  -52.1377 H         1 UNK         0.1094 
    124 H124       39.0555  -46.9948  -54.3827 H         1 UNK         0.0794 
    125 H125       39.5351  -47.1309  -52.6900 H         1 UNK         0.0794 
    126 H126       39.3180  -48.5763  -53.6615 H         1 UNK         0.0794 
    127 H127       37.4900  -45.5270  -53.1843 H         1 UNK         0.3016 
@<TRIPOS>BOND
     1    1    2 1    
     2    1   67 1    
     3    1   68 1    
     4    1   69 1    
     5    2    3 2    
     6    2    4 am   BACKBONE|DICT|INTERRES
     7    4    5 1    
     8    4   70 1    
     9    5    6 1    
    10    5   65 1    
    11    5   71 1    
    12    6    7 1    
    13    6   72 1    
    14    6   73 1    
    15    7    8 1    
    16    8    9 1    
    17    8   74 1    
    18    8   75 1    
    19    9   10 ar   
    20    9   14 ar   
    21   10   11 ar   
    22   10   76 1    
    23   11   12 ar   
    24   11   48 1    
    25   12   13 ar   
    26   12   77 1    
    27   13   14 ar   
    28   13   15 1    
    29   14   78 1    
    30   15   16 1    
    31   15   79 1    
    32   15   80 1    
    33   16   17 1    
    34   17   18 1    
    35   17   81 1    
    36   17   82 1    
    37   18   19 1    
    38   18   22 1    
    39   18   83 1    
    40   19   20 am   BACKBONE|DICT|INTERRES
    41   19   21 2    
    42   20   84 1    
    43   20   85 1    
    44   22   23 am   BACKBONE|DICT|INTERRES
    45   22   86 1    
    46   23   24 2    
    47   23   25 1    
    48   25   26 1    
    49   25   27 1    
    50   25   87 1    
    51   26   88 1    
    52   26   89 1    
    53   26   90 1    
    54   27   28 am   BACKBONE|DICT|INTERRES
    55   27   91 1    
    56   28   29 2    
    57   28   30 1    
    58   30   31 1    
    59   30   32 1    
    60   30   92 1    
    61   31   93 1    
    62   31   94 1    
    63   31   95 1    
    64   32   33 am   BACKBONE|DICT|INTERRES
    65   32   96 1    
    66   33   34 2    
    67   33   35 1    
    68   35   36 1    
    69   35   37 1    
    70   35   97 1    
    71   36   98 1    
    72   36   99 1    
    73   36  100 1    
    74   37   38 am   BACKBONE|DICT|INTERRES
    75   37  101 1    
    76   38   39 2    
    77   38   40 1    
    78   40   41 1    
    79   40   42 1    
    80   40  102 1    
    81   41  103 1    
    82   41  104 1    
    83   41  105 1    
    84   42   43 am   BACKBONE|DICT|INTERRES
    85   42  106 1    
    86   43   44 2    
    87   43   45 1    
    88   45   46 1    
    89   45   49 1    
    90   45  107 1    
    91   46   47 1    
    92   46  108 1    
    93   46  109 1    
    94   47   48 1    
    95   48  110 1    
    96   48  111 1    
    97   49   50 am   BACKBONE|DICT|INTERRES
    98   49  112 1    
    99   50   51 2    
   100   50   52 1    
   101   52   53 1    
   102   52   54 1    
   103   52  113 1    
   104   53  114 1    
   105   53  115 1    
   106   53  116 1    
   107   54   55 am   BACKBONE|DICT|INTERRES
   108   54  117 1    
   109   55   56 2    
   110   55   57 1    
   111   57   58 1    
   112   57   59 1    
   113   57  118 1    
   114   58  119 1    
   115   58  120 1    
   116   58  121 1    
   117   59   60 am   BACKBONE|DICT|INTERRES
   118   59  122 1    
   119   60   61 2    
   120   60   62 1    
   121   62   63 1    
   122   62   64 1    
   123   62  123 1    
   124   63  124 1    
   125   63  125 1    
   126   63  126 1    
   127   64   65 am   BACKBONE|DICT|INTERRES
   128   64  127 1    
   129   65   66 2    
@<TRIPOS>SUBSTRUCTURE
     1 UNK         1 GROUP             0       ****    0 ROOT    
