@<TRIPOS>MOLECULE
3R134
127   129    1
SMALL
USER_CHARGES


@<TRIPOS>ATOM
      1 CA         36.5013  -42.9575  -48.7575 C.3       0 UNK        -0.1968 
      2 C          36.2236  -43.6888  -50.0629 C.2       0 UNK         0.4852 
      3 O          37.1636  -44.1155  -50.7361 O.2       0 UNK        -0.5359 
      4 N          34.9429  -43.8277  -50.4280 N.am      1 UNK        -0.4300 
      5 CA         34.4813  -44.5399  -51.6249 C.3       1 UNK         0.0863 
      6 C6         33.0118  -44.1948  -51.9807 C.3       11 UNK        -0.0953 
      7 S7         32.6707  -42.3990  -52.0434 S.3       11 UNK        -0.2369 
      8 C8         33.2634  -41.9253  -53.6996 C.3       11 UNK         0.0226 
      9 C9         32.4401  -42.5602  -54.8095 C.ar      11 UNK        -0.0699 
     10 C10        32.9794  -43.5965  -55.5755 C.ar      11 UNK        -0.0804 
     11 C11        32.2139  -44.2180  -56.5652 C.ar      11 UNK        -0.0871 
     12 C12        30.9142  -43.7678  -56.8167 C.ar      11 UNK        -0.1008 
     13 C13        30.3626  -42.7350  -56.0543 C.ar      11 UNK        -0.0735 
     14 C14        31.1327  -42.1287  -55.0565 C.ar      11 UNK        -0.0945 
     15 C15        28.9212  -42.3086  -56.2819 C.3       11 UNK         0.0169 
     16 S16        27.7730  -43.5366  -55.5831 S.3       11 UNK        -0.2669 
     17 C17        26.1831  -42.6408  -55.6718 C.3       11 UNK        -0.0850 
     18 CA         25.2457  -43.1026  -56.8199 C.3       10 UNK         0.0855 
     19 C          25.6951  -42.5838  -58.2188 C.2       10 UNK         0.5543 
     20 N          25.7338  -43.4025  -59.2634 N.am      10 UNK        -0.7343 
     21 O          26.0001  -41.4027  -58.3653 O.2       10 UNK        -0.5027 
     22 N          24.9836  -44.5491  -56.7552 N.am      10 UNK        -0.4495 
     23 C          23.8271  -45.1380  -57.0802 C.2       10 UNK         0.4903 
     24 O          22.8087  -44.5198  -57.3956 O.2       10 UNK        -0.4860 
     25 CA         23.8238  -46.6814  -57.0629 C.3       9 UNK         0.0227 
     26 CB         22.5490  -47.2825  -57.6913 C.3       9 UNK        -0.1964 
     27 N          25.0183  -47.2772  -57.6785 N.am      9 UNK        -0.4231 
     28 C          25.4958  -47.0506  -58.9144 C.2       9 UNK         0.5014 
     29 O          25.0052  -46.2414  -59.7025 O.2       9 UNK        -0.5270 
     30 CA         26.7433  -47.8373  -59.3513 C.3       8 UNK         0.0284 
     31 CB         27.9833  -46.9255  -59.3377 C.3       8 UNK        -0.1977 
     32 N          26.9865  -49.0223  -58.5219 N.am      8 UNK        -0.4342 
     33 C          26.3492  -50.1937  -58.6805 C.2       8 UNK         0.5039 
     34 O          25.5232  -50.3991  -59.5707 O.2       8 UNK        -0.5547 
     35 CA         26.6719  -51.3357  -57.6967 C.3       7 UNK         0.0281 
     36 CB         27.6109  -52.3598  -58.3546 C.3       7 UNK        -0.1963 
     37 N          27.2665  -50.8816  -56.4383 N.am      7 UNK        -0.4444 
     38 C          26.6093  -50.2125  -55.4787 C.2       7 UNK         0.5104 
     39 O          25.4088  -49.9458  -55.5314 O.2       7 UNK        -0.5100 
     40 CA         27.4456  -49.6969  -54.2900 C.3       6 UNK         0.0396 
     41 CB         27.4198  -50.7100  -53.1359 C.3       6 UNK        -0.1801 
     42 N          28.8379  -49.3949  -54.6430 N.am      6 UNK        -0.4747 
     43 C          29.2114  -48.5222  -55.5936 C.2       6 UNK         0.5012 
     44 O          28.4069  -47.8292  -56.2153 O.2       6 UNK        -0.5003 
     45 CA         30.7032  -48.4482  -55.9769 C.3       5 UNK         0.0782 
     46 C46        31.3096  -47.0984  -55.5400 C.3       11 UNK        -0.0868 
     47 S47        32.9967  -46.8481  -56.1972 S.3       11 UNK        -0.2515 
     48 C48        32.7667  -45.4226  -57.3124 C.3       11 UNK         0.0199 
     49 N          31.4792  -49.5940  -55.4907 N.am      5 UNK        -0.4607 
     50 C          31.3504  -50.8479  -55.9489 C.2       4 UNK         0.5031 
     51 O          30.5437  -51.1675  -56.8226 O.2       4 UNK        -0.5119 
     52 CA         32.2389  -51.9354  -55.3177 C.3       4 UNK         0.0263 
     53 CB         33.4539  -52.2161  -56.2162 C.3       4 UNK        -0.1967 
     54 N          32.7059  -51.6094  -53.9676 N.am      4 UNK        -0.4237 
     55 C          31.9185  -51.4644  -52.8916 C.2       3 UNK         0.4908 
     56 O          30.6991  -51.6331  -52.9082 O.2       3 UNK        -0.5102 
     57 CA         32.6028  -51.0140  -51.5873 C.3       3 UNK         0.0241 
     58 CB         32.9950  -52.2332  -50.7372 C.3       3 UNK        -0.1971 
     59 N          33.7824  -50.1631  -51.7984 N.am      3 UNK        -0.4139 
     60 C          33.7528  -48.9601  -52.3892 C.2       2 UNK         0.5016 
     61 O          32.7281  -48.4526  -52.8475 O.2       2 UNK        -0.5319 
     62 CA         35.0995  -48.2355  -52.5516 C.3       2 UNK         0.0286 
     63 CB         35.7745  -48.6564  -53.8677 C.3       2 UNK        -0.1963 
     64 N          34.9398  -46.7779  -52.5411 N.am      2 UNK        -0.4790 
     65 C          34.6537  -46.0641  -51.4441 C.2       1 UNK         0.5024 
     66 O          34.5170  -46.5662  -50.3243 O.2       1 UNK        -0.4888 
     67 H67        37.0271  -43.6139  -48.0646 H         1 UNK         0.0892 
     68 H68        37.1266  -42.0844  -48.9420 H         1 UNK         0.0892 
     69 H69        35.5835  -42.6209  -48.2753 H         1 UNK         0.0892 
     70 H70        34.2120  -43.4678  -49.8316 H         1 UNK         0.3107 
     71 H71        35.1131  -44.2257  -52.4586 H         1 UNK         0.0773 
     72 H72        32.7283  -44.6506  -52.9308 H         1 UNK         0.0680 
     73 H73        32.3350  -44.6204  -51.2371 H         1 UNK         0.0680 
     74 H74        34.3178  -42.1892  -53.7934 H         1 UNK         0.0650 
     75 H75        33.2117  -40.8397  -53.7928 H         1 UNK         0.0650 
     76 H76        33.9814  -43.9510  -55.3756 H         1 UNK         0.1397 
     77 H77        30.3090  -44.2534  -57.5705 H         1 UNK         0.1363 
     78 H78        30.7087  -41.3383  -54.4521 H         1 UNK         0.1355 
     79 H79        28.7304  -42.1958  -57.3502 H         1 UNK         0.0707 
     80 H80        28.7397  -41.3337  -55.8268 H         1 UNK         0.0707 
     81 H81        25.6743  -42.7978  -54.7195 H         1 UNK         0.1034 
     82 H82        26.3581  -41.5644  -55.7204 H         1 UNK         0.1034 
     83 H83        24.2970  -42.5923  -56.6436 H         1 UNK         0.0482 
     84 H84        25.4387  -44.3699  -59.1916 H         1 UNK         0.3460 
     85 H85        26.0206  -43.0370  -60.1570 H         1 UNK         0.3460 
     86 H86        25.7815  -45.1251  -56.5272 H         1 UNK         0.2989 
     87 H87        23.8433  -46.9747  -56.0122 H         1 UNK         0.0559 
     88 H88        21.6541  -46.9358  -57.1730 H         1 UNK         0.0848 
     89 H89        22.4468  -47.0038  -58.7408 H         1 UNK         0.0848 
     90 H90        22.5540  -48.3710  -57.6328 H         1 UNK         0.0848 
     91 H91        25.5079  -47.9540  -57.1085 H         1 UNK         0.3144 
     92 H92        26.5814  -48.1617  -60.3816 H         1 UNK         0.0727 
     93 H93        28.8885  -47.4752  -59.5958 H         1 UNK         0.0790 
     94 H94        28.1374  -46.4558  -58.3660 H         1 UNK         0.0790 
     95 H95        27.8758  -46.1197  -60.0651 H         1 UNK         0.0790 
     96 H96        27.6208  -48.8997  -57.7398 H         1 UNK         0.3215 
     97 H97        25.7303  -51.8376  -57.4629 H         1 UNK         0.0863 
     98 H98        27.1734  -52.7584  -59.2710 H         1 UNK         0.0808 
     99 H99        28.5711  -51.9150  -58.6194 H         1 UNK         0.0808 
    100 H100       27.8035  -53.2056  -57.6944 H         1 UNK         0.0808 
    101 H101       28.2611  -51.0367  -56.3251 H         1 UNK         0.3118 
    102 H102       26.9864  -48.7692  -53.9427 H         1 UNK         0.0546 
    103 H103       26.3958  -50.9269  -52.8286 H         1 UNK         0.0828 
    104 H104       27.9467  -50.3295  -52.2607 H         1 UNK         0.0828 
    105 H105       27.8834  -51.6560  -53.4190 H         1 UNK         0.0828 
    106 H106       29.5545  -49.9391  -54.1784 H         1 UNK         0.3005 
    107 H107       30.7289  -48.4813  -57.0687 H         1 UNK         0.1257 
    108 H108       31.3437  -47.0186  -54.4530 H         1 UNK         0.0775 
    109 H109       30.6650  -46.2837  -55.8687 H         1 UNK         0.0775 
    110 H110       33.7252  -45.1620  -57.7633 H         1 UNK         0.0840 
    111 H111       32.1075  -45.7125  -58.1323 H         1 UNK         0.0840 
    112 H112       32.1300  -49.3957  -54.7399 H         1 UNK         0.2987 
    113 H113       31.6399  -52.8463  -55.2529 H         1 UNK         0.0785 
    114 H114       33.1385  -52.4899  -57.2242 H         1 UNK         0.0798 
    115 H115       34.0515  -53.0426  -55.8310 H         1 UNK         0.0798 
    116 H116       34.1019  -51.3429  -56.3040 H         1 UNK         0.0798 
    117 H117       33.6966  -51.4533  -53.8555 H         1 UNK         0.3079 
    118 H118       31.8714  -50.4279  -51.0265 H         1 UNK         0.0794 
    119 H119       32.1297  -52.8700  -50.5463 H         1 UNK         0.0786 
    120 H120       33.3910  -51.9308  -49.7675 H         1 UNK         0.0786 
    121 H121       33.7483  -52.8474  -51.2323 H         1 UNK         0.0786 
    122 H122       34.6637  -50.5194  -51.4560 H         1 UNK         0.3032 
    123 H123       35.7497  -48.5148  -51.7190 H         1 UNK         0.1094 
    124 H124       36.7390  -48.1644  -53.9945 H         1 UNK         0.0794 
    125 H125       35.9576  -49.7314  -53.8901 H         1 UNK         0.0794 
    126 H126       35.1582  -48.4140  -54.7343 H         1 UNK         0.0794 
    127 H127       34.9811  -46.3138  -53.4368 H         1 UNK         0.3016 
@<TRIPOS>BOND
     1    1    2 1    
     2    1   67 1    
     3    1   68 1    
     4    1   69 1    
     5    2    3 2    
     6    2    4 am   BACKBONE|DICT|INTERRES
     7    4    5 1    
     8    4   70 1    
     9    5    6 1    
    10    5   65 1    
    11    5   71 1    
    12    6    7 1    
    13    6   72 1    
    14    6   73 1    
    15    7    8 1    
    16    8    9 1    
    17    8   74 1    
    18    8   75 1    
    19    9   10 ar   
    20    9   14 ar   
    21   10   11 ar   
    22   10   76 1    
    23   11   12 ar   
    24   11   48 1    
    25   12   13 ar   
    26   12   77 1    
    27   13   14 ar   
    28   13   15 1    
    29   14   78 1    
    30   15   16 1    
    31   15   79 1    
    32   15   80 1    
    33   16   17 1    
    34   17   18 1    
    35   17   81 1    
    36   17   82 1    
    37   18   19 1    
    38   18   22 1    
    39   18   83 1    
    40   19   20 am   BACKBONE|DICT|INTERRES
    41   19   21 2    
    42   20   84 1    
    43   20   85 1    
    44   22   23 am   BACKBONE|DICT|INTERRES
    45   22   86 1    
    46   23   24 2    
    47   23   25 1    
    48   25   26 1    
    49   25   27 1    
    50   25   87 1    
    51   26   88 1    
    52   26   89 1    
    53   26   90 1    
    54   27   28 am   BACKBONE|DICT|INTERRES
    55   27   91 1    
    56   28   29 2    
    57   28   30 1    
    58   30   31 1    
    59   30   32 1    
    60   30   92 1    
    61   31   93 1    
    62   31   94 1    
    63   31   95 1    
    64   32   33 am   BACKBONE|DICT|INTERRES
    65   32   96 1    
    66   33   34 2    
    67   33   35 1    
    68   35   36 1    
    69   35   37 1    
    70   35   97 1    
    71   36   98 1    
    72   36   99 1    
    73   36  100 1    
    74   37   38 am   BACKBONE|DICT|INTERRES
    75   37  101 1    
    76   38   39 2    
    77   38   40 1    
    78   40   41 1    
    79   40   42 1    
    80   40  102 1    
    81   41  103 1    
    82   41  104 1    
    83   41  105 1    
    84   42   43 am   BACKBONE|DICT|INTERRES
    85   42  106 1    
    86   43   44 2    
    87   43   45 1    
    88   45   46 1    
    89   45   49 1    
    90   45  107 1    
    91   46   47 1    
    92   46  108 1    
    93   46  109 1    
    94   47   48 1    
    95   48  110 1    
    96   48  111 1    
    97   49   50 am   BACKBONE|DICT|INTERRES
    98   49  112 1    
    99   50   51 2    
   100   50   52 1    
   101   52   53 1    
   102   52   54 1    
   103   52  113 1    
   104   53  114 1    
   105   53  115 1    
   106   53  116 1    
   107   54   55 am   BACKBONE|DICT|INTERRES
   108   54  117 1    
   109   55   56 2    
   110   55   57 1    
   111   57   58 1    
   112   57   59 1    
   113   57  118 1    
   114   58  119 1    
   115   58  120 1    
   116   58  121 1    
   117   59   60 am   BACKBONE|DICT|INTERRES
   118   59  122 1    
   119   60   61 2    
   120   60   62 1    
   121   62   63 1    
   122   62   64 1    
   123   62  123 1    
   124   63  124 1    
   125   63  125 1    
   126   63  126 1    
   127   64   65 am   BACKBONE|DICT|INTERRES
   128   64  127 1    
   129   65   66 2    
@<TRIPOS>SUBSTRUCTURE
     1 UNK         1 GROUP             0       ****    0 ROOT    
