@<TRIPOS>MOLECULE
3R134
127   129    1
SMALL
USER_CHARGES


@<TRIPOS>ATOM
      1 CA         33.0558  -48.3770  -59.2185 C.3       0 UNK        -0.1968 
      2 C          33.8546  -48.1106  -57.9512 C.2       0 UNK         0.4852 
      3 O          35.0847  -48.1308  -57.9901 O.2       0 UNK        -0.5359 
      4 N          33.1581  -47.8857  -56.8281 N.am      1 UNK        -0.4300 
      5 CA         33.6954  -47.5611  -55.4957 C.3       1 UNK         0.0863 
      6 C6         34.4982  -46.2311  -55.4370 C.3       11 UNK        -0.0953 
      7 S7         33.4763  -44.8050  -55.9366 S.3       11 UNK        -0.2369 
      8 C8         32.8770  -44.2109  -54.3139 C.3       11 UNK         0.0226 
      9 C9         31.5766  -43.4031  -54.3561 C.ar      11 UNK        -0.0699 
     10 C10        30.7832  -43.3458  -53.2048 C.ar      11 UNK        -0.0804 
     11 C11        29.5725  -42.6397  -53.1931 C.ar      11 UNK        -0.0871 
     12 C12        29.1694  -41.9654  -54.3491 C.ar      11 UNK        -0.1008 
     13 C13        29.9575  -41.9927  -55.5018 C.ar      11 UNK        -0.0735 
     14 C14        31.1599  -42.7054  -55.4972 C.ar      11 UNK        -0.0945 
     15 C15        29.5278  -41.2357  -56.7495 C.3       11 UNK         0.0169 
     16 S16        28.5463  -42.2828  -57.8668 S.3       11 UNK        -0.2669 
     17 C17        26.8501  -41.9892  -57.2498 C.3       11 UNK        -0.0850 
     18 CA         25.7755  -42.8688  -57.9421 C.3       10 UNK         0.0855 
     19 C          25.5953  -42.5005  -59.4459 C.2       10 UNK         0.5543 
     20 N          25.9606  -43.3623  -60.3882 N.am      10 UNK        -0.7343 
     21 O          25.1053  -41.4175  -59.7569 O.2       10 UNK        -0.5027 
     22 N          26.0061  -44.2945  -57.6701 N.am      10 UNK        -0.4495 
     23 C          25.1197  -45.2796  -57.8636 C.2       10 UNK         0.4903 
     24 O          23.9562  -45.0831  -58.2171 O.2       10 UNK        -0.4860 
     25 CA         25.5869  -46.7266  -57.5999 C.3       9 UNK         0.0227 
     26 CB         25.1749  -47.6834  -58.7378 C.3       9 UNK        -0.1964 
     27 N          27.0158  -46.8671  -57.2862 N.am      9 UNK        -0.4231 
     28 C          28.0700  -46.6286  -58.0821 C.2       9 UNK         0.5014 
     29 O          27.9842  -46.2232  -59.2416 O.2       9 UNK        -0.5270 
     30 CA         29.4595  -46.8555  -57.4617 C.3       8 UNK         0.0284 
     31 CB         29.8818  -45.6339  -56.6357 C.3       8 UNK        -0.1977 
     32 N          29.5229  -48.0511  -56.6179 N.am      8 UNK        -0.4342 
     33 C          29.4255  -49.3063  -57.0787 C.2       8 UNK         0.5039 
     34 O          29.3221  -49.5958  -58.2703 O.2       8 UNK        -0.5547 
     35 CA         29.4780  -50.4294  -56.0354 C.3       7 UNK         0.0281 
     36 CB         30.9359  -50.8112  -55.7419 C.3       7 UNK        -0.1963 
     37 N          28.7982  -50.0497  -54.7942 N.am      7 UNK        -0.4444 
     38 C          27.4729  -50.1440  -54.6136 C.2       7 UNK         0.5104 
     39 O          26.7022  -50.6380  -55.4369 O.2       7 UNK        -0.5100 
     40 CA         26.9007  -49.5788  -53.3012 C.3       6 UNK         0.0396 
     41 CB         26.8836  -50.6634  -52.2129 C.3       6 UNK        -0.1801 
     42 N          27.6251  -48.4051  -52.8076 N.am      6 UNK        -0.4747 
     43 C          27.6657  -47.2130  -53.4227 C.2       6 UNK         0.5012 
     44 O          27.0756  -46.9673  -54.4736 O.2       6 UNK        -0.5003 
     45 CA         28.5542  -46.1252  -52.7863 C.3       5 UNK         0.0782 
     46 C46        27.7101  -45.2056  -51.8669 C.3       11 UNK        -0.0868 
     47 S47        28.7065  -44.0293  -50.8856 S.3       11 UNK        -0.2515 
     48 C48        28.7085  -42.5370  -51.9360 C.3       11 UNK         0.0199 
     49 N          29.7349  -46.6662  -52.1048 N.am      5 UNK        -0.4607 
     50 C          30.6867  -47.4259  -52.6579 C.2       4 UNK         0.5031 
     51 O          30.6293  -47.8526  -53.8153 O.2       4 UNK        -0.5119 
     52 CA         31.9113  -47.7547  -51.7797 C.3       4 UNK         0.0263 
     53 CB         31.7114  -47.4571  -50.2756 C.3       4 UNK        -0.1967 
     54 N          32.3816  -49.1292  -51.9692 N.am      4 UNK        -0.4237 
     55 C          31.6793  -50.2596  -51.7904 C.2       3 UNK         0.4908 
     56 O          30.5043  -50.2893  -51.4203 O.2       3 UNK        -0.5102 
     57 CA         32.4173  -51.5680  -52.1202 C.3       3 UNK         0.0241 
     58 CB         31.4703  -52.7768  -52.2519 C.3       3 UNK        -0.1971 
     59 N          33.1696  -51.3865  -53.3611 N.am      3 UNK        -0.4139 
     60 C          34.4701  -51.6399  -53.5412 C.2       2 UNK         0.5016 
     61 O          35.1888  -52.1984  -52.7120 O.2       2 UNK        -0.5319 
     62 CA         35.0794  -51.1456  -54.8676 C.3       2 UNK         0.0286 
     63 CB         35.0132  -52.2519  -55.9327 C.3       2 UNK        -0.1963 
     64 N          34.4524  -49.9261  -55.4012 N.am      2 UNK        -0.4790 
     65 C          34.4278  -48.7289  -54.7925 C.2       1 UNK         0.5024 
     66 O          34.9005  -48.5439  -53.6702 O.2       1 UNK        -0.4888 
     67 H67        33.1422  -47.5309  -59.8997 H         1 UNK         0.0892 
     68 H68        33.4381  -49.2627  -59.7252 H         1 UNK         0.0892 
     69 H69        31.9988  -48.5414  -59.0101 H         1 UNK         0.0892 
     70 H70        32.1501  -47.8789  -56.8824 H         1 UNK         0.3107 
     71 H71        32.8139  -47.4033  -54.8802 H         1 UNK         0.0773 
     72 H72        35.3733  -46.2772  -56.0863 H         1 UNK         0.0680 
     73 H73        34.8820  -46.0415  -54.4328 H         1 UNK         0.0680 
     74 H74        33.6569  -43.6056  -53.8507 H         1 UNK         0.0650 
     75 H75        32.7283  -45.0773  -53.6683 H         1 UNK         0.0650 
     76 H76        31.1138  -43.8564  -52.3111 H         1 UNK         0.1397 
     77 H77        28.2470  -41.4010  -54.3480 H         1 UNK         0.1363 
     78 H78        31.7635  -42.7160  -56.3935 H         1 UNK         0.1355 
     79 H79        28.9648  -40.3400  -56.4823 H         1 UNK         0.0707 
     80 H80        30.4103  -40.8861  -57.2875 H         1 UNK         0.0707 
     81 H81        26.8309  -42.1759  -56.1756 H         1 UNK         0.1034 
     82 H82        26.6091  -40.9312  -57.3708 H         1 UNK         0.1034 
     83 H83        24.8221  -42.6218  -57.4710 H         1 UNK         0.0482 
     84 H84        26.3877  -44.2401  -60.1320 H         1 UNK         0.3460 
     85 H85        25.8382  -43.1205  -61.3586 H         1 UNK         0.3460 
     86 H86        26.9491  -44.5423  -57.4120 H         1 UNK         0.2989 
     87 H87        25.0617  -47.0463  -56.6987 H         1 UNK         0.0559 
     88 H88        25.6113  -47.3910  -59.6932 H         1 UNK         0.0848 
     89 H89        24.0920  -47.6954  -58.8678 H         1 UNK         0.0848 
     90 H90        25.4852  -48.7068  -58.5261 H         1 UNK         0.0848 
     91 H91        27.2016  -47.1090  -56.3143 H         1 UNK         0.3144 
     92 H92        30.1754  -46.9816  -58.2763 H         1 UNK         0.0727 
     93 H93        29.1023  -45.3112  -55.9455 H         1 UNK         0.0790 
     94 H94        30.1042  -44.7902  -57.2890 H         1 UNK         0.0790 
     95 H95        30.7772  -45.8348  -56.0501 H         1 UNK         0.0790 
     96 H96        29.6511  -47.9114  -55.6208 H         1 UNK         0.3215 
     97 H97        28.9825  -51.3029  -56.4656 H         1 UNK         0.0863 
     98 H98        30.9824  -51.7118  -55.1321 H         1 UNK         0.0808 
     99 H99        31.4630  -50.0092  -55.2267 H         1 UNK         0.0808 
    100 H100       31.4781  -51.0244  -56.6646 H         1 UNK         0.0808 
    101 H101       29.3525  -49.5913  -54.0807 H         1 UNK         0.3118 
    102 H102       25.8695  -49.2757  -53.4950 H         1 UNK         0.0546 
    103 H103       27.8903  -50.9985  -51.9595 H         1 UNK         0.0828 
    104 H104       26.3232  -51.5390  -52.5438 H         1 UNK         0.0828 
    105 H105       26.4095  -50.3035  -51.2998 H         1 UNK         0.0828 
    106 H106       28.1732  -48.5283  -51.9670 H         1 UNK         0.3005 
    107 H107       28.9295  -45.5146  -53.6088 H         1 UNK         0.1257 
    108 H108       27.1379  -45.8036  -51.1547 H         1 UNK         0.0775 
    109 H109       26.9739  -44.6527  -52.4538 H         1 UNK         0.0775 
    110 H110       27.6773  -42.2926  -52.1964 H         1 UNK         0.0840 
    111 H111       29.0779  -41.7013  -51.3405 H         1 UNK         0.0840 
    112 H112       29.8560  -46.3617  -51.1496 H         1 UNK         0.2987 
    113 H113       32.7156  -47.1109  -52.1381 H         1 UNK         0.0785 
    114 H114       31.5351  -46.3957  -50.0956 H         1 UNK         0.0798 
    115 H115       32.5995  -47.7265  -49.7037 H         1 UNK         0.0798 
    116 H116       30.8715  -48.0133  -49.8566 H         1 UNK         0.0798 
    117 H117       33.3343  -49.2106  -52.3053 H         1 UNK         0.3079 
    118 H118       33.1015  -51.7570  -51.2903 H         1 UNK         0.0794 
    119 H119       30.9697  -52.9817  -51.3047 H         1 UNK         0.0786 
    120 H120       32.0151  -53.6787  -52.5310 H         1 UNK         0.0786 
    121 H121       30.6931  -52.6081  -52.9972 H         1 UNK         0.0786 
    122 H122       32.6804  -50.9176  -54.1088 H         1 UNK         0.3032 
    123 H123       36.1298  -50.9174  -54.6727 H         1 UNK         0.1094 
    124 H124       35.5273  -51.9542  -56.8470 H         1 UNK         0.0794 
    125 H125       35.4931  -53.1650  -55.5773 H         1 UNK         0.0794 
    126 H126       33.9842  -52.5045  -56.1917 H         1 UNK         0.0794 
    127 H127       34.0726  -49.9831  -56.3349 H         1 UNK         0.3016 
@<TRIPOS>BOND
     1    1    2 1    
     2    1   67 1    
     3    1   68 1    
     4    1   69 1    
     5    2    3 2    
     6    2    4 am   BACKBONE|DICT|INTERRES
     7    4    5 1    
     8    4   70 1    
     9    5    6 1    
    10    5   65 1    
    11    5   71 1    
    12    6    7 1    
    13    6   72 1    
    14    6   73 1    
    15    7    8 1    
    16    8    9 1    
    17    8   74 1    
    18    8   75 1    
    19    9   10 ar   
    20    9   14 ar   
    21   10   11 ar   
    22   10   76 1    
    23   11   12 ar   
    24   11   48 1    
    25   12   13 ar   
    26   12   77 1    
    27   13   14 ar   
    28   13   15 1    
    29   14   78 1    
    30   15   16 1    
    31   15   79 1    
    32   15   80 1    
    33   16   17 1    
    34   17   18 1    
    35   17   81 1    
    36   17   82 1    
    37   18   19 1    
    38   18   22 1    
    39   18   83 1    
    40   19   20 am   BACKBONE|DICT|INTERRES
    41   19   21 2    
    42   20   84 1    
    43   20   85 1    
    44   22   23 am   BACKBONE|DICT|INTERRES
    45   22   86 1    
    46   23   24 2    
    47   23   25 1    
    48   25   26 1    
    49   25   27 1    
    50   25   87 1    
    51   26   88 1    
    52   26   89 1    
    53   26   90 1    
    54   27   28 am   BACKBONE|DICT|INTERRES
    55   27   91 1    
    56   28   29 2    
    57   28   30 1    
    58   30   31 1    
    59   30   32 1    
    60   30   92 1    
    61   31   93 1    
    62   31   94 1    
    63   31   95 1    
    64   32   33 am   BACKBONE|DICT|INTERRES
    65   32   96 1    
    66   33   34 2    
    67   33   35 1    
    68   35   36 1    
    69   35   37 1    
    70   35   97 1    
    71   36   98 1    
    72   36   99 1    
    73   36  100 1    
    74   37   38 am   BACKBONE|DICT|INTERRES
    75   37  101 1    
    76   38   39 2    
    77   38   40 1    
    78   40   41 1    
    79   40   42 1    
    80   40  102 1    
    81   41  103 1    
    82   41  104 1    
    83   41  105 1    
    84   42   43 am   BACKBONE|DICT|INTERRES
    85   42  106 1    
    86   43   44 2    
    87   43   45 1    
    88   45   46 1    
    89   45   49 1    
    90   45  107 1    
    91   46   47 1    
    92   46  108 1    
    93   46  109 1    
    94   47   48 1    
    95   48  110 1    
    96   48  111 1    
    97   49   50 am   BACKBONE|DICT|INTERRES
    98   49  112 1    
    99   50   51 2    
   100   50   52 1    
   101   52   53 1    
   102   52   54 1    
   103   52  113 1    
   104   53  114 1    
   105   53  115 1    
   106   53  116 1    
   107   54   55 am   BACKBONE|DICT|INTERRES
   108   54  117 1    
   109   55   56 2    
   110   55   57 1    
   111   57   58 1    
   112   57   59 1    
   113   57  118 1    
   114   58  119 1    
   115   58  120 1    
   116   58  121 1    
   117   59   60 am   BACKBONE|DICT|INTERRES
   118   59  122 1    
   119   60   61 2    
   120   60   62 1    
   121   62   63 1    
   122   62   64 1    
   123   62  123 1    
   124   63  124 1    
   125   63  125 1    
   126   63  126 1    
   127   64   65 am   BACKBONE|DICT|INTERRES
   128   64  127 1    
   129   65   66 2    
@<TRIPOS>SUBSTRUCTURE
     1 UNK         1 GROUP             0       ****    0 ROOT    
