@<TRIPOS>MOLECULE
3R134
127   129    1
SMALL
USER_CHARGES


@<TRIPOS>ATOM
      1 CA         37.3455  -42.4449  -49.4524 C.3       0 UNK        -0.1968 
      2 C          37.2849  -43.4145  -50.6240 C.2       0 UNK         0.4852 
      3 O          38.2884  -44.0585  -50.9357 O.2       0 UNK        -0.5359 
      4 N          36.1201  -43.5162  -51.2777 N.am      1 UNK        -0.4300 
      5 CA         35.8579  -44.4455  -52.3814 C.3       1 UNK         0.0863 
      6 C6         34.6573  -43.9682  -53.2397 C.3       11 UNK        -0.0953 
      7 S7         34.8070  -44.4421  -54.9993 S.3       11 UNK        -0.2369 
      8 C8         33.3890  -45.5602  -55.2484 C.3       11 UNK         0.0226 
      9 C9         32.0589  -44.8400  -55.0836 C.ar      11 UNK        -0.0699 
     10 C10        31.3277  -44.9845  -53.9026 C.ar      11 UNK        -0.0804 
     11 C11        30.1178  -44.3076  -53.7290 C.ar      11 UNK        -0.0871 
     12 C12        29.6413  -43.4771  -54.7468 C.ar      11 UNK        -0.1008 
     13 C13        30.3559  -43.3344  -55.9399 C.ar      11 UNK        -0.0735 
     14 C14        31.5621  -44.0242  -56.1048 C.ar      11 UNK        -0.0945 
     15 C15        29.8440  -42.4152  -57.0396 C.3       11 UNK         0.0169 
     16 S16        28.5012  -43.1854  -57.9958 S.3       11 UNK        -0.2669 
     17 C17        27.0275  -42.4114  -57.2377 C.3       11 UNK        -0.0850 
     18 CA         25.6832  -42.9747  -57.7672 C.3       10 UNK         0.0855 
     19 C          25.4231  -42.5768  -59.2522 C.2       10 UNK         0.5543 
     20 N          25.3779  -43.5081  -60.1988 N.am      10 UNK        -0.7343 
     21 O          25.2463  -41.3967  -59.5451 O.2       10 UNK        -0.5027 
     22 N          25.5577  -44.4088  -57.4759 N.am      10 UNK        -0.4495 
     23 C          24.4149  -45.1057  -57.5072 C.2       10 UNK         0.4903 
     24 O          23.3051  -44.5863  -57.6376 O.2       10 UNK        -0.4860 
     25 CA         24.5309  -46.6390  -57.3755 C.3       9 UNK         0.0227 
     26 CB         23.4002  -47.3809  -58.1182 C.3       9 UNK        -0.1964 
     27 N          25.8389  -47.1817  -57.7690 N.am      9 UNK        -0.4231 
     28 C          26.4489  -47.0676  -58.9604 C.2       9 UNK         0.5014 
     29 O          25.9957  -46.4246  -59.9089 O.2       9 UNK        -0.5270 
     30 CA         27.8038  -47.7772  -59.1146 C.3       8 UNK         0.0284 
     31 CB         28.9419  -46.9002  -58.5673 C.3       8 UNK        -0.1977 
     32 N          27.8437  -49.0848  -58.4589 N.am      8 UNK        -0.4342 
     33 C          27.1477  -50.1633  -58.8452 C.2       8 UNK         0.5039 
     34 O          26.3940  -50.1853  -59.8189 O.2       8 UNK        -0.5547 
     35 CA         27.3237  -51.4336  -58.0007 C.3       7 UNK         0.0281 
     36 CB         28.6244  -52.1643  -58.3751 C.3       7 UNK        -0.1963 
     37 N          27.3279  -51.1223  -56.5709 N.am      7 UNK        -0.4444 
     38 C          26.2260  -51.0292  -55.8149 C.2       7 UNK         0.5104 
     39 O          25.0892  -51.2576  -56.2293 O.2       7 UNK        -0.5100 
     40 CA         26.4151  -50.6169  -54.3428 C.3       6 UNK         0.0396 
     41 CB         26.5064  -51.8619  -53.4467 C.3       6 UNK        -0.1801 
     42 N          27.5870  -49.7696  -54.1055 N.am      6 UNK        -0.4747 
     43 C          27.7267  -48.5139  -54.5573 C.2       6 UNK         0.5012 
     44 O          26.8916  -47.9416  -55.2569 O.2       6 UNK        -0.5003 
     45 CA         29.0535  -47.8024  -54.2135 C.3       5 UNK         0.0782 
     46 C46        29.0174  -47.2586  -52.7606 C.3       11 UNK        -0.0868 
     47 S47        28.0308  -45.7315  -52.6026 S.3       11 UNK        -0.2515 
     48 C48        29.3285  -44.4661  -52.4391 C.3       11 UNK         0.0199 
     49 N          30.2372  -48.6474  -54.4253 N.am      5 UNK        -0.4607 
     50 C          30.5065  -49.4174  -55.4907 C.2       4 UNK         0.5031 
     51 O          29.7970  -49.4605  -56.4944 O.2       4 UNK        -0.5119 
     52 CA         31.7508  -50.3255  -55.4364 C.3       4 UNK         0.0263 
     53 CB         32.7799  -49.8762  -56.4869 C.3       4 UNK        -0.1967 
     54 N          32.4118  -50.3936  -54.1302 N.am      4 UNK        -0.4237 
     55 C          31.8897  -50.8398  -52.9780 C.2       3 UNK         0.4908 
     56 O          30.7617  -51.3269  -52.8904 O.2       3 UNK        -0.5102 
     57 CA         32.7474  -50.6874  -51.7012 C.3       3 UNK         0.0241 
     58 CB         33.0064  -52.0593  -51.0550 C.3       3 UNK        -0.1971 
     59 N          34.0357  -50.0044  -51.8951 N.am      3 UNK        -0.4139 
     60 C          34.2052  -48.7229  -52.2528 C.2       2 UNK         0.5016 
     61 O          33.2698  -47.9432  -52.4500 O.2       2 UNK        -0.5319 
     62 CA         35.6623  -48.2929  -52.5166 C.3       2 UNK         0.0286 
     63 CB         36.2387  -49.0467  -53.7303 C.3       2 UNK        -0.1963 
     64 N          35.8103  -46.8582  -52.7693 N.am      2 UNK        -0.4790 
     65 C          35.6630  -45.8878  -51.8606 C.2       1 UNK         0.5024 
     66 O          35.3892  -46.0959  -50.6749 O.2       1 UNK        -0.4888 
     67 H67        36.3966  -41.9316  -49.2976 H         1 UNK         0.0892 
     68 H68        37.5948  -42.9795  -48.5362 H         1 UNK         0.0892 
     69 H69        38.1132  -41.6917  -49.6277 H         1 UNK         0.0892 
     70 H70        35.3231  -42.9889  -50.9512 H         1 UNK         0.3107 
     71 H71        36.7512  -44.4439  -53.0106 H         1 UNK         0.0773 
     72 H72        34.6023  -42.8784  -53.2339 H         1 UNK         0.0680 
     73 H73        33.7122  -44.3060  -52.8152 H         1 UNK         0.0680 
     74 H74        33.4633  -46.4006  -54.5587 H         1 UNK         0.0650 
     75 H75        33.4478  -45.9855  -56.2512 H         1 UNK         0.0650 
     76 H76        31.7097  -45.6200  -53.1150 H         1 UNK         0.1397 
     77 H77        28.7119  -42.9440  -54.6074 H         1 UNK         0.1363 
     78 H78        32.1270  -43.9125  -57.0202 H         1 UNK         0.1355 
     79 H79        30.6542  -42.1638  -57.7257 H         1 UNK         0.0707 
     80 H80        29.5112  -41.4691  -56.6102 H         1 UNK         0.0707 
     81 H81        27.0715  -42.5524  -56.1579 H         1 UNK         0.1034 
     82 H82        27.0753  -41.3320  -57.3953 H         1 UNK         0.1034 
     83 H83        24.8954  -42.4772  -57.1981 H         1 UNK         0.0482 
     84 H84        25.2038  -43.2334  -61.1520 H         1 UNK         0.3460 
     85 H85        25.5424  -44.4852  -59.9780 H         1 UNK         0.3460 
     86 H86        26.4265  -44.9132  -57.3815 H         1 UNK         0.2989 
     87 H87        24.4256  -46.8570  -56.3119 H         1 UNK         0.0559 
     88 H88        23.4091  -47.1627  -59.1866 H         1 UNK         0.0848 
     89 H89        22.4207  -47.0926  -57.7348 H         1 UNK         0.0848 
     90 H90        23.4887  -48.4606  -57.9960 H         1 UNK         0.0848 
     91 H91        26.3312  -47.6669  -57.0210 H         1 UNK         0.3144 
     92 H92        27.9771  -47.9346  -60.1812 H         1 UNK         0.0727 
     93 H93        28.8170  -46.6853  -57.5051 H         1 UNK         0.0790 
     94 H94        28.9823  -45.9458  -59.0931 H         1 UNK         0.0790 
     95 H95        29.9120  -47.3806  -58.6973 H         1 UNK         0.0790 
     96 H96        28.4907  -49.1826  -57.6767 H         1 UNK         0.3215 
     97 H97        26.4889  -52.1025  -58.2226 H         1 UNK         0.0863 
     98 H98        28.7339  -53.0907  -57.8112 H         1 UNK         0.0808 
     99 H99        29.5075  -51.5524  -58.1883 H         1 UNK         0.0808 
    100 H100       28.6301  -52.4274  -59.4337 H         1 UNK         0.0808 
    101 H101       28.2149  -50.8487  -56.1674 H         1 UNK         0.3118 
    102 H102       25.5298  -50.0498  -54.0473 H         1 UNK         0.0546 
    103 H103       25.6370  -52.5067  -53.5835 H         1 UNK         0.0828 
    104 H104       26.5424  -51.5905  -52.3915 H         1 UNK         0.0828 
    105 H105       27.3925  -52.4573  -53.6711 H         1 UNK         0.0828 
    106 H106       28.3426  -50.1740  -53.5678 H         1 UNK         0.3005 
    107 H107       29.1578  -46.9614  -54.9028 H         1 UNK         0.1257 
    108 H108       30.0269  -47.0565  -52.4022 H         1 UNK         0.0775 
    109 H109       28.6212  -48.0029  -52.0667 H         1 UNK         0.0775 
    110 H110       28.8627  -43.5156  -52.1742 H         1 UNK         0.0840 
    111 H111       29.9893  -44.7199  -51.6086 H         1 UNK         0.0840 
    112 H112       30.9022  -48.6688  -53.6658 H         1 UNK         0.2987 
    113 H113       31.4170  -51.3339  -55.6888 H         1 UNK         0.0785 
    114 H114       33.1592  -48.8751  -56.2772 H         1 UNK         0.0798 
    115 H115       32.3381  -49.8540  -57.4844 H         1 UNK         0.0798 
    116 H116       33.6300  -50.5574  -56.5289 H         1 UNK         0.0798 
    117 H117       33.3380  -49.9975  -54.0859 H         1 UNK         0.3079 
    118 H118       32.1605  -50.0878  -51.0024 H         1 UNK         0.0794 
    119 H119       33.5978  -52.7060  -51.7045 H         1 UNK         0.0786 
    120 H120       32.0700  -52.5784  -50.8446 H         1 UNK         0.0786 
    121 H121       33.5353  -51.9591  -50.1069 H         1 UNK         0.0786 
    122 H122       34.8583  -50.5775  -51.7694 H         1 UNK         0.3032 
    123 H123       36.2492  -48.5434  -51.6297 H         1 UNK         0.1094 
    124 H124       37.2760  -48.7648  -53.9136 H         1 UNK         0.0794 
    125 H125       36.2303  -50.1266  -53.5775 H         1 UNK         0.0794 
    126 H126       35.6728  -48.8408  -54.6401 H         1 UNK         0.0794 
    127 H127       35.9894  -46.5875  -53.7258 H         1 UNK         0.3016 
@<TRIPOS>BOND
     1    1    2 1    
     2    1   67 1    
     3    1   68 1    
     4    1   69 1    
     5    2    3 2    
     6    2    4 am   BACKBONE|DICT|INTERRES
     7    4    5 1    
     8    4   70 1    
     9    5    6 1    
    10    5   65 1    
    11    5   71 1    
    12    6    7 1    
    13    6   72 1    
    14    6   73 1    
    15    7    8 1    
    16    8    9 1    
    17    8   74 1    
    18    8   75 1    
    19    9   10 ar   
    20    9   14 ar   
    21   10   11 ar   
    22   10   76 1    
    23   11   12 ar   
    24   11   48 1    
    25   12   13 ar   
    26   12   77 1    
    27   13   14 ar   
    28   13   15 1    
    29   14   78 1    
    30   15   16 1    
    31   15   79 1    
    32   15   80 1    
    33   16   17 1    
    34   17   18 1    
    35   17   81 1    
    36   17   82 1    
    37   18   19 1    
    38   18   22 1    
    39   18   83 1    
    40   19   20 am   BACKBONE|DICT|INTERRES
    41   19   21 2    
    42   20   84 1    
    43   20   85 1    
    44   22   23 am   BACKBONE|DICT|INTERRES
    45   22   86 1    
    46   23   24 2    
    47   23   25 1    
    48   25   26 1    
    49   25   27 1    
    50   25   87 1    
    51   26   88 1    
    52   26   89 1    
    53   26   90 1    
    54   27   28 am   BACKBONE|DICT|INTERRES
    55   27   91 1    
    56   28   29 2    
    57   28   30 1    
    58   30   31 1    
    59   30   32 1    
    60   30   92 1    
    61   31   93 1    
    62   31   94 1    
    63   31   95 1    
    64   32   33 am   BACKBONE|DICT|INTERRES
    65   32   96 1    
    66   33   34 2    
    67   33   35 1    
    68   35   36 1    
    69   35   37 1    
    70   35   97 1    
    71   36   98 1    
    72   36   99 1    
    73   36  100 1    
    74   37   38 am   BACKBONE|DICT|INTERRES
    75   37  101 1    
    76   38   39 2    
    77   38   40 1    
    78   40   41 1    
    79   40   42 1    
    80   40  102 1    
    81   41  103 1    
    82   41  104 1    
    83   41  105 1    
    84   42   43 am   BACKBONE|DICT|INTERRES
    85   42  106 1    
    86   43   44 2    
    87   43   45 1    
    88   45   46 1    
    89   45   49 1    
    90   45  107 1    
    91   46   47 1    
    92   46  108 1    
    93   46  109 1    
    94   47   48 1    
    95   48  110 1    
    96   48  111 1    
    97   49   50 am   BACKBONE|DICT|INTERRES
    98   49  112 1    
    99   50   51 2    
   100   50   52 1    
   101   52   53 1    
   102   52   54 1    
   103   52  113 1    
   104   53  114 1    
   105   53  115 1    
   106   53  116 1    
   107   54   55 am   BACKBONE|DICT|INTERRES
   108   54  117 1    
   109   55   56 2    
   110   55   57 1    
   111   57   58 1    
   112   57   59 1    
   113   57  118 1    
   114   58  119 1    
   115   58  120 1    
   116   58  121 1    
   117   59   60 am   BACKBONE|DICT|INTERRES
   118   59  122 1    
   119   60   61 2    
   120   60   62 1    
   121   62   63 1    
   122   62   64 1    
   123   62  123 1    
   124   63  124 1    
   125   63  125 1    
   126   63  126 1    
   127   64   65 am   BACKBONE|DICT|INTERRES
   128   64  127 1    
   129   65   66 2    
@<TRIPOS>SUBSTRUCTURE
     1 UNK         1 GROUP             0       ****    0 ROOT    
