@<TRIPOS>MOLECULE
3R134
127   129    1
SMALL
USER_CHARGES


@<TRIPOS>ATOM
      1 CA         35.3348  -41.0082  -55.8964 C.3       0 UNK        -0.1968 
      2 C          34.6451  -42.2203  -55.2883 C.2       0 UNK         0.4852 
      3 O          33.8539  -42.8751  -55.9671 O.2       0 UNK        -0.5359 
      4 N          34.9308  -42.5138  -54.0136 N.am      1 UNK        -0.4300 
      5 CA         34.3781  -43.6521  -53.2728 C.3       1 UNK         0.0863 
      6 C6         34.5994  -43.5250  -51.7435 C.3       11 UNK        -0.0953 
      7 S7         34.0388  -41.9315  -51.0555 S.3       11 UNK        -0.2369 
      8 C8         32.3533  -42.3371  -50.4885 C.3       11 UNK         0.0226 
      9 C9         31.3540  -42.5918  -51.6159 C.ar      11 UNK        -0.0699 
     10 C10        30.3769  -43.5792  -51.4571 C.ar      11 UNK        -0.0804 
     11 C11        29.4052  -43.7884  -52.4399 C.ar      11 UNK        -0.0871 
     12 C12        29.4241  -43.0003  -53.5956 C.ar      11 UNK        -0.1008 
     13 C13        30.4192  -42.0367  -53.7962 C.ar      11 UNK        -0.0735 
     14 C14        31.3625  -41.8239  -52.7872 C.ar      11 UNK        -0.0945 
     15 C15        30.5023  -41.1866  -55.0666 C.3       11 UNK         0.0169 
     16 S16        29.5754  -41.8155  -56.5119 S.3       11 UNK        -0.2669 
     17 C17        30.4871  -43.3513  -56.9002 C.3       11 UNK        -0.0850 
     18 CA         29.7010  -44.2737  -57.8719 C.3       10 UNK         0.0855 
     19 C          30.5664  -45.4769  -58.3565 C.2       10 UNK         0.5543 
     20 N          30.0872  -46.7152  -58.3318 N.am      10 UNK        -0.7343 
     21 O          31.7004  -45.2813  -58.7855 O.2       10 UNK        -0.5027 
     22 N          28.3912  -44.6591  -57.3202 N.am      10 UNK        -0.4495 
     23 C          27.2989  -44.9114  -58.0491 C.2       10 UNK         0.4903 
     24 O          27.2253  -44.7695  -59.2716 O.2       10 UNK        -0.4860 
     25 CA         26.0731  -45.4176  -57.2678 C.3       9 UNK         0.0227 
     26 CB         24.9680  -44.3493  -57.2439 C.3       9 UNK        -0.1964 
     27 N          25.5261  -46.6791  -57.7824 N.am      9 UNK        -0.4231 
     28 C          26.2258  -47.8002  -58.0072 C.2       9 UNK         0.5014 
     29 O          27.4498  -47.8853  -57.9044 O.2       9 UNK        -0.5270 
     30 CA         25.4328  -49.0394  -58.4261 C.3       8 UNK         0.0284 
     31 CB         25.4481  -49.2085  -59.9565 C.3       8 UNK        -0.1977 
     32 N          26.0258  -50.2089  -57.7785 N.am      8 UNK        -0.4342 
     33 C          25.3881  -51.3633  -57.5466 C.2       8 UNK         0.5039 
     34 O          24.2216  -51.5788  -57.8795 O.2       8 UNK        -0.5547 
     35 CA         26.1673  -52.4610  -56.8083 C.3       7 UNK         0.0281 
     36 CB         27.2281  -53.0975  -57.7232 C.3       7 UNK        -0.1963 
     37 N          26.8021  -51.9318  -55.6010 N.am      7 UNK        -0.4444 
     38 C          26.2541  -51.9611  -54.3773 C.2       7 UNK         0.5104 
     39 O          25.1697  -52.4893  -54.1280 O.2       7 UNK        -0.5100 
     40 CA         27.0392  -51.3039  -53.2230 C.3       6 UNK         0.0396 
     41 CB         27.8040  -52.3700  -52.4232 C.3       6 UNK        -0.1801 
     42 N          27.9764  -50.2672  -53.6624 N.am      6 UNK        -0.4747 
     43 C          27.6071  -49.0830  -54.1776 C.2       6 UNK         0.5012 
     44 O          26.4321  -48.7226  -54.2561 O.2       6 UNK        -0.5003 
     45 CA         28.7224  -48.1780  -54.7581 C.3       5 UNK         0.0782 
     46 C46        29.1235  -47.0357  -53.7906 C.3       11 UNK        -0.0868 
     47 S47        27.8399  -45.7426  -53.7138 S.3       11 UNK        -0.2515 
     48 C48        28.3043  -44.8204  -52.2109 C.3       11 UNK         0.0199 
     49 N          29.8917  -48.9288  -55.2347 N.am      5 UNK        -0.4607 
     50 C          29.8581  -49.9033  -56.1609 C.2       4 UNK         0.5031 
     51 O          28.8332  -50.2524  -56.7451 O.2       4 UNK        -0.5119 
     52 CA         31.1567  -50.6783  -56.4473 C.3       4 UNK         0.0263 
     53 CB         31.8188  -50.1461  -57.7279 C.3       4 UNK        -0.1967 
     54 N          32.1305  -50.6479  -55.3548 N.am      4 UNK        -0.4237 
     55 C          31.9202  -51.0428  -54.0894 C.2       3 UNK         0.4908 
     56 O          30.8799  -51.5737  -53.6991 O.2       3 UNK        -0.5102 
     57 CA         33.0385  -50.7321  -53.0761 C.3       3 UNK         0.0241 
     58 CB         33.8951  -51.9825  -52.8206 C.3       3 UNK        -0.1971 
     59 N          33.9079  -49.6182  -53.4822 N.am      3 UNK        -0.4139 
     60 C          33.4968  -48.3560  -53.6719 C.2       2 UNK         0.5016 
     61 O          32.3356  -47.9740  -53.4989 O.2       2 UNK        -0.5319 
     62 CA         34.5358  -47.3775  -54.2233 C.3       2 UNK         0.0286 
     63 CB         34.6100  -47.4791  -55.7596 C.3       2 UNK        -0.1963 
     64 N          34.1514  -46.0261  -53.8311 N.am      2 UNK        -0.4790 
     65 C          34.9767  -44.9765  -53.7821 C.2       1 UNK         0.5024 
     66 O          36.1732  -45.0334  -54.0792 O.2       1 UNK        -0.4888 
     67 H67        34.5924  -40.2864  -56.2360 H         1 UNK         0.0892 
     68 H68        35.9348  -41.3100  -56.7544 H         1 UNK         0.0892 
     69 H69        35.9900  -40.5101  -55.1820 H         1 UNK         0.0892 
     70 H70        35.5986  -41.9512  -53.5069 H         1 UNK         0.3107 
     71 H71        33.3040  -43.6783  -53.4643 H         1 UNK         0.0773 
     72 H72        34.0951  -44.3368  -51.2158 H         1 UNK         0.0680 
     73 H73        35.6600  -43.6231  -51.5029 H         1 UNK         0.0680 
     74 H74        31.9841  -41.5041  -49.8893 H         1 UNK         0.0650 
     75 H75        32.4082  -43.1965  -49.8184 H         1 UNK         0.0650 
     76 H76        30.3544  -44.1677  -50.5498 H         1 UNK         0.1397 
     77 H77        28.6553  -43.1435  -54.3401 H         1 UNK         0.1363 
     78 H78        32.1118  -41.0557  -52.9192 H         1 UNK         0.1355 
     79 H79        30.1337  -40.1869  -54.8337 H         1 UNK         0.0707 
     80 H80        31.5474  -41.0709  -55.3587 H         1 UNK         0.0707 
     81 H81        31.4462  -43.0620  -57.3346 H         1 UNK         0.1034 
     82 H82        30.7256  -43.8856  -55.9791 H         1 UNK         0.1034 
     83 H83        29.5178  -43.6860  -58.7735 H         1 UNK         0.0482 
     84 H84        29.1300  -46.9166  -58.0583 H         1 UNK         0.3460 
     85 H85        30.6682  -47.4616  -58.6732 H         1 UNK         0.3460 
     86 H86        28.3610  -44.8127  -56.3231 H         1 UNK         0.2989 
     87 H87        26.3725  -45.6099  -56.2369 H         1 UNK         0.0559 
     88 H88        24.1325  -44.6522  -56.6126 H         1 UNK         0.0848 
     89 H89        25.3464  -43.4066  -56.8457 H         1 UNK         0.0848 
     90 H90        24.5809  -44.1477  -58.2436 H         1 UNK         0.0848 
     91 H91        24.5284  -46.7007  -57.9354 H         1 UNK         0.3144 
     92 H92        24.4021  -48.9278  -58.0826 H         1 UNK         0.0727 
     93 H93        24.8558  -50.0685  -60.2693 H         1 UNK         0.0790 
     94 H94        26.4627  -49.3453  -60.3331 H         1 UNK         0.0790 
     95 H95        25.0308  -48.3306  -60.4514 H         1 UNK         0.0790 
     96 H96        26.9895  -50.0842  -57.4691 H         1 UNK         0.3215 
     97 H97        25.4589  -53.2462  -56.5345 H         1 UNK         0.0863 
     98 H98        27.9682  -52.3731  -58.0639 H         1 UNK         0.0808 
     99 H99        26.7644  -53.5281  -58.6116 H         1 UNK         0.0808 
    100 H100       27.7584  -53.9016  -57.2130 H         1 UNK         0.0808 
    101 H101       27.6655  -51.4157  -55.7401 H         1 UNK         0.3118 
    102 H102       26.3118  -50.8377  -52.5550 H         1 UNK         0.0546 
    103 H103       28.5426  -52.8837  -53.0399 H         1 UNK         0.0828 
    104 H104       27.1235  -53.1275  -52.0321 H         1 UNK         0.0828 
    105 H105       28.3249  -51.9322  -51.5716 H         1 UNK         0.0828 
    106 H106       28.9608  -50.5124  -53.6541 H         1 UNK         0.3005 
    107 H107       28.2990  -47.7086  -55.6432 H         1 UNK         0.1257 
    108 H108       30.0409  -46.5536  -54.1330 H         1 UNK         0.0775 
    109 H109       29.3364  -47.4221  -52.7921 H         1 UNK         0.0775 
    110 H110       27.4209  -44.2958  -51.8449 H         1 UNK         0.0840 
    111 H111       28.5859  -45.5270  -51.4287 H         1 UNK         0.0840 
    112 H112       30.7713  -48.7138  -54.7789 H         1 UNK         0.2987 
    113 H113       30.8795  -51.7221  -56.6086 H         1 UNK         0.0785 
    114 H114       32.6822  -50.7490  -58.0098 H         1 UNK         0.0798 
    115 H115       31.1214  -50.1718  -58.5668 H         1 UNK         0.0798 
    116 H116       32.1516  -49.1139  -57.6112 H         1 UNK         0.0798 
    117 H117       33.0253  -50.2350  -55.5690 H         1 UNK         0.3079 
    118 H118       32.5539  -50.4492  -52.1392 H         1 UNK         0.0794 
    119 H119       34.6347  -51.8049  -52.0395 H         1 UNK         0.0786 
    120 H120       34.4239  -52.3020  -53.7196 H         1 UNK         0.0786 
    121 H121       33.2759  -52.8189  -52.4924 H         1 UNK         0.0786 
    122 H122       34.8775  -49.8458  -53.6532 H         1 UNK         0.3032 
    123 H123       35.5088  -47.6159  -53.7868 H         1 UNK         0.1094 
    124 H124       33.6522  -47.2403  -56.2248 H         1 UNK         0.0794 
    125 H125       35.3554  -46.7971  -56.1690 H         1 UNK         0.0794 
    126 H126       34.8889  -48.4843  -56.0778 H         1 UNK         0.0794 
    127 H127       33.1856  -45.9409  -53.5359 H         1 UNK         0.3016 
@<TRIPOS>BOND
     1    1    2 1    
     2    1   67 1    
     3    1   68 1    
     4    1   69 1    
     5    2    3 2    
     6    2    4 am   BACKBONE|DICT|INTERRES
     7    4    5 1    
     8    4   70 1    
     9    5    6 1    
    10    5   65 1    
    11    5   71 1    
    12    6    7 1    
    13    6   72 1    
    14    6   73 1    
    15    7    8 1    
    16    8    9 1    
    17    8   74 1    
    18    8   75 1    
    19    9   10 ar   
    20    9   14 ar   
    21   10   11 ar   
    22   10   76 1    
    23   11   12 ar   
    24   11   48 1    
    25   12   13 ar   
    26   12   77 1    
    27   13   14 ar   
    28   13   15 1    
    29   14   78 1    
    30   15   16 1    
    31   15   79 1    
    32   15   80 1    
    33   16   17 1    
    34   17   18 1    
    35   17   81 1    
    36   17   82 1    
    37   18   19 1    
    38   18   22 1    
    39   18   83 1    
    40   19   20 am   BACKBONE|DICT|INTERRES
    41   19   21 2    
    42   20   84 1    
    43   20   85 1    
    44   22   23 am   BACKBONE|DICT|INTERRES
    45   22   86 1    
    46   23   24 2    
    47   23   25 1    
    48   25   26 1    
    49   25   27 1    
    50   25   87 1    
    51   26   88 1    
    52   26   89 1    
    53   26   90 1    
    54   27   28 am   BACKBONE|DICT|INTERRES
    55   27   91 1    
    56   28   29 2    
    57   28   30 1    
    58   30   31 1    
    59   30   32 1    
    60   30   92 1    
    61   31   93 1    
    62   31   94 1    
    63   31   95 1    
    64   32   33 am   BACKBONE|DICT|INTERRES
    65   32   96 1    
    66   33   34 2    
    67   33   35 1    
    68   35   36 1    
    69   35   37 1    
    70   35   97 1    
    71   36   98 1    
    72   36   99 1    
    73   36  100 1    
    74   37   38 am   BACKBONE|DICT|INTERRES
    75   37  101 1    
    76   38   39 2    
    77   38   40 1    
    78   40   41 1    
    79   40   42 1    
    80   40  102 1    
    81   41  103 1    
    82   41  104 1    
    83   41  105 1    
    84   42   43 am   BACKBONE|DICT|INTERRES
    85   42  106 1    
    86   43   44 2    
    87   43   45 1    
    88   45   46 1    
    89   45   49 1    
    90   45  107 1    
    91   46   47 1    
    92   46  108 1    
    93   46  109 1    
    94   47   48 1    
    95   48  110 1    
    96   48  111 1    
    97   49   50 am   BACKBONE|DICT|INTERRES
    98   49  112 1    
    99   50   51 2    
   100   50   52 1    
   101   52   53 1    
   102   52   54 1    
   103   52  113 1    
   104   53  114 1    
   105   53  115 1    
   106   53  116 1    
   107   54   55 am   BACKBONE|DICT|INTERRES
   108   54  117 1    
   109   55   56 2    
   110   55   57 1    
   111   57   58 1    
   112   57   59 1    
   113   57  118 1    
   114   58  119 1    
   115   58  120 1    
   116   58  121 1    
   117   59   60 am   BACKBONE|DICT|INTERRES
   118   59  122 1    
   119   60   61 2    
   120   60   62 1    
   121   62   63 1    
   122   62   64 1    
   123   62  123 1    
   124   63  124 1    
   125   63  125 1    
   126   63  126 1    
   127   64   65 am   BACKBONE|DICT|INTERRES
   128   64  127 1    
   129   65   66 2    
@<TRIPOS>SUBSTRUCTURE
     1 UNK         1 GROUP             0       ****    0 ROOT    
