@<TRIPOS>MOLECULE
3R134
127   129    1
SMALL
USER_CHARGES


@<TRIPOS>ATOM
      1 CA         37.7067  -42.5984  -49.1930 C.3       0 UNK        -0.1968 
      2 C          37.7542  -43.5990  -50.3387 C.2       0 UNK         0.4852 
      3 O          38.6637  -44.4294  -50.3874 O.2       0 UNK        -0.5359 
      4 N          36.7887  -43.5195  -51.2628 N.am      1 UNK        -0.4300 
      5 CA         36.6265  -44.4401  -52.3917 C.3       1 UNK         0.0863 
      6 C6         35.8308  -43.7811  -53.5502 C.3       11 UNK        -0.0953 
      7 S7         34.1427  -43.2388  -53.1065 S.3       11 UNK        -0.2369 
      8 C8         33.1877  -43.9291  -54.4922 C.3       11 UNK         0.0226 
      9 C9         31.7029  -43.6442  -54.3333 C.ar      11 UNK        -0.0699 
     10 C10        30.8724  -44.5562  -53.6734 C.ar      11 UNK        -0.0804 
     11 C11        29.5047  -44.2963  -53.5283 C.ar      11 UNK        -0.0871 
     12 C12        28.9798  -43.1016  -54.0344 C.ar      11 UNK        -0.1008 
     13 C13        29.7938  -42.1981  -54.7221 C.ar      11 UNK        -0.0735 
     14 C14        31.1573  -42.4709  -54.8607 C.ar      11 UNK        -0.0945 
     15 C15        29.1968  -40.9391  -55.3371 C.3       11 UNK         0.0169 
     16 S16        27.9411  -41.3090  -56.6090 S.3       11 UNK        -0.2669 
     17 C17        28.8889  -42.3096  -57.8110 C.3       11 UNK        -0.0850 
     18 CA         27.9862  -43.2218  -58.6838 C.3       10 UNK         0.0855 
     19 C          28.8324  -43.9802  -59.7510 C.2       10 UNK         0.5543 
     20 N          28.8630  -45.3085  -59.7734 N.am      10 UNK        -0.7343 
     21 O          29.4738  -43.3437  -60.5834 O.2       10 UNK        -0.5027 
     22 N          27.1237  -44.0905  -57.8663 N.am      10 UNK        -0.4495 
     23 C          25.9989  -44.6652  -58.3041 C.2       10 UNK         0.4903 
     24 O          25.4954  -44.4584  -59.4104 O.2       10 UNK        -0.4860 
     25 CA         25.3307  -45.6632  -57.3456 C.3       9 UNK         0.0227 
     26 CB         23.9694  -45.1407  -56.8601 C.3       9 UNK        -0.1964 
     27 N          25.1642  -46.9777  -57.9709 N.am      9 UNK        -0.4231 
     28 C          26.1760  -47.7475  -58.3924 C.2       9 UNK         0.5014 
     29 O          27.3645  -47.4386  -58.2823 O.2       9 UNK        -0.5270 
     30 CA         25.8038  -49.0692  -59.0676 C.3       8 UNK         0.0284 
     31 CB         25.9333  -48.9431  -60.5982 C.3       8 UNK        -0.1977 
     32 N          26.6767  -50.1259  -58.5576 N.am      8 UNK        -0.4342 
     33 C          26.4460  -51.4398  -58.6833 C.2       8 UNK         0.5039 
     34 O          25.4617  -51.9111  -59.2550 O.2       8 UNK        -0.5547 
     35 CA         27.4673  -52.3946  -58.0497 C.3       7 UNK         0.0281 
     36 CB         28.8301  -52.3108  -58.7596 C.3       7 UNK        -0.1963 
     37 N          27.6246  -52.0935  -56.6283 N.am      7 UNK        -0.4444 
     38 C          26.9712  -52.7162  -55.6364 C.2       7 UNK         0.5104 
     39 O          26.2283  -53.6837  -55.8062 O.2       7 UNK        -0.5100 
     40 CA         27.1686  -52.1720  -54.2070 C.3       6 UNK         0.0396 
     41 CB         28.2470  -52.9811  -53.4699 C.3       6 UNK        -0.1801 
     42 N          27.5203  -50.7494  -54.1792 N.am      6 UNK        -0.4747 
     43 C          26.6763  -49.7606  -54.5182 C.2       6 UNK         0.5012 
     44 O          25.4833  -49.9462  -54.7603 O.2       6 UNK        -0.5003 
     45 CA         27.2447  -48.3317  -54.6564 C.3       5 UNK         0.0782 
     46 C46        26.8016  -47.4374  -53.4732 C.3       11 UNK        -0.0868 
     47 S47        27.1150  -45.6781  -53.8302 S.3       11 UNK        -0.2515 
     48 C48        28.5976  -45.3064  -52.8326 C.3       11 UNK         0.0199 
     49 N          28.6968  -48.2807  -54.8526 N.am      5 UNK        -0.4607 
     50 C          29.3910  -48.8487  -55.8469 C.2       4 UNK         0.5031 
     51 O          28.8852  -49.5200  -56.7455 O.2       4 UNK        -0.5119 
     52 CA         30.9193  -48.7054  -55.7755 C.3       4 UNK         0.0263 
     53 CB         31.3659  -47.4313  -56.5107 C.3       4 UNK        -0.1967 
     54 N          31.4475  -48.6843  -54.4055 N.am      4 UNK        -0.4237 
     55 C          31.2543  -49.6129  -53.4581 C.2       3 UNK         0.4908 
     56 O          30.5760  -50.6267  -53.6313 O.2       3 UNK        -0.5102 
     57 CA         31.9096  -49.3455  -52.0854 C.3       3 UNK         0.0241 
     58 CB         31.5945  -50.4505  -51.0591 C.3       3 UNK        -0.1971 
     59 N          33.3649  -49.1679  -52.1602 N.am      3 UNK        -0.4139 
     60 C          33.9930  -48.0996  -52.6681 C.2       2 UNK         0.5016 
     61 O          33.3992  -47.1452  -53.1758 O.2       2 UNK        -0.5319 
     62 CA         35.5325  -48.1293  -52.6483 C.3       2 UNK         0.0286 
     63 CB         36.0633  -49.0517  -53.7589 C.3       2 UNK        -0.1963 
     64 N          36.1186  -46.7970  -52.8280 N.am      2 UNK        -0.4790 
     65 C          36.0265  -45.7933  -51.9446 C.2       1 UNK         0.5024 
     66 O          35.4988  -45.9100  -50.8342 O.2       1 UNK        -0.4888 
     67 H67        36.8668  -41.9102  -49.2872 H         1 UNK         0.0892 
     68 H68        37.6108  -43.1220  -48.2422 H         1 UNK         0.0892 
     69 H69        38.6244  -42.0114  -49.1685 H         1 UNK         0.0892 
     70 H70        36.0462  -42.8433  -51.1542 H         1 UNK         0.3107 
     71 H71        37.6249  -44.6592  -52.7772 H         1 UNK         0.0773 
     72 H72        35.7865  -44.4553  -54.4071 H         1 UNK         0.0680 
     73 H73        36.3729  -42.9035  -53.9058 H         1 UNK         0.0680 
     74 H74        33.5524  -43.5008  -55.4271 H         1 UNK         0.0650 
     75 H75        33.3592  -45.0028  -54.5624 H         1 UNK         0.0650 
     76 H76        31.2980  -45.4669  -53.2744 H         1 UNK         0.1397 
     77 H77        27.9247  -42.8889  -53.9272 H         1 UNK         0.1363 
     78 H78        31.7968  -41.7731  -55.3841 H         1 UNK         0.1355 
     79 H79        28.7363  -40.3421  -54.5488 H         1 UNK         0.0707 
     80 H80        29.9741  -40.3154  -55.7812 H         1 UNK         0.0707 
     81 H81        29.6243  -42.9214  -57.2872 H         1 UNK         0.1034 
     82 H82        29.4602  -41.6223  -58.4381 H         1 UNK         0.1034 
     83 H83        27.3275  -42.5617  -59.2517 H         1 UNK         0.0482 
     84 H84        28.3276  -45.8631  -59.1138 H         1 UNK         0.3460 
     85 H85        29.4163  -45.7716  -60.4757 H         1 UNK         0.3460 
     86 H86        27.4695  -44.3171  -56.9452 H         1 UNK         0.2989 
     87 H87        25.9716  -45.7941  -56.4738 H         1 UNK         0.0559 
     88 H88        23.2661  -45.0154  -57.6845 H         1 UNK         0.0848 
     89 H89        24.0778  -44.1700  -56.3742 H         1 UNK         0.0848 
     90 H90        23.5203  -45.8166  -56.1322 H         1 UNK         0.0848 
     91 H91        24.2159  -47.2821  -58.1379 H         1 UNK         0.3144 
     92 H92        24.7715  -49.3180  -58.8121 H         1 UNK         0.0727 
     93 H93        26.9628  -48.7403  -60.8966 H         1 UNK         0.0790 
     94 H94        25.3169  -48.1265  -60.9767 H         1 UNK         0.0790 
     95 H95        25.6104  -49.8517  -61.1061 H         1 UNK         0.0790 
     96 H96        27.4987  -49.7995  -58.0486 H         1 UNK         0.3215 
     97 H97        27.0947  -53.4139  -58.1740 H         1 UNK         0.0863 
     98 H98        29.2782  -51.3200  -58.6812 H         1 UNK         0.0808 
     99 H99        28.7285  -52.5381  -59.8216 H         1 UNK         0.0808 
    100 H100       29.5360  -53.0284  -58.3413 H         1 UNK         0.0808 
    101 H101       28.1742  -51.2678  -56.4081 H         1 UNK         0.3118 
    102 H102       26.2259  -52.2983  -53.6704 H         1 UNK         0.0546 
    103 H103       28.3886  -52.6221  -52.4504 H         1 UNK         0.0828 
    104 H104       29.2095  -52.9291  -53.9801 H         1 UNK         0.0828 
    105 H105       27.9691  -54.0340  -53.4080 H         1 UNK         0.0828 
    106 H106       28.4952  -50.5290  -54.0011 H         1 UNK         0.3005 
    107 H107       26.7967  -47.9312  -55.5662 H         1 UNK         0.1257 
    108 H108       27.2918  -47.7350  -52.5445 H         1 UNK         0.0775 
    109 H109       25.7289  -47.5376  -53.2953 H         1 UNK         0.0775 
    110 H110       28.2877  -44.9079  -51.8657 H         1 UNK         0.0840 
    111 H111       29.1459  -46.2262  -52.6268 H         1 UNK         0.0840 
    112 H112       29.2144  -47.7543  -54.1672 H         1 UNK         0.2987 
    113 H113       31.3534  -49.5702  -56.2810 H         1 UNK         0.0785 
    114 H114       32.4526  -47.3534  -56.5479 H         1 UNK         0.0798 
    115 H115       31.0044  -47.4280  -57.5403 H         1 UNK         0.0798 
    116 H116       30.9815  -46.5307  -56.0295 H         1 UNK         0.0798 
    117 H117       32.0671  -47.9135  -54.1598 H         1 UNK         0.3079 
    118 H118       31.4760  -48.4166  -51.7083 H         1 UNK         0.0794 
    119 H119       32.0027  -50.2099  -50.0773 H         1 UNK         0.0786 
    120 H120       32.0017  -51.4148  -51.3662 H         1 UNK         0.0786 
    121 H121       30.5177  -50.5761  -50.9362 H         1 UNK         0.0786 
    122 H122       33.9228  -49.9308  -51.8040 H         1 UNK         0.3032 
    123 H123       35.8543  -48.5148  -51.6781 H         1 UNK         0.1094 
    124 H124       35.6909  -50.0700  -53.6403 H         1 UNK         0.0794 
    125 H125       35.7582  -48.7080  -54.7484 H         1 UNK         0.0794 
    126 H126       37.1521  -49.1064  -53.7434 H         1 UNK         0.0794 
    127 H127       36.5419  -46.6138  -53.7260 H         1 UNK         0.3016 
@<TRIPOS>BOND
     1    1    2 1    
     2    1   67 1    
     3    1   68 1    
     4    1   69 1    
     5    2    3 2    
     6    2    4 am   BACKBONE|DICT|INTERRES
     7    4    5 1    
     8    4   70 1    
     9    5    6 1    
    10    5   65 1    
    11    5   71 1    
    12    6    7 1    
    13    6   72 1    
    14    6   73 1    
    15    7    8 1    
    16    8    9 1    
    17    8   74 1    
    18    8   75 1    
    19    9   10 ar   
    20    9   14 ar   
    21   10   11 ar   
    22   10   76 1    
    23   11   12 ar   
    24   11   48 1    
    25   12   13 ar   
    26   12   77 1    
    27   13   14 ar   
    28   13   15 1    
    29   14   78 1    
    30   15   16 1    
    31   15   79 1    
    32   15   80 1    
    33   16   17 1    
    34   17   18 1    
    35   17   81 1    
    36   17   82 1    
    37   18   19 1    
    38   18   22 1    
    39   18   83 1    
    40   19   20 am   BACKBONE|DICT|INTERRES
    41   19   21 2    
    42   20   84 1    
    43   20   85 1    
    44   22   23 am   BACKBONE|DICT|INTERRES
    45   22   86 1    
    46   23   24 2    
    47   23   25 1    
    48   25   26 1    
    49   25   27 1    
    50   25   87 1    
    51   26   88 1    
    52   26   89 1    
    53   26   90 1    
    54   27   28 am   BACKBONE|DICT|INTERRES
    55   27   91 1    
    56   28   29 2    
    57   28   30 1    
    58   30   31 1    
    59   30   32 1    
    60   30   92 1    
    61   31   93 1    
    62   31   94 1    
    63   31   95 1    
    64   32   33 am   BACKBONE|DICT|INTERRES
    65   32   96 1    
    66   33   34 2    
    67   33   35 1    
    68   35   36 1    
    69   35   37 1    
    70   35   97 1    
    71   36   98 1    
    72   36   99 1    
    73   36  100 1    
    74   37   38 am   BACKBONE|DICT|INTERRES
    75   37  101 1    
    76   38   39 2    
    77   38   40 1    
    78   40   41 1    
    79   40   42 1    
    80   40  102 1    
    81   41  103 1    
    82   41  104 1    
    83   41  105 1    
    84   42   43 am   BACKBONE|DICT|INTERRES
    85   42  106 1    
    86   43   44 2    
    87   43   45 1    
    88   45   46 1    
    89   45   49 1    
    90   45  107 1    
    91   46   47 1    
    92   46  108 1    
    93   46  109 1    
    94   47   48 1    
    95   48  110 1    
    96   48  111 1    
    97   49   50 am   BACKBONE|DICT|INTERRES
    98   49  112 1    
    99   50   51 2    
   100   50   52 1    
   101   52   53 1    
   102   52   54 1    
   103   52  113 1    
   104   53  114 1    
   105   53  115 1    
   106   53  116 1    
   107   54   55 am   BACKBONE|DICT|INTERRES
   108   54  117 1    
   109   55   56 2    
   110   55   57 1    
   111   57   58 1    
   112   57   59 1    
   113   57  118 1    
   114   58  119 1    
   115   58  120 1    
   116   58  121 1    
   117   59   60 am   BACKBONE|DICT|INTERRES
   118   59  122 1    
   119   60   61 2    
   120   60   62 1    
   121   62   63 1    
   122   62   64 1    
   123   62  123 1    
   124   63  124 1    
   125   63  125 1    
   126   63  126 1    
   127   64   65 am   BACKBONE|DICT|INTERRES
   128   64  127 1    
   129   65   66 2    
@<TRIPOS>SUBSTRUCTURE
     1 UNK         1 GROUP             0       ****    0 ROOT    
