@<TRIPOS>MOLECULE
3R134
127   129    1
SMALL
USER_CHARGES


@<TRIPOS>ATOM
      1 CA         34.7747  -43.0401  -59.4611 C.3       0 UNK        -0.1968 
      2 C          33.8050  -43.9264  -58.6926 C.2       0 UNK         0.4852 
      3 O          32.9948  -44.6176  -59.3103 O.2       0 UNK        -0.5359 
      4 N          33.8850  -43.9026  -57.3555 N.am      1 UNK        -0.4300 
      5 CA         33.0623  -44.6892  -56.4291 C.3       1 UNK         0.0863 
      6 C6         33.3434  -44.2950  -54.9581 C.3       11 UNK        -0.0953 
      7 S7         32.8443  -42.5790  -54.6020 S.3       11 UNK        -0.2369 
      8 C8         32.0872  -42.7597  -52.9491 C.3       11 UNK         0.0226 
      9 C9         30.8196  -43.6158  -52.8837 C.ar      11 UNK        -0.0699 
     10 C10        30.4597  -44.1831  -51.6575 C.ar      11 UNK        -0.0804 
     11 C11        29.2969  -44.9493  -51.5346 C.ar      11 UNK        -0.0871 
     12 C12        28.4768  -45.1389  -52.6490 C.ar      11 UNK        -0.1008 
     13 C13        28.8203  -44.5802  -53.8822 C.ar      11 UNK        -0.0735 
     14 C14        29.9945  -43.8290  -53.9955 C.ar      11 UNK        -0.0945 
     15 C15        27.9332  -44.8160  -55.0940 C.3       11 UNK         0.0169 
     16 S16        26.6748  -43.5119  -55.3087 S.3       11 UNK        -0.2669 
     17 C17        27.6182  -42.1487  -56.0880 C.3       11 UNK        -0.0850 
     18 CA         27.2987  -41.9512  -57.6004 C.3       10 UNK         0.0855 
     19 C          28.0026  -40.6969  -58.2024 C.2       10 UNK         0.5543 
     20 N          28.4196  -40.7152  -59.4623 N.am      10 UNK        -0.7343 
     21 O          28.1431  -39.6778  -57.5304 O.2       10 UNK        -0.5027 
     22 N          27.4552  -43.1892  -58.3840 N.am      10 UNK        -0.4495 
     23 C          28.5780  -43.9002  -58.5440 C.2       10 UNK         0.4903 
     24 O          29.6845  -43.5376  -58.1431 O.2       10 UNK        -0.4860 
     25 CA         28.4028  -45.2897  -59.1901 C.3       9 UNK         0.0227 
     26 CB         29.7281  -46.0655  -59.3009 C.3       9 UNK        -0.1964 
     27 N          27.4471  -46.1010  -58.4294 N.am      9 UNK        -0.4231 
     28 C          26.1131  -46.0024  -58.4768 C.2       9 UNK         0.5014 
     29 O          25.5232  -45.2389  -59.2448 O.2       9 UNK        -0.5270 
     30 CA         25.3144  -46.8756  -57.4860 C.3       8 UNK         0.0284 
     31 CB         23.7948  -46.8062  -57.7294 C.3       8 UNK        -0.1977 
     32 N          25.7320  -48.2813  -57.4879 N.am      8 UNK        -0.4342 
     33 C          26.8421  -48.7643  -56.9192 C.2       8 UNK         0.5039 
     34 O          27.6898  -48.0612  -56.3619 O.2       8 UNK        -0.5547 
     35 CA         27.0660  -50.2725  -57.0326 C.3       7 UNK         0.0281 
     36 CB         27.7574  -50.6306  -58.3601 C.3       7 UNK        -0.1963 
     37 N          27.8953  -50.7002  -55.9114 N.am      7 UNK        -0.4444 
     38 C          27.8154  -51.8885  -55.3063 C.2       7 UNK         0.5104 
     39 O          27.0496  -52.7826  -55.6703 O.2       7 UNK        -0.5100 
     40 CA         28.7391  -52.1535  -54.1013 C.3       6 UNK         0.0396 
     41 CB         29.8233  -53.1745  -54.4816 C.3       6 UNK        -0.1801 
     42 N          29.3807  -50.9755  -53.5009 N.am      6 UNK        -0.4747 
     43 C          28.7400  -49.9958  -52.8399 C.2       6 UNK         0.5012 
     44 O          27.5118  -49.9051  -52.8067 O.2       6 UNK        -0.5003 
     45 CA         29.6064  -48.9686  -52.0651 C.3       5 UNK         0.0782 
     46 C46        28.8165  -48.3115  -50.8934 C.3       11 UNK        -0.0868 
     47 S47        29.7983  -47.1279  -49.9046 S.3       11 UNK        -0.2515 
     48 C48        28.9262  -45.5565  -50.1912 C.3       11 UNK         0.0199 
     49 N          30.9020  -49.5349  -51.6571 N.am      5 UNK        -0.4607 
     50 C          31.0999  -50.5270  -50.7725 C.2       4 UNK         0.5031 
     51 O          30.1879  -51.0890  -50.1640 O.2       4 UNK        -0.5119 
     52 CA         32.5588  -50.9723  -50.5212 C.3       4 UNK         0.0263 
     53 CB         32.6580  -52.4618  -50.1254 C.3       4 UNK        -0.1967 
     54 N          33.4796  -50.6718  -51.6269 N.am      4 UNK        -0.4237 
     55 C          33.3791  -51.1037  -52.8917 C.2       3 UNK         0.4908 
     56 O          32.4931  -51.8542  -53.3031 O.2       3 UNK        -0.5102 
     57 CA         34.4147  -50.5551  -53.8846 C.3       3 UNK         0.0241 
     58 CB         35.3556  -51.6723  -54.3640 C.3       3 UNK        -0.1971 
     59 N          33.7595  -49.9369  -55.0398 N.am      3 UNK        -0.4139 
     60 C          32.9214  -48.8938  -54.9725 C.2       2 UNK         0.5016 
     61 O          32.6192  -48.3148  -53.9239 O.2       2 UNK        -0.5319 
     62 CA         32.2786  -48.4437  -56.2924 C.3       2 UNK         0.0286 
     63 CB         30.8549  -49.0070  -56.4066 C.3       2 UNK        -0.1963 
     64 N          32.2218  -46.9845  -56.3575 N.am      2 UNK        -0.4790 
     65 C          33.2823  -46.2050  -56.6027 C.2       1 UNK         0.5024 
     66 O          34.3992  -46.6397  -56.8982 O.2       1 UNK        -0.4888 
     67 H67        35.4006  -43.6477  -60.1141 H         1 UNK         0.0892 
     68 H68        34.2247  -42.3308  -60.0789 H         1 UNK         0.0892 
     69 H69        35.4272  -42.4750  -58.7958 H         1 UNK         0.0892 
     70 H70        34.5785  -43.3156  -56.9154 H         1 UNK         0.3107 
     71 H71        32.0167  -44.4727  -56.6613 H         1 UNK         0.0773 
     72 H72        34.4036  -44.4044  -54.7214 H         1 UNK         0.0680 
     73 H73        32.8142  -44.9636  -54.2757 H         1 UNK         0.0680 
     74 H74        31.8451  -41.7641  -52.5755 H         1 UNK         0.0650 
     75 H75        32.8427  -43.1668  -52.2751 H         1 UNK         0.0650 
     76 H76        31.0879  -44.0287  -50.7905 H         1 UNK         0.1397 
     77 H77        27.5712  -45.7233  -52.5597 H         1 UNK         0.1363 
     78 H78        30.2631  -43.4106  -54.9535 H         1 UNK         0.1355 
     79 H79        28.5475  -44.9128  -55.9864 H         1 UNK         0.0707 
     80 H80        27.4184  -45.7712  -54.9845 H         1 UNK         0.0707 
     81 H81        27.3782  -41.2402  -55.5329 H         1 UNK         0.1034 
     82 H82        28.6869  -42.2971  -55.9516 H         1 UNK         0.1034 
     83 H83        26.2358  -41.7169  -57.6668 H         1 UNK         0.0482 
     84 H84        28.3046  -41.5449  -60.0219 H         1 UNK         0.3460 
     85 H85        28.8637  -39.8980  -59.8504 H         1 UNK         0.3460 
     86 H86        26.5972  -43.5945  -58.7438 H         1 UNK         0.2989 
     87 H87        28.0166  -45.1378  -60.2000 H         1 UNK         0.0559 
     88 H88        29.5849  -47.0341  -59.7800 H         1 UNK         0.0848 
     89 H89        30.1790  -46.2382  -58.3235 H         1 UNK         0.0848 
     90 H90        30.4536  -45.5130  -59.8992 H         1 UNK         0.0848 
     91 H91        27.8282  -46.7345  -57.7300 H         1 UNK         0.3144 
     92 H92        25.5030  -46.4662  -56.4913 H         1 UNK         0.0727 
     93 H93        23.5263  -47.1829  -58.7172 H         1 UNK         0.0790 
     94 H94        23.4340  -45.7788  -57.6625 H         1 UNK         0.0790 
     95 H95        23.2461  -47.3858  -56.9868 H         1 UNK         0.0790 
     96 H96        25.1193  -48.9243  -57.9697 H         1 UNK         0.3215 
     97 H97        26.0935  -50.7675  -56.9805 H         1 UNK         0.0863 
     98 H98        27.9116  -51.7061  -58.4482 H         1 UNK         0.0808 
     99 H99        28.7295  -50.1457  -58.4534 H         1 UNK         0.0808 
    100 H100       27.1545  -50.3198  -59.2142 H         1 UNK         0.0808 
    101 H101       28.4774  -49.9740  -55.5152 H         1 UNK         0.3118 
    102 H102       28.1151  -52.6069  -53.3285 H         1 UNK         0.0546 
    103 H103       30.5327  -52.7602  -55.1990 H         1 UNK         0.0828 
    104 H104       29.3875  -54.0678  -54.9314 H         1 UNK         0.0828 
    105 H105       30.3833  -53.5011  -53.6053 H         1 UNK         0.0828 
    106 H106       30.3929  -51.0021  -53.4510 H         1 UNK         0.3005 
    107 H107       29.8392  -48.1792  -52.7826 H         1 UNK         0.1257 
    108 H108       28.4420  -49.0758  -50.2105 H         1 UNK         0.0775 
    109 H109       27.9301  -47.8043  -51.2767 H         1 UNK         0.0775 
    110 H110       27.8481  -45.7055  -50.1126 H         1 UNK         0.0840 
    111 H111       29.1902  -44.8607  -49.3934 H         1 UNK         0.0840 
    112 H112       31.7065  -49.1404  -52.1324 H         1 UNK         0.2987 
    113 H113       32.9045  -50.3826  -49.6708 H         1 UNK         0.0785 
    114 H114       32.0982  -52.6641  -49.2114 H         1 UNK         0.0798 
    115 H115       33.6911  -52.7560  -49.9406 H         1 UNK         0.0798 
    116 H116       32.2569  -53.1138  -50.9021 H         1 UNK         0.0798 
    117 H117       34.2284  -50.0304  -51.4021 H         1 UNK         0.3079 
    118 H118       35.0140  -49.7860  -53.3925 H         1 UNK         0.0794 
    119 H119       35.8698  -52.1369  -53.5215 H         1 UNK         0.0786 
    120 H120       36.1217  -51.2865  -55.0369 H         1 UNK         0.0786 
    121 H121       34.8126  -52.4603  -54.8880 H         1 UNK         0.0786 
    122 H122       33.9237  -50.3754  -55.9341 H         1 UNK         0.3032 
    123 H123       32.8724  -48.8117  -57.1325 H         1 UNK         0.1094 
    124 H124       30.3795  -48.6968  -57.3371 H         1 UNK         0.0794 
    125 H125       30.8618  -50.0978  -56.3921 H         1 UNK         0.0794 
    126 H126       30.2262  -48.6705  -55.5816 H         1 UNK         0.0794 
    127 H127       31.3596  -46.5563  -56.0542 H         1 UNK         0.3016 
@<TRIPOS>BOND
     1    1    2 1    
     2    1   67 1    
     3    1   68 1    
     4    1   69 1    
     5    2    3 2    
     6    2    4 am   BACKBONE|DICT|INTERRES
     7    4    5 1    
     8    4   70 1    
     9    5    6 1    
    10    5   65 1    
    11    5   71 1    
    12    6    7 1    
    13    6   72 1    
    14    6   73 1    
    15    7    8 1    
    16    8    9 1    
    17    8   74 1    
    18    8   75 1    
    19    9   10 ar   
    20    9   14 ar   
    21   10   11 ar   
    22   10   76 1    
    23   11   12 ar   
    24   11   48 1    
    25   12   13 ar   
    26   12   77 1    
    27   13   14 ar   
    28   13   15 1    
    29   14   78 1    
    30   15   16 1    
    31   15   79 1    
    32   15   80 1    
    33   16   17 1    
    34   17   18 1    
    35   17   81 1    
    36   17   82 1    
    37   18   19 1    
    38   18   22 1    
    39   18   83 1    
    40   19   20 am   BACKBONE|DICT|INTERRES
    41   19   21 2    
    42   20   84 1    
    43   20   85 1    
    44   22   23 am   BACKBONE|DICT|INTERRES
    45   22   86 1    
    46   23   24 2    
    47   23   25 1    
    48   25   26 1    
    49   25   27 1    
    50   25   87 1    
    51   26   88 1    
    52   26   89 1    
    53   26   90 1    
    54   27   28 am   BACKBONE|DICT|INTERRES
    55   27   91 1    
    56   28   29 2    
    57   28   30 1    
    58   30   31 1    
    59   30   32 1    
    60   30   92 1    
    61   31   93 1    
    62   31   94 1    
    63   31   95 1    
    64   32   33 am   BACKBONE|DICT|INTERRES
    65   32   96 1    
    66   33   34 2    
    67   33   35 1    
    68   35   36 1    
    69   35   37 1    
    70   35   97 1    
    71   36   98 1    
    72   36   99 1    
    73   36  100 1    
    74   37   38 am   BACKBONE|DICT|INTERRES
    75   37  101 1    
    76   38   39 2    
    77   38   40 1    
    78   40   41 1    
    79   40   42 1    
    80   40  102 1    
    81   41  103 1    
    82   41  104 1    
    83   41  105 1    
    84   42   43 am   BACKBONE|DICT|INTERRES
    85   42  106 1    
    86   43   44 2    
    87   43   45 1    
    88   45   46 1    
    89   45   49 1    
    90   45  107 1    
    91   46   47 1    
    92   46  108 1    
    93   46  109 1    
    94   47   48 1    
    95   48  110 1    
    96   48  111 1    
    97   49   50 am   BACKBONE|DICT|INTERRES
    98   49  112 1    
    99   50   51 2    
   100   50   52 1    
   101   52   53 1    
   102   52   54 1    
   103   52  113 1    
   104   53  114 1    
   105   53  115 1    
   106   53  116 1    
   107   54   55 am   BACKBONE|DICT|INTERRES
   108   54  117 1    
   109   55   56 2    
   110   55   57 1    
   111   57   58 1    
   112   57   59 1    
   113   57  118 1    
   114   58  119 1    
   115   58  120 1    
   116   58  121 1    
   117   59   60 am   BACKBONE|DICT|INTERRES
   118   59  122 1    
   119   60   61 2    
   120   60   62 1    
   121   62   63 1    
   122   62   64 1    
   123   62  123 1    
   124   63  124 1    
   125   63  125 1    
   126   63  126 1    
   127   64   65 am   BACKBONE|DICT|INTERRES
   128   64  127 1    
   129   65   66 2    
@<TRIPOS>SUBSTRUCTURE
     1 UNK         1 GROUP             0       ****    0 ROOT    
