@<TRIPOS>MOLECULE
3R134
127   129    1
SMALL
USER_CHARGES


@<TRIPOS>ATOM
      1 CA         36.0823  -43.1739  -51.0980 C.3       0 UNK        -0.1968 
      2 C          36.0539  -44.5021  -50.3460 C.2       0 UNK         0.4852 
      3 O          36.2247  -44.5101  -49.1276 O.2       0 UNK        -0.5359 
      4 N          35.8515  -45.6418  -51.0168 N.am      1 UNK        -0.4300 
      5 CA         35.6792  -45.8102  -52.4584 C.3       1 UNK         0.0863 
      6 C6         34.2101  -45.5756  -52.9023 C.3       11 UNK        -0.0953 
      7 S7         34.0925  -45.0710  -54.6521 S.3       11 UNK        -0.2369 
      8 C8         33.2628  -43.4557  -54.5315 C.3       11 UNK         0.0226 
      9 C9         31.7506  -43.6060  -54.4482 C.ar      11 UNK        -0.0699 
     10 C10        31.1055  -43.6744  -53.2094 C.ar      11 UNK        -0.0804 
     11 C11        29.7132  -43.7917  -53.1382 C.ar      11 UNK        -0.0871 
     12 C12        28.9650  -43.8406  -54.3190 C.ar      11 UNK        -0.1008 
     13 C13        29.6001  -43.7701  -55.5626 C.ar      11 UNK        -0.0735 
     14 C14        30.9916  -43.6555  -55.6207 C.ar      11 UNK        -0.0945 
     15 C15        28.7876  -43.8221  -56.8456 C.3       11 UNK         0.0169 
     16 S16        28.0649  -42.2024  -57.2385 S.3       11 UNK        -0.2669 
     17 C17        27.6037  -42.4234  -58.9912 C.3       11 UNK        -0.0850 
     18 CA         26.2016  -43.0604  -59.1629 C.3       10 UNK         0.0855 
     19 C          25.6584  -42.8358  -60.5996 C.2       10 UNK         0.5543 
     20 N          24.9457  -41.7412  -60.8264 N.am      10 UNK        -0.7343 
     21 O          25.9097  -43.6173  -61.5152 O.2       10 UNK        -0.5027 
     22 N          26.2237  -44.4880  -58.8209 N.am      10 UNK        -0.4495 
     23 C          25.1592  -45.2024  -58.4500 C.2       10 UNK         0.4903 
     24 O          24.0465  -44.7110  -58.2562 O.2       10 UNK        -0.4860 
     25 CA         25.3397  -46.7187  -58.2490 C.3       9 UNK         0.0227 
     26 CB         24.8462  -47.4948  -59.4850 C.3       9 UNK        -0.1964 
     27 N          26.6775  -47.1789  -57.8452 N.am      9 UNK        -0.4231 
     28 C          27.8315  -47.1782  -58.5303 C.2       9 UNK         0.5014 
     29 O          27.9974  -46.5860  -59.5967 O.2       9 UNK        -0.5270 
     30 CA         28.9965  -47.9951  -57.9358 C.3       8 UNK         0.0284 
     31 CB         29.8827  -47.1343  -57.0229 C.3       8 UNK        -0.1977 
     32 N          28.5459  -49.1722  -57.1904 N.am      8 UNK        -0.4342 
     33 C          27.9428  -50.2429  -57.7269 C.2       8 UNK         0.5039 
     34 O          27.7559  -50.3974  -58.9342 O.2       8 UNK        -0.5547 
     35 CA         27.4429  -51.3107  -56.7428 C.3       7 UNK         0.0281 
     36 CB         28.5880  -52.2445  -56.3144 C.3       7 UNK        -0.1963 
     37 N          26.8318  -50.6961  -55.5620 N.am      7 UNK        -0.4444 
     38 C          25.5746  -50.2323  -55.5172 C.2       7 UNK         0.5104 
     39 O          24.7728  -50.3368  -56.4453 O.2       7 UNK        -0.5100 
     40 CA         25.1295  -49.5281  -54.2214 C.3       6 UNK         0.0396 
     41 CB         24.4557  -50.5316  -53.2724 C.3       6 UNK        -0.1801 
     42 N          26.2232  -48.8548  -53.5152 N.am      6 UNK        -0.4747 
     43 C          26.8495  -47.7527  -53.9542 C.2       6 UNK         0.5012 
     44 O          26.5516  -47.1683  -54.9946 O.2       6 UNK        -0.5003 
     45 CA         28.0469  -47.2528  -53.1201 C.3       5 UNK         0.0782 
     46 C46        27.5708  -46.2554  -52.0377 C.3       11 UNK        -0.0868 
     47 S47        28.9547  -45.5204  -51.1016 S.3       11 UNK        -0.2515 
     48 C48        29.0224  -43.8330  -51.7827 C.3       11 UNK         0.0199 
     49 N          28.8502  -48.3485  -52.5577 N.am      5 UNK        -0.4607 
     50 C          29.4542  -49.2970  -53.2827 C.2       4 UNK         0.5031 
     51 O          29.3172  -49.4151  -54.5020 O.2       4 UNK        -0.5119 
     52 CA         30.3138  -50.3183  -52.5222 C.3       4 UNK         0.0263 
     53 CB         29.4817  -51.5676  -52.1901 C.3       4 UNK        -0.1967 
     54 N          31.4813  -50.7121  -53.3151 N.am      4 UNK        -0.4237 
     55 C          32.4745  -49.8767  -53.6445 C.2       3 UNK         0.4908 
     56 O          32.5703  -48.7246  -53.2157 O.2       3 UNK        -0.5102 
     57 CA         33.5193  -50.4079  -54.6320 C.3       3 UNK         0.0241 
     58 CB         32.9332  -50.5171  -56.0524 C.3       3 UNK        -0.1971 
     59 N          34.6508  -49.4857  -54.6449 N.am      3 UNK        -0.4139 
     60 C          35.9388  -49.8189  -54.7706 C.2       2 UNK         0.5016 
     61 O          36.3307  -50.9726  -54.9534 O.2       2 UNK        -0.5319 
     62 CA         36.9750  -48.6804  -54.6900 C.3       2 UNK         0.0286 
     63 CB         37.5621  -48.3920  -56.0820 C.3       2 UNK        -0.1963 
     64 N          36.4534  -47.4271  -54.1302 N.am      2 UNK        -0.4790 
     65 C          36.1904  -47.2150  -52.8341 C.2       1 UNK         0.5024 
     66 O          36.3397  -48.0724  -51.9585 O.2       1 UNK        -0.4888 
     67 H67        35.2130  -43.0592  -51.7426 H         1 UNK         0.0892 
     68 H68        36.0836  -42.3389  -50.3977 H         1 UNK         0.0892 
     69 H69        36.9825  -43.0990  -51.7073 H         1 UNK         0.0892 
     70 H70        35.8942  -46.5254  -50.5229 H         1 UNK         0.3107 
     71 H71        36.3343  -45.0957  -52.9609 H         1 UNK         0.0773 
     72 H72        33.7497  -44.8033  -52.2875 H         1 UNK         0.0680 
     73 H73        33.5957  -46.4603  -52.7395 H         1 UNK         0.0680 
     74 H74        33.5225  -42.8683  -55.4135 H         1 UNK         0.0650 
     75 H75        33.6443  -42.8950  -53.6774 H         1 UNK         0.0650 
     76 H76        31.6848  -43.6298  -52.2977 H         1 UNK         0.1397 
     77 H77        27.8875  -43.9231  -54.2746 H         1 UNK         0.1363 
     78 H78        31.4866  -43.6003  -56.5807 H         1 UNK         0.1355 
     79 H79        29.4136  -44.1490  -57.6765 H         1 UNK         0.0707 
     80 H80        27.9918  -44.5601  -56.7406 H         1 UNK         0.0707 
     81 H81        27.6269  -41.4292  -59.4423 H         1 UNK         0.1034 
     82 H82        28.3666  -43.0018  -59.5158 H         1 UNK         0.1034 
     83 H83        25.5190  -42.5583  -58.4736 H         1 UNK         0.0482 
     84 H84        24.7416  -41.0886  -60.0851 H         1 UNK         0.3460 
     85 H85        24.5959  -41.5676  -61.7560 H         1 UNK         0.3460 
     86 H86        27.0585  -45.0067  -59.0752 H         1 UNK         0.2989 
     87 H87        24.6895  -46.9905  -57.4158 H         1 UNK         0.0559 
     88 H88        25.4453  -47.2735  -60.3689 H         1 UNK         0.0848 
     89 H89        23.8129  -47.2374  -59.7212 H         1 UNK         0.0848 
     90 H90        24.8818  -48.5714  -59.3155 H         1 UNK         0.0848 
     91 H91        26.7086  -47.5567  -56.9025 H         1 UNK         0.3144 
     92 H92        29.6089  -48.3475  -58.7683 H         1 UNK         0.0727 
     93 H93        29.3167  -46.7107  -56.1933 H         1 UNK         0.0790 
     94 H94        30.3301  -46.3108  -57.5791 H         1 UNK         0.0790 
     95 H95        30.7023  -47.7158  -56.5999 H         1 UNK         0.0790 
     96 H96        28.7304  -49.1779  -56.1877 H         1 UNK         0.3215 
     97 H97        26.6913  -51.9149  -57.2561 H         1 UNK         0.0863 
     98 H98        28.2333  -53.0218  -55.6377 H         1 UNK         0.0808 
     99 H99        29.3930  -51.7059  -55.8143 H         1 UNK         0.0808 
    100 H100       29.0236  -52.7441  -57.1808 H         1 UNK         0.0808 
    101 H101       27.4463  -50.5039  -54.7823 H         1 UNK         0.3118 
    102 H102       24.3903  -48.7724  -54.4962 H         1 UNK         0.0546 
    103 H103       25.1484  -51.3075  -52.9442 H         1 UNK         0.0828 
    104 H104       23.6182  -51.0298  -53.7630 H         1 UNK         0.0828 
    105 H105       24.0598  -50.0362  -52.3858 H         1 UNK         0.0828 
    106 H106       26.5377  -49.2721  -52.6508 H         1 UNK         0.3005 
    107 H107       28.6991  -46.7122  -53.8095 H         1 UNK         0.1257 
    108 H108       26.9128  -46.7543  -51.3236 H         1 UNK         0.0775 
    109 H109       26.9749  -45.4573  -52.4844 H         1 UNK         0.0775 
    110 H110       28.0173  -43.4131  -51.8468 H         1 UNK         0.0840 
    111 H111       29.5641  -43.1977  -51.0801 H         1 UNK         0.0840 
    112 H112       29.0120  -48.3093  -51.5616 H         1 UNK         0.2987 
    113 H113       30.6661  -49.8665  -51.5923 H         1 UNK         0.0785 
    114 H114       28.6165  -51.3109  -51.5774 H         1 UNK         0.0798 
    115 H115       30.0673  -52.2962  -51.6292 H         1 UNK         0.0798 
    116 H116       29.1094  -52.0583  -53.0905 H         1 UNK         0.0798 
    117 H117       31.4589  -51.6324  -53.7287 H         1 UNK         0.3079 
    118 H118       33.8438  -51.3921  -54.2871 H         1 UNK         0.0794 
    119 H119       32.0916  -51.2100  -56.0834 H         1 UNK         0.0786 
    120 H120       33.6776  -50.8821  -56.7603 H         1 UNK         0.0786 
    121 H121       32.5735  -49.5525  -56.4133 H         1 UNK         0.0786 
    122 H122       34.4117  -48.5288  -54.4171 H         1 UNK         0.3032 
    123 H123       37.7833  -49.0329  -54.0448 H         1 UNK         0.1094 
    124 H124       38.3570  -47.6476  -56.0321 H         1 UNK         0.0794 
    125 H125       37.9939  -49.2936  -56.5193 H         1 UNK         0.0794 
    126 H126       36.8012  -48.0274  -56.7734 H         1 UNK         0.0794 
    127 H127       36.2744  -46.6784  -54.7862 H         1 UNK         0.3016 
@<TRIPOS>BOND
     1    1    2 1    
     2    1   67 1    
     3    1   68 1    
     4    1   69 1    
     5    2    3 2    
     6    2    4 am   BACKBONE|DICT|INTERRES
     7    4    5 1    
     8    4   70 1    
     9    5    6 1    
    10    5   65 1    
    11    5   71 1    
    12    6    7 1    
    13    6   72 1    
    14    6   73 1    
    15    7    8 1    
    16    8    9 1    
    17    8   74 1    
    18    8   75 1    
    19    9   10 ar   
    20    9   14 ar   
    21   10   11 ar   
    22   10   76 1    
    23   11   12 ar   
    24   11   48 1    
    25   12   13 ar   
    26   12   77 1    
    27   13   14 ar   
    28   13   15 1    
    29   14   78 1    
    30   15   16 1    
    31   15   79 1    
    32   15   80 1    
    33   16   17 1    
    34   17   18 1    
    35   17   81 1    
    36   17   82 1    
    37   18   19 1    
    38   18   22 1    
    39   18   83 1    
    40   19   20 am   BACKBONE|DICT|INTERRES
    41   19   21 2    
    42   20   84 1    
    43   20   85 1    
    44   22   23 am   BACKBONE|DICT|INTERRES
    45   22   86 1    
    46   23   24 2    
    47   23   25 1    
    48   25   26 1    
    49   25   27 1    
    50   25   87 1    
    51   26   88 1    
    52   26   89 1    
    53   26   90 1    
    54   27   28 am   BACKBONE|DICT|INTERRES
    55   27   91 1    
    56   28   29 2    
    57   28   30 1    
    58   30   31 1    
    59   30   32 1    
    60   30   92 1    
    61   31   93 1    
    62   31   94 1    
    63   31   95 1    
    64   32   33 am   BACKBONE|DICT|INTERRES
    65   32   96 1    
    66   33   34 2    
    67   33   35 1    
    68   35   36 1    
    69   35   37 1    
    70   35   97 1    
    71   36   98 1    
    72   36   99 1    
    73   36  100 1    
    74   37   38 am   BACKBONE|DICT|INTERRES
    75   37  101 1    
    76   38   39 2    
    77   38   40 1    
    78   40   41 1    
    79   40   42 1    
    80   40  102 1    
    81   41  103 1    
    82   41  104 1    
    83   41  105 1    
    84   42   43 am   BACKBONE|DICT|INTERRES
    85   42  106 1    
    86   43   44 2    
    87   43   45 1    
    88   45   46 1    
    89   45   49 1    
    90   45  107 1    
    91   46   47 1    
    92   46  108 1    
    93   46  109 1    
    94   47   48 1    
    95   48  110 1    
    96   48  111 1    
    97   49   50 am   BACKBONE|DICT|INTERRES
    98   49  112 1    
    99   50   51 2    
   100   50   52 1    
   101   52   53 1    
   102   52   54 1    
   103   52  113 1    
   104   53  114 1    
   105   53  115 1    
   106   53  116 1    
   107   54   55 am   BACKBONE|DICT|INTERRES
   108   54  117 1    
   109   55   56 2    
   110   55   57 1    
   111   57   58 1    
   112   57   59 1    
   113   57  118 1    
   114   58  119 1    
   115   58  120 1    
   116   58  121 1    
   117   59   60 am   BACKBONE|DICT|INTERRES
   118   59  122 1    
   119   60   61 2    
   120   60   62 1    
   121   62   63 1    
   122   62   64 1    
   123   62  123 1    
   124   63  124 1    
   125   63  125 1    
   126   63  126 1    
   127   64   65 am   BACKBONE|DICT|INTERRES
   128   64  127 1    
   129   65   66 2    
@<TRIPOS>SUBSTRUCTURE
     1 UNK         1 GROUP             0       ****    0 ROOT    
