@<TRIPOS>MOLECULE
3R134
127   129    1
SMALL
USER_CHARGES


@<TRIPOS>ATOM
      1 CA         28.9378  -48.7004  -50.5852 C.3       0 UNK        -0.1968 
      2 C          30.1439  -48.2019  -51.3666 C.2       0 UNK         0.4852 
      3 O          30.1768  -48.3388  -52.5911 O.2       0 UNK        -0.5359 
      4 N          31.1111  -47.5973  -50.6641 N.am      1 UNK        -0.4300 
      5 CA         32.4123  -47.1301  -51.1581 C.3       1 UNK         0.0863 
      6 C6         32.3159  -46.1997  -52.4024 C.3       11 UNK        -0.0953 
      7 S7         33.6135  -44.9188  -52.4039 S.3       11 UNK        -0.2369 
      8 C8         32.6426  -43.3738  -52.5613 C.3       11 UNK         0.0226 
      9 C9         32.0726  -43.1171  -53.9582 C.ar      11 UNK        -0.0699 
     10 C10        32.7557  -43.5285  -55.1089 C.ar      11 UNK        -0.0804 
     11 C11        32.2175  -43.3015  -56.3774 C.ar      11 UNK        -0.0871 
     12 C12        31.0297  -42.5847  -56.5007 C.ar      11 UNK        -0.1008 
     13 C13        30.3263  -42.1702  -55.3686 C.ar      11 UNK        -0.0735 
     14 C14        30.8551  -42.4368  -54.0993 C.ar      11 UNK        -0.0945 
     15 C15        28.9992  -41.4379  -55.5306 C.3       11 UNK         0.0169 
     16 S16        27.6099  -42.5753  -55.8657 S.3       11 UNK        -0.2669 
     17 C17        28.0043  -43.1782  -57.5472 C.3       11 UNK        -0.0850 
     18 CA         26.7760  -43.6789  -58.3498 C.3       10 UNK         0.0855 
     19 C          27.1640  -44.0370  -59.8168 C.2       10 UNK         0.5543 
     20 N          26.8713  -45.2297  -60.3242 N.am      10 UNK        -0.7343 
     21 O          27.7324  -43.2040  -60.5184 O.2       10 UNK        -0.5027 
     22 N          26.0529  -44.7511  -57.6493 N.am      10 UNK        -0.4495 
     23 C          24.7438  -44.9886  -57.7976 C.2       10 UNK         0.4903 
     24 O          23.9973  -44.2885  -58.4846 O.2       10 UNK        -0.4860 
     25 CA         24.1741  -46.2104  -57.0546 C.3       9 UNK         0.0227 
     26 CB         22.7765  -46.6251  -57.5630 C.3       9 UNK        -0.1964 
     27 N          25.0782  -47.3663  -57.0366 N.am      9 UNK        -0.4231 
     28 C          25.5543  -48.0588  -58.0840 C.2       9 UNK         0.5014 
     29 O          25.3536  -47.7297  -59.2544 O.2       9 UNK        -0.5270 
     30 CA         26.3931  -49.3275  -57.7972 C.3       8 UNK         0.0284 
     31 CB         27.6103  -49.4263  -58.7347 C.3       8 UNK        -0.1977 
     32 N          26.8544  -49.4329  -56.4099 N.am      8 UNK        -0.4342 
     33 C          26.1150  -49.8105  -55.3576 C.2       8 UNK         0.5039 
     34 O          24.9665  -50.2432  -55.4480 O.2       8 UNK        -0.5547 
     35 CA         26.7298  -49.5767  -53.9645 C.3       7 UNK         0.0281 
     36 CB         27.5024  -50.8165  -53.4883 C.3       7 UNK        -0.1963 
     37 N          27.5952  -48.3896  -53.9296 N.am      7 UNK        -0.4444 
     38 C          27.1654  -47.1345  -54.1360 C.2       7 UNK         0.5104 
     39 O          25.9775  -46.8380  -54.2557 O.2       7 UNK        -0.5100 
     40 CA         28.2255  -46.0368  -54.3125 C.3       6 UNK         0.0396 
     41 CB         28.4800  -45.2798  -53.0017 C.3       6 UNK        -0.1801 
     42 N          29.4766  -46.5662  -54.8666 N.am      6 UNK        -0.4747 
     43 C          29.6614  -46.7783  -56.1799 C.2       6 UNK         0.5012 
     44 O          28.8084  -46.5114  -57.0277 O.2       6 UNK        -0.5003 
     45 CA         30.9694  -47.4725  -56.6218 C.3       5 UNK         0.0782 
     46 C46        32.1520  -46.5044  -56.8578 C.3       11 UNK        -0.0868 
     47 S47        31.9360  -45.3253  -58.2333 S.3       11 UNK        -0.2515 
     48 C48        32.8751  -43.8851  -57.6174 C.3       11 UNK         0.0199 
     49 N          31.3869  -48.5089  -55.6811 N.am      5 UNK        -0.4607 
     50 C          30.8041  -49.6995  -55.5141 C.2       4 UNK         0.5031 
     51 O          29.7531  -50.0177  -56.0700 O.2       4 UNK        -0.5119 
     52 CA         31.5286  -50.6894  -54.5736 C.3       4 UNK         0.0263 
     53 CB         31.2882  -52.1631  -54.9645 C.3       4 UNK        -0.1967 
     54 N          32.9668  -50.3973  -54.4227 N.am      4 UNK        -0.4237 
     55 C          33.9069  -50.4388  -55.3855 C.2       3 UNK         0.4908 
     56 O          33.6896  -50.8446  -56.5275 O.2       3 UNK        -0.5102 
     57 CA         35.3121  -49.8910  -55.0604 C.3       3 UNK         0.0241 
     58 CB         35.7575  -48.8585  -56.1128 C.3       3 UNK        -0.1971 
     59 N          35.3933  -49.2601  -53.7419 N.am      3 UNK        -0.4139 
     60 C          35.8411  -49.8521  -52.6293 C.2       2 UNK         0.5016 
     61 O          36.2692  -51.0057  -52.5863 O.2       2 UNK        -0.5319 
     62 CA         35.7820  -49.0170  -51.3363 C.3       2 UNK         0.0286 
     63 CB         37.1245  -48.3077  -51.0962 C.3       2 UNK        -0.1963 
     64 N          34.6972  -48.0240  -51.2925 N.am      2 UNK        -0.4790 
     65 C          33.3897  -48.3102  -51.3665 C.2       1 UNK         0.5024 
     66 O          32.9678  -49.4474  -51.5893 O.2       1 UNK        -0.4888 
     67 H67        28.0141  -48.4013  -51.0791 H         1 UNK         0.0892 
     68 H68        28.9591  -49.7875  -50.5227 H         1 UNK         0.0892 
     69 H69        28.9183  -48.3029  -49.5708 H         1 UNK         0.0892 
     70 H70        31.0018  -47.5342  -49.6616 H         1 UNK         0.3107 
     71 H71        32.8075  -46.5463  -50.3250 H         1 UNK         0.0773 
     72 H72        32.3642  -46.7631  -53.3352 H         1 UNK         0.0680 
     73 H73        31.3508  -45.6932  -52.4154 H         1 UNK         0.0680 
     74 H74        31.8438  -43.3841  -51.8181 H         1 UNK         0.0650 
     75 H75        33.2915  -42.5363  -52.3031 H         1 UNK         0.0650 
     76 H76        33.6923  -44.0608  -55.0219 H         1 UNK         0.1397 
     77 H77        30.6371  -42.3897  -57.4875 H         1 UNK         0.1363 
     78 H78        30.3168  -42.1128  -53.2192 H         1 UNK         0.1355 
     79 H79        28.7732  -40.8724  -54.6254 H         1 UNK         0.0707 
     80 H80        29.0733  -40.7035  -56.3341 H         1 UNK         0.0707 
     81 H81        28.4734  -42.3577  -58.0921 H         1 UNK         0.1034 
     82 H82        28.7541  -43.9663  -57.4700 H         1 UNK         0.1034 
     83 H83        26.0999  -42.8259  -58.4350 H         1 UNK         0.0482 
     84 H84        27.1282  -45.4333  -61.2765 H         1 UNK         0.3460 
     85 H85        26.3794  -45.9258  -59.7777 H         1 UNK         0.3460 
     86 H86        26.6199  -45.3896  -57.1084 H         1 UNK         0.2989 
     87 H87        24.0623  -45.9002  -56.0150 H         1 UNK         0.0559 
     88 H88        22.0606  -45.8097  -57.4527 H         1 UNK         0.0848 
     89 H89        22.3857  -47.4739  -57.0019 H         1 UNK         0.0848 
     90 H90        22.7954  -46.9002  -58.6182 H         1 UNK         0.0848 
     91 H91        25.3449  -47.6710  -56.1077 H         1 UNK         0.3144 
     92 H92        25.7454  -50.1817  -58.0037 H         1 UNK         0.0727 
     93 H93        28.2750  -48.5696  -58.6247 H         1 UNK         0.0790 
     94 H94        27.3008  -49.4653  -59.7799 H         1 UNK         0.0790 
     95 H95        28.1914  -50.3276  -58.5379 H         1 UNK         0.0790 
     96 H96        27.8213  -49.1774  -56.2394 H         1 UNK         0.3215 
     97 H97        25.9062  -49.4045  -53.2681 H         1 UNK         0.0863 
     98 H98        27.8864  -50.6857  -52.4783 H         1 UNK         0.0808 
     99 H99        28.3436  -51.0476  -54.1390 H         1 UNK         0.0808 
    100 H100       26.8547  -51.6941  -53.4748 H         1 UNK         0.0808 
    101 H101       28.5876  -48.5351  -53.7684 H         1 UNK         0.3118 
    102 H102       27.8155  -45.3139  -55.0183 H         1 UNK         0.0546 
    103 H103       28.8120  -45.9340  -52.2000 H         1 UNK         0.0828 
    104 H104       27.5674  -44.7905  -52.6594 H         1 UNK         0.0828 
    105 H105       29.2295  -44.5019  -53.1356 H         1 UNK         0.0828 
    106 H106       30.1580  -46.9170  -54.2041 H         1 UNK         0.3005 
    107 H107       30.7515  -47.9679  -57.5712 H         1 UNK         0.1257 
    108 H108       32.3783  -45.9814  -55.9312 H         1 UNK         0.0775 
    109 H109       33.0488  -47.0789  -57.0944 H         1 UNK         0.0775 
    110 H110       33.9053  -44.1813  -57.4134 H         1 UNK         0.0840 
    111 H111       32.9216  -43.1260  -58.3997 H         1 UNK         0.0840 
    112 H112       32.2342  -48.3328  -55.1661 H         1 UNK         0.2987 
    113 H113       31.0901  -50.5452  -53.5859 H         1 UNK         0.0785 
    114 H114       30.2283  -52.4137  -54.9139 H         1 UNK         0.0798 
    115 H115       31.8124  -52.8422  -54.2924 H         1 UNK         0.0798 
    116 H116       31.6182  -52.3742  -55.9819 H         1 UNK         0.0798 
    117 H117       33.2340  -50.0790  -53.4958 H         1 UNK         0.3079 
    118 H118       35.9997  -50.7378  -55.1094 H         1 UNK         0.0794 
    119 H119       36.7720  -48.5099  -55.9181 H         1 UNK         0.0786 
    120 H120       35.1029  -47.9872  -56.1287 H         1 UNK         0.0786 
    121 H121       35.7557  -49.2875  -57.1158 H         1 UNK         0.0786 
    122 H122       35.0761  -48.3042  -53.6695 H         1 UNK         0.3032 
    123 H123       35.6153  -49.7185  -50.5157 H         1 UNK         0.1094 
    124 H124       37.3321  -47.5639  -51.8664 H         1 UNK         0.0794 
    125 H125       37.1414  -47.8048  -50.1291 H         1 UNK         0.0794 
    126 H126       37.9501  -49.0210  -51.1013 H         1 UNK         0.0794 
    127 H127       34.9705  -47.0632  -51.1352 H         1 UNK         0.3016 
@<TRIPOS>BOND
     1    1    2 1    
     2    1   67 1    
     3    1   68 1    
     4    1   69 1    
     5    2    3 2    
     6    2    4 am   BACKBONE|DICT|INTERRES
     7    4    5 1    
     8    4   70 1    
     9    5    6 1    
    10    5   65 1    
    11    5   71 1    
    12    6    7 1    
    13    6   72 1    
    14    6   73 1    
    15    7    8 1    
    16    8    9 1    
    17    8   74 1    
    18    8   75 1    
    19    9   10 ar   
    20    9   14 ar   
    21   10   11 ar   
    22   10   76 1    
    23   11   12 ar   
    24   11   48 1    
    25   12   13 ar   
    26   12   77 1    
    27   13   14 ar   
    28   13   15 1    
    29   14   78 1    
    30   15   16 1    
    31   15   79 1    
    32   15   80 1    
    33   16   17 1    
    34   17   18 1    
    35   17   81 1    
    36   17   82 1    
    37   18   19 1    
    38   18   22 1    
    39   18   83 1    
    40   19   20 am   BACKBONE|DICT|INTERRES
    41   19   21 2    
    42   20   84 1    
    43   20   85 1    
    44   22   23 am   BACKBONE|DICT|INTERRES
    45   22   86 1    
    46   23   24 2    
    47   23   25 1    
    48   25   26 1    
    49   25   27 1    
    50   25   87 1    
    51   26   88 1    
    52   26   89 1    
    53   26   90 1    
    54   27   28 am   BACKBONE|DICT|INTERRES
    55   27   91 1    
    56   28   29 2    
    57   28   30 1    
    58   30   31 1    
    59   30   32 1    
    60   30   92 1    
    61   31   93 1    
    62   31   94 1    
    63   31   95 1    
    64   32   33 am   BACKBONE|DICT|INTERRES
    65   32   96 1    
    66   33   34 2    
    67   33   35 1    
    68   35   36 1    
    69   35   37 1    
    70   35   97 1    
    71   36   98 1    
    72   36   99 1    
    73   36  100 1    
    74   37   38 am   BACKBONE|DICT|INTERRES
    75   37  101 1    
    76   38   39 2    
    77   38   40 1    
    78   40   41 1    
    79   40   42 1    
    80   40  102 1    
    81   41  103 1    
    82   41  104 1    
    83   41  105 1    
    84   42   43 am   BACKBONE|DICT|INTERRES
    85   42  106 1    
    86   43   44 2    
    87   43   45 1    
    88   45   46 1    
    89   45   49 1    
    90   45  107 1    
    91   46   47 1    
    92   46  108 1    
    93   46  109 1    
    94   47   48 1    
    95   48  110 1    
    96   48  111 1    
    97   49   50 am   BACKBONE|DICT|INTERRES
    98   49  112 1    
    99   50   51 2    
   100   50   52 1    
   101   52   53 1    
   102   52   54 1    
   103   52  113 1    
   104   53  114 1    
   105   53  115 1    
   106   53  116 1    
   107   54   55 am   BACKBONE|DICT|INTERRES
   108   54  117 1    
   109   55   56 2    
   110   55   57 1    
   111   57   58 1    
   112   57   59 1    
   113   57  118 1    
   114   58  119 1    
   115   58  120 1    
   116   58  121 1    
   117   59   60 am   BACKBONE|DICT|INTERRES
   118   59  122 1    
   119   60   61 2    
   120   60   62 1    
   121   62   63 1    
   122   62   64 1    
   123   62  123 1    
   124   63  124 1    
   125   63  125 1    
   126   63  126 1    
   127   64   65 am   BACKBONE|DICT|INTERRES
   128   64  127 1    
   129   65   66 2    
@<TRIPOS>SUBSTRUCTURE
     1 UNK         1 GROUP             0       ****    0 ROOT    
