@<TRIPOS>MOLECULE
3R134
127   129    1
SMALL
USER_CHARGES


@<TRIPOS>ATOM
      1 CA         30.9146  -47.1464  -57.1716 C.3       0 UNK        -0.1968 
      2 C          31.7604  -47.3407  -55.9259 C.2       0 UNK         0.4852 
      3 O          31.5202  -48.2721  -55.1521 O.2       0 UNK        -0.5359 
      4 N          32.7554  -46.4672  -55.7167 N.am      1 UNK        -0.4300 
      5 CA         33.6250  -46.4497  -54.5321 C.3       1 UNK         0.0863 
      6 C6         34.4779  -45.1555  -54.4409 C.3       11 UNK        -0.0953 
      7 S7         34.2379  -44.3276  -52.8325 S.3       11 UNK        -0.2369 
      8 C8         33.5918  -42.6979  -53.3234 C.3       11 UNK         0.0226 
      9 C9         32.2040  -42.7624  -53.9511 C.ar      11 UNK        -0.0699 
     10 C10        31.0694  -42.9225  -53.1468 C.ar      11 UNK        -0.0804 
     11 C11        29.7896  -42.8869  -53.7121 C.ar      11 UNK        -0.0871 
     12 C12        29.6518  -42.7023  -55.0896 C.ar      11 UNK        -0.1008 
     13 C13        30.7762  -42.5579  -55.9049 C.ar      11 UNK        -0.0735 
     14 C14        32.0503  -42.5906  -55.3314 C.ar      11 UNK        -0.0945 
     15 C15        30.6002  -42.3297  -57.3972 C.3       11 UNK         0.0169 
     16 S16        29.9620  -43.8246  -58.2109 S.3       11 UNK        -0.2669 
     17 C17        28.6094  -43.1347  -59.2241 C.3       11 UNK        -0.0850 
     18 CA         27.2709  -42.9496  -58.4558 C.3       10 UNK         0.0855 
     19 C          26.1752  -42.4332  -59.4341 C.2       10 UNK         0.5543 
     20 N          25.2282  -43.2607  -59.8619 N.am      10 UNK        -0.7343 
     21 O          26.1934  -41.2650  -59.8131 O.2       10 UNK        -0.5027 
     22 N          26.9040  -44.1583  -57.7030 N.am      10 UNK        -0.4495 
     23 C          25.8818  -44.2869  -56.8461 C.2       10 UNK         0.4903 
     24 O          25.1662  -43.3482  -56.4947 O.2       10 UNK        -0.4860 
     25 CA         25.6117  -45.7004  -56.2824 C.3       9 UNK         0.0227 
     26 CB         24.1046  -46.0256  -56.2165 C.3       9 UNK        -0.1964 
     27 N          26.3607  -46.7734  -56.9576 N.am      9 UNK        -0.4231 
     28 C          26.2498  -47.1511  -58.2423 C.2       9 UNK         0.5014 
     29 O          25.4248  -46.6673  -59.0189 O.2       9 UNK        -0.5270 
     30 CA         27.2500  -48.1754  -58.7995 C.3       8 UNK         0.0284 
     31 CB         28.2877  -47.4648  -59.6931 C.3       8 UNK        -0.1977 
     32 N          27.9269  -48.9986  -57.7864 N.am      8 UNK        -0.4342 
     33 C          28.4156  -50.2221  -58.0466 C.2       8 UNK         0.5039 
     34 O          28.3380  -50.7605  -59.1525 O.2       8 UNK        -0.5547 
     35 CA         29.1111  -50.9972  -56.9107 C.3       7 UNK         0.0281 
     36 CB         30.6303  -51.0967  -57.1455 C.3       7 UNK        -0.1963 
     37 N          28.8343  -50.4709  -55.5700 N.am      7 UNK        -0.4444 
     38 C          27.6739  -50.6658  -54.9260 C.2       7 UNK         0.5104 
     39 O          26.7420  -51.3187  -55.3970 O.2       7 UNK        -0.5100 
     40 CA         27.4956  -50.0381  -53.5300 C.3       6 UNK         0.0396 
     41 CB         27.5551  -51.1286  -52.4487 C.3       6 UNK        -0.1801 
     42 N          28.4253  -48.9593  -53.1754 N.am      6 UNK        -0.4747 
     43 C          28.5529  -47.7924  -53.8231 C.2       6 UNK         0.5012 
     44 O          28.0488  -47.5752  -54.9269 O.2       6 UNK        -0.5003 
     45 CA         29.4262  -46.7086  -53.1617 C.3       5 UNK         0.0782 
     46 C46        28.6172  -45.7514  -52.2436 C.3       11 UNK        -0.0868 
     47 S47        27.6218  -44.5294  -53.1549 S.3       11 UNK        -0.2515 
     48 C48        28.5445  -42.9912  -52.8439 C.3       11 UNK         0.0199 
     49 N          30.6184  -47.2938  -52.5341 N.am      5 UNK        -0.4607 
     50 C          30.7929  -47.6877  -51.2653 C.2       4 UNK         0.5031 
     51 O          29.9224  -47.6317  -50.3965 O.2       4 UNK        -0.5119 
     52 CA         32.1824  -48.2644  -50.9302 C.3       4 UNK         0.0263 
     53 CB         32.2971  -48.7491  -49.4690 C.3       4 UNK        -0.1967 
     54 N          32.5997  -49.3240  -51.8566 N.am      4 UNK        -0.4237 
     55 C          31.9430  -50.4650  -52.1243 C.2       3 UNK         0.4908 
     56 O          30.8612  -50.7646  -51.6193 O.2       3 UNK        -0.5102 
     57 CA         32.6028  -51.4285  -53.1245 C.3       3 UNK         0.0241 
     58 CB         31.5929  -52.3953  -53.7685 C.3       3 UNK        -0.1971 
     59 N          33.3183  -50.6822  -54.1630 N.am      3 UNK        -0.4139 
     60 C          34.6088  -50.8663  -54.4793 C.2       2 UNK         0.5016 
     61 O          35.3034  -51.7767  -54.0258 O.2       2 UNK        -0.5319 
     62 CA         35.2587  -49.8467  -55.4369 C.3       2 UNK         0.0286 
     63 CB         35.2528  -50.3899  -56.8750 C.3       2 UNK        -0.1963 
     64 N          34.6332  -48.5195  -55.4266 N.am      2 UNK        -0.4790 
     65 C          34.4795  -47.7259  -54.3548 C.2       1 UNK         0.5024 
     66 O          34.9194  -48.0030  -53.2386 O.2       1 UNK        -0.4888 
     67 H67        29.9239  -46.7911  -56.8917 H         1 UNK         0.0892 
     68 H68        30.8056  -48.0808  -57.7178 H         1 UNK         0.0892 
     69 H69        31.3596  -46.4194  -57.8498 H         1 UNK         0.0892 
     70 H70        32.9073  -45.7248  -56.3848 H         1 UNK         0.3107 
     71 H71        32.9362  -46.4613  -53.6873 H         1 UNK         0.0773 
     72 H72        35.5447  -45.3514  -54.5681 H         1 UNK         0.0680 
     73 H73        34.2254  -44.4591  -55.2405 H         1 UNK         0.0680 
     74 H74        33.5524  -42.0613  -52.4384 H         1 UNK         0.0650 
     75 H75        34.3017  -42.2230  -54.0024 H         1 UNK         0.0650 
     76 H76        31.1855  -43.0456  -52.0786 H         1 UNK         0.1397 
     77 H77        28.6640  -42.6687  -55.5294 H         1 UNK         0.1363 
     78 H78        32.9221  -42.4545  -55.9565 H         1 UNK         0.1355 
     79 H79        31.5434  -42.0456  -57.8662 H         1 UNK         0.0707 
     80 H80        29.9183  -41.4913  -57.5452 H         1 UNK         0.0707 
     81 H81        28.4645  -43.8116  -60.0686 H         1 UNK         0.1034 
     82 H82        28.9382  -42.1884  -59.6586 H         1 UNK         0.1034 
     83 H83        27.4183  -42.1606  -57.7163 H         1 UNK         0.0482 
     84 H84        24.5218  -42.9211  -60.4951 H         1 UNK         0.3460 
     85 H85        25.2159  -44.2238  -59.5577 H         1 UNK         0.3460 
     86 H86        27.4528  -44.9779  -57.9088 H         1 UNK         0.2989 
     87 H87        25.9810  -45.6887  -55.2577 H         1 UNK         0.0559 
     88 H88        23.9311  -47.0209  -55.8076 H         1 UNK         0.0848 
     89 H89        23.6333  -45.9779  -57.1984 H         1 UNK         0.0848 
     90 H90        23.5804  -45.3177  -55.5733 H         1 UNK         0.0848 
     91 H91        27.0722  -47.1884  -56.3597 H         1 UNK         0.3144 
     92 H92        26.6570  -48.8385  -59.4336 H         1 UNK         0.0727 
     93 H93        28.8925  -46.7560  -59.1289 H         1 UNK         0.0790 
     94 H94        27.7977  -46.9052  -60.4912 H         1 UNK         0.0790 
     95 H95        28.9617  -48.1756  -60.1712 H         1 UNK         0.0790 
     96 H96        28.0022  -48.6391  -56.8432 H         1 UNK         0.3215 
     97 H97        28.7170  -52.0149  -56.9618 H         1 UNK         0.0863 
     98 H98        31.0684  -51.9001  -56.5561 H         1 UNK         0.0808 
     99 H99        31.1529  -50.1782  -56.8918 H         1 UNK         0.0808 
    100 H100       30.8565  -51.3212  -58.1889 H         1 UNK         0.0808 
    101 H101       29.5441  -49.8959  -55.1348 H         1 UNK         0.3118 
    102 H102       26.4940  -49.6039  -53.5102 H         1 UNK         0.0546 
    103 H103       28.5212  -51.6337  -52.4399 H         1 UNK         0.0828 
    104 H104       26.7945  -51.8914  -52.6208 H         1 UNK         0.0828 
    105 H105       27.3802  -50.7182  -51.4541 H         1 UNK         0.0828 
    106 H106       28.9346  -49.0743  -52.3083 H         1 UNK         0.3005 
    107 H107       29.8203  -46.1030  -53.9798 H         1 UNK         0.1257 
    108 H108       29.2962  -45.2094  -51.5841 H         1 UNK         0.0775 
    109 H109       27.9520  -46.3114  -51.5838 H         1 UNK         0.0775 
    110 H110       27.8913  -42.1457  -53.0647 H         1 UNK         0.0840 
    111 H111       28.7906  -42.9104  -51.7840 H         1 UNK         0.0840 
    112 H112       31.3455  -47.5255  -53.1996 H         1 UNK         0.2987 
    113 H113       32.8916  -47.4448  -51.0592 H         1 UNK         0.0785 
    114 H114       31.5977  -49.5577  -49.2535 H         1 UNK         0.0798 
    115 H115       32.0822  -47.9391  -48.7708 H         1 UNK         0.0798 
    116 H116       33.3023  -49.1077  -49.2481 H         1 UNK         0.0798 
    117 H117       33.4878  -49.1628  -52.3208 H         1 UNK         0.3079 
    118 H118       33.3054  -52.0245  -52.5387 H         1 UNK         0.0794 
    119 H119       30.7732  -51.8588  -54.2420 H         1 UNK         0.0786 
    120 H120       32.0677  -53.0281  -54.5182 H         1 UNK         0.0786 
    121 H121       31.1542  -53.0556  -53.0194 H         1 UNK         0.0786 
    122 H122       32.8168  -49.9070  -54.5854 H         1 UNK         0.3032 
    123 H123       36.2957  -49.7229  -55.1169 H         1 UNK         0.1094 
    124 H124       35.7938  -49.7291  -57.5526 H         1 UNK         0.0794 
    125 H125       35.7359  -51.3669  -56.9254 H         1 UNK         0.0794 
    126 H126       34.2380  -50.5086  -57.2575 H         1 UNK         0.0794 
    127 H127       34.2270  -48.2091  -56.2973 H         1 UNK         0.3016 
@<TRIPOS>BOND
     1    1    2 1    
     2    1   67 1    
     3    1   68 1    
     4    1   69 1    
     5    2    3 2    
     6    2    4 am   BACKBONE|DICT|INTERRES
     7    4    5 1    
     8    4   70 1    
     9    5    6 1    
    10    5   65 1    
    11    5   71 1    
    12    6    7 1    
    13    6   72 1    
    14    6   73 1    
    15    7    8 1    
    16    8    9 1    
    17    8   74 1    
    18    8   75 1    
    19    9   10 ar   
    20    9   14 ar   
    21   10   11 ar   
    22   10   76 1    
    23   11   12 ar   
    24   11   48 1    
    25   12   13 ar   
    26   12   77 1    
    27   13   14 ar   
    28   13   15 1    
    29   14   78 1    
    30   15   16 1    
    31   15   79 1    
    32   15   80 1    
    33   16   17 1    
    34   17   18 1    
    35   17   81 1    
    36   17   82 1    
    37   18   19 1    
    38   18   22 1    
    39   18   83 1    
    40   19   20 am   BACKBONE|DICT|INTERRES
    41   19   21 2    
    42   20   84 1    
    43   20   85 1    
    44   22   23 am   BACKBONE|DICT|INTERRES
    45   22   86 1    
    46   23   24 2    
    47   23   25 1    
    48   25   26 1    
    49   25   27 1    
    50   25   87 1    
    51   26   88 1    
    52   26   89 1    
    53   26   90 1    
    54   27   28 am   BACKBONE|DICT|INTERRES
    55   27   91 1    
    56   28   29 2    
    57   28   30 1    
    58   30   31 1    
    59   30   32 1    
    60   30   92 1    
    61   31   93 1    
    62   31   94 1    
    63   31   95 1    
    64   32   33 am   BACKBONE|DICT|INTERRES
    65   32   96 1    
    66   33   34 2    
    67   33   35 1    
    68   35   36 1    
    69   35   37 1    
    70   35   97 1    
    71   36   98 1    
    72   36   99 1    
    73   36  100 1    
    74   37   38 am   BACKBONE|DICT|INTERRES
    75   37  101 1    
    76   38   39 2    
    77   38   40 1    
    78   40   41 1    
    79   40   42 1    
    80   40  102 1    
    81   41  103 1    
    82   41  104 1    
    83   41  105 1    
    84   42   43 am   BACKBONE|DICT|INTERRES
    85   42  106 1    
    86   43   44 2    
    87   43   45 1    
    88   45   46 1    
    89   45   49 1    
    90   45  107 1    
    91   46   47 1    
    92   46  108 1    
    93   46  109 1    
    94   47   48 1    
    95   48  110 1    
    96   48  111 1    
    97   49   50 am   BACKBONE|DICT|INTERRES
    98   49  112 1    
    99   50   51 2    
   100   50   52 1    
   101   52   53 1    
   102   52   54 1    
   103   52  113 1    
   104   53  114 1    
   105   53  115 1    
   106   53  116 1    
   107   54   55 am   BACKBONE|DICT|INTERRES
   108   54  117 1    
   109   55   56 2    
   110   55   57 1    
   111   57   58 1    
   112   57   59 1    
   113   57  118 1    
   114   58  119 1    
   115   58  120 1    
   116   58  121 1    
   117   59   60 am   BACKBONE|DICT|INTERRES
   118   59  122 1    
   119   60   61 2    
   120   60   62 1    
   121   62   63 1    
   122   62   64 1    
   123   62  123 1    
   124   63  124 1    
   125   63  125 1    
   126   63  126 1    
   127   64   65 am   BACKBONE|DICT|INTERRES
   128   64  127 1    
   129   65   66 2    
@<TRIPOS>SUBSTRUCTURE
     1 UNK         1 GROUP             0       ****    0 ROOT    
