@<TRIPOS>MOLECULE
3R134
127   129    1
SMALL
USER_CHARGES


@<TRIPOS>ATOM
      1 CA         31.8424  -43.6219  -50.1487 C.3       0 UNK        -0.1968 
      2 C          33.0066  -44.5209  -50.5337 C.2       0 UNK         0.4852 
      3 O          33.6562  -45.0932  -49.6568 O.2       0 UNK        -0.5359 
      4 N          33.2817  -44.6362  -51.8397 N.am      1 UNK        -0.4300 
      5 CA         34.3420  -45.4798  -52.3988 C.3       1 UNK         0.0863 
      6 C6         34.6475  -45.1496  -53.8804 C.3       11 UNK        -0.0953 
      7 S7         35.0824  -43.3926  -54.1245 S.3       11 UNK        -0.2369 
      8 C8         34.2163  -42.9783  -55.6799 C.3       11 UNK         0.0226 
      9 C9         32.7199  -43.2825  -55.6658 C.ar      11 UNK        -0.0699 
     10 C10        31.9228  -42.9482  -54.5651 C.ar      11 UNK        -0.0804 
     11 C11        30.5625  -43.2713  -54.5437 C.ar      11 UNK        -0.0871 
     12 C12        29.9888  -43.8800  -55.6630 C.ar      11 UNK        -0.1008 
     13 C13        30.7677  -44.2045  -56.7770 C.ar      11 UNK        -0.0735 
     14 C14        32.1330  -43.9093  -56.7696 C.ar      11 UNK        -0.0945 
     15 C15        30.1423  -44.9159  -57.9670 C.3       11 UNK         0.0169 
     16 S16        29.6339  -43.7892  -59.3111 S.3       11 UNK        -0.2669 
     17 C17        28.4610  -42.6243  -58.5189 C.3       11 UNK        -0.0850 
     18 CA         26.9919  -43.1211  -58.4339 C.3       10 UNK         0.0855 
     19 C          26.2787  -43.1529  -59.8185 C.2       10 UNK         0.5543 
     20 N          25.6952  -44.2648  -60.2517 N.am      10 UNK        -0.7343 
     21 O          26.2368  -42.1365  -60.5076 O.2       10 UNK        -0.5027 
     22 N          26.9048  -44.3719  -57.6732 N.am      10 UNK        -0.4495 
     23 C          25.8760  -44.7678  -56.9181 C.2       10 UNK         0.4903 
     24 O          24.8774  -44.0800  -56.7020 O.2       10 UNK        -0.4860 
     25 CA         26.0034  -46.1758  -56.2993 C.3       9 UNK         0.0227 
     26 CB         24.6429  -46.7713  -55.8832 C.3       9 UNK        -0.1964 
     27 N          26.7458  -47.1365  -57.1320 N.am      9 UNK        -0.4231 
     28 C          26.4637  -47.4933  -58.3960 C.2       9 UNK         0.5014 
     29 O          25.5701  -46.9848  -59.0737 O.2       9 UNK        -0.5270 
     30 CA         27.3280  -48.5995  -59.0140 C.3       8 UNK         0.0284 
     31 CB         28.5862  -48.0116  -59.6749 C.3       8 UNK        -0.1977 
     32 N          27.7105  -49.6033  -58.0179 N.am      8 UNK        -0.4342 
     33 C          27.0104  -50.7186  -57.7729 C.2       8 UNK         0.5039 
     34 O          25.9770  -51.0270  -58.3685 O.2       8 UNK        -0.5547 
     35 CA         27.5662  -51.6652  -56.6998 C.3       7 UNK         0.0281 
     36 CB         28.8535  -52.3512  -57.1892 C.3       7 UNK        -0.1963 
     37 N          27.8230  -51.0051  -55.4201 N.am      7 UNK        -0.4444 
     38 C          26.8800  -50.6221  -54.5482 C.2       7 UNK         0.5104 
     39 O          25.6707  -50.6997  -54.7642 O.2       7 UNK        -0.5100 
     40 CA         27.3708  -50.0801  -53.1956 C.3       6 UNK         0.0396 
     41 CB         27.9097  -51.2164  -52.3101 C.3       6 UNK        -0.1801 
     42 N          28.4089  -49.0660  -53.3861 N.am      6 UNK        -0.4747 
     43 C          28.1770  -47.7451  -53.3958 C.2       6 UNK         0.5012 
     44 O          27.0840  -47.2567  -53.1101 O.2       6 UNK        -0.5003 
     45 CA         29.3281  -46.8060  -53.8339 C.3       5 UNK         0.0782 
     46 C46        29.7490  -45.7925  -52.7354 C.3       11 UNK        -0.0868 
     47 S47        28.6605  -44.3196  -52.7306 S.3       11 UNK        -0.2515 
     48 C48        29.7246  -42.9477  -53.3105 C.3       11 UNK         0.0199 
     49 N          30.4759  -47.5174  -54.4116 N.am      5 UNK        -0.4607 
     50 C          30.4572  -48.0530  -55.6403 C.2       4 UNK         0.5031 
     51 O          29.4691  -48.0217  -56.3764 O.2       4 UNK        -0.5119 
     52 CA         31.7159  -48.7962  -56.1125 C.3       4 UNK         0.0263 
     53 CB         32.7849  -47.8049  -56.5936 C.3       4 UNK        -0.1967 
     54 N          32.2962  -49.6908  -55.1082 N.am      4 UNK        -0.4237 
     55 C          31.6669  -50.6992  -54.4926 C.2       3 UNK         0.4908 
     56 O          30.4729  -50.9472  -54.6483 O.2       3 UNK        -0.5102 
     57 CA         32.4851  -51.5733  -53.5260 C.3       3 UNK         0.0241 
     58 CB         33.3455  -52.5969  -54.2922 C.3       3 UNK        -0.1971 
     59 N          33.2744  -50.8108  -52.5491 N.am      3 UNK        -0.4139 
     60 C          34.3082  -49.9878  -52.7705 C.2       2 UNK         0.5016 
     61 O          34.8259  -49.7958  -53.8741 O.2       2 UNK        -0.5319 
     62 CA         34.8250  -49.2118  -51.5496 C.3       2 UNK         0.0286 
     63 CB         36.1823  -49.7690  -51.0909 C.3       2 UNK        -0.1963 
     64 N          34.9549  -47.7762  -51.8158 N.am      2 UNK        -0.4790 
     65 C          33.9732  -46.9668  -52.2409 C.2       1 UNK         0.5024 
     66 O          32.8261  -47.3403  -52.5102 O.2       1 UNK        -0.4888 
     67 H67        30.8946  -44.0920  -50.4091 H         1 UNK         0.0892 
     68 H68        31.9116  -42.6601  -50.6557 H         1 UNK         0.0892 
     69 H69        31.8414  -43.4326  -49.0755 H         1 UNK         0.0892 
     70 H70        32.7081  -44.1628  -52.5201 H         1 UNK         0.3107 
     71 H71        35.2485  -45.2863  -51.8207 H         1 UNK         0.0773 
     72 H72        35.4802  -45.7547  -54.2439 H         1 UNK         0.0680 
     73 H73        33.7916  -45.4055  -54.5042 H         1 UNK         0.0680 
     74 H74        34.3549  -41.9163  -55.8851 H         1 UNK         0.0650 
     75 H75        34.7072  -43.5165  -56.4922 H         1 UNK         0.0650 
     76 H76        32.3701  -42.4434  -53.7201 H         1 UNK         0.1397 
     77 H77        28.9325  -44.1078  -55.6610 H         1 UNK         0.1363 
     78 H78        32.7380  -44.1706  -57.6271 H         1 UNK         0.1355 
     79 H79        29.2996  -45.5215  -57.6391 H         1 UNK         0.0707 
     80 H80        30.8604  -45.6246  -58.3805 H         1 UNK         0.0707 
     81 H81        28.5026  -41.6861  -59.0754 H         1 UNK         0.1034 
     82 H82        28.8197  -42.3609  -57.5253 H         1 UNK         0.1034 
     83 H83        26.4499  -42.3630  -57.8653 H         1 UNK         0.0482 
     84 H84        25.2339  -44.2570  -61.1471 H         1 UNK         0.3460 
     85 H85        25.6971  -45.1151  -59.6979 H         1 UNK         0.3460 
     86 H86        27.6529  -45.0256  -57.8397 H         1 UNK         0.2989 
     87 H87        26.5911  -46.0376  -55.3933 H         1 UNK         0.0559 
     88 H88        23.9784  -46.8963  -56.7387 H         1 UNK         0.0848 
     89 H89        24.1346  -46.1273  -55.1647 H         1 UNK         0.0848 
     90 H90        24.7677  -47.7450  -55.4084 H         1 UNK         0.0848 
     91 H91        27.5546  -47.5728  -56.6998 H         1 UNK         0.3144 
     92 H92        26.7367  -49.0713  -59.8021 H         1 UNK         0.0727 
     93 H93        29.1353  -48.7779  -60.2221 H         1 UNK         0.0790 
     94 H94        29.2679  -47.5742  -58.9475 H         1 UNK         0.0790 
     95 H95        28.3248  -47.2293  -60.3892 H         1 UNK         0.0790 
     96 H96        28.5174  -49.3860  -57.4414 H         1 UNK         0.3215 
     97 H97        26.8190  -52.4438  -56.5302 H         1 UNK         0.0863 
     98 H98        29.1982  -53.0989  -56.4746 H         1 UNK         0.0808 
     99 H99        29.6646  -51.6373  -57.3384 H         1 UNK         0.0808 
    100 H100       28.6880  -52.8623  -58.1386 H         1 UNK         0.0808 
    101 H101       28.8013  -50.9333  -55.1404 H         1 UNK         0.3118 
    102 H102       26.5110  -49.6482  -52.6790 H         1 UNK         0.0546 
    103 H103       27.1439  -51.9753  -52.1447 H         1 UNK         0.0828 
    104 H104       28.2113  -50.8438  -51.3313 H         1 UNK         0.0828 
    105 H105       28.7698  -51.7163  -52.7557 H         1 UNK         0.0828 
    106 H106       29.3215  -49.4002  -53.6701 H         1 UNK         0.3005 
    107 H107       28.9033  -46.2269  -54.6541 H         1 UNK         0.1257 
    108 H108       30.7736  -45.4608  -52.9001 H         1 UNK         0.0775 
    109 H109       29.7461  -46.2526  -51.7456 H         1 UNK         0.0775 
    110 H110       29.0894  -42.0908  -53.5384 H         1 UNK         0.0840 
    111 H111       30.3622  -42.6357  -52.4843 H         1 UNK         0.0840 
    112 H112       31.3121  -47.5867  -53.8387 H         1 UNK         0.2987 
    113 H113       31.4230  -49.4160  -56.9623 H         1 UNK         0.0785 
    114 H114       33.1592  -47.1926  -55.7745 H         1 UNK         0.0798 
    115 H115       32.3863  -47.1315  -57.3521 H         1 UNK         0.0798 
    116 H116       33.6348  -48.3235  -57.0374 H         1 UNK         0.0798 
    117 H117       33.2795  -49.5604  -54.8786 H         1 UNK         0.3079 
    118 H118       31.7612  -52.1392  -52.9370 H         1 UNK         0.0794 
    119 H119       34.0897  -52.1170  -54.9283 H         1 UNK         0.0786 
    120 H120       32.7237  -53.2191  -54.9375 H         1 UNK         0.0786 
    121 H121       33.8703  -53.2636  -53.6079 H         1 UNK         0.0786 
    122 H122       32.9255  -50.8669  -51.6019 H         1 UNK         0.3032 
    123 H123       34.1115  -49.3234  -50.7301 H         1 UNK         0.1094 
    124 H124       36.5335  -49.2705  -50.1871 H         1 UNK         0.0794 
    125 H125       36.1112  -50.8338  -50.8644 H         1 UNK         0.0794 
    126 H126       36.9470  -49.6506  -51.8600 H         1 UNK         0.0794 
    127 H127       35.8674  -47.3770  -51.6497 H         1 UNK         0.3016 
@<TRIPOS>BOND
     1    1    2 1    
     2    1   67 1    
     3    1   68 1    
     4    1   69 1    
     5    2    3 2    
     6    2    4 am   BACKBONE|DICT|INTERRES
     7    4    5 1    
     8    4   70 1    
     9    5    6 1    
    10    5   65 1    
    11    5   71 1    
    12    6    7 1    
    13    6   72 1    
    14    6   73 1    
    15    7    8 1    
    16    8    9 1    
    17    8   74 1    
    18    8   75 1    
    19    9   10 ar   
    20    9   14 ar   
    21   10   11 ar   
    22   10   76 1    
    23   11   12 ar   
    24   11   48 1    
    25   12   13 ar   
    26   12   77 1    
    27   13   14 ar   
    28   13   15 1    
    29   14   78 1    
    30   15   16 1    
    31   15   79 1    
    32   15   80 1    
    33   16   17 1    
    34   17   18 1    
    35   17   81 1    
    36   17   82 1    
    37   18   19 1    
    38   18   22 1    
    39   18   83 1    
    40   19   20 am   BACKBONE|DICT|INTERRES
    41   19   21 2    
    42   20   84 1    
    43   20   85 1    
    44   22   23 am   BACKBONE|DICT|INTERRES
    45   22   86 1    
    46   23   24 2    
    47   23   25 1    
    48   25   26 1    
    49   25   27 1    
    50   25   87 1    
    51   26   88 1    
    52   26   89 1    
    53   26   90 1    
    54   27   28 am   BACKBONE|DICT|INTERRES
    55   27   91 1    
    56   28   29 2    
    57   28   30 1    
    58   30   31 1    
    59   30   32 1    
    60   30   92 1    
    61   31   93 1    
    62   31   94 1    
    63   31   95 1    
    64   32   33 am   BACKBONE|DICT|INTERRES
    65   32   96 1    
    66   33   34 2    
    67   33   35 1    
    68   35   36 1    
    69   35   37 1    
    70   35   97 1    
    71   36   98 1    
    72   36   99 1    
    73   36  100 1    
    74   37   38 am   BACKBONE|DICT|INTERRES
    75   37  101 1    
    76   38   39 2    
    77   38   40 1    
    78   40   41 1    
    79   40   42 1    
    80   40  102 1    
    81   41  103 1    
    82   41  104 1    
    83   41  105 1    
    84   42   43 am   BACKBONE|DICT|INTERRES
    85   42  106 1    
    86   43   44 2    
    87   43   45 1    
    88   45   46 1    
    89   45   49 1    
    90   45  107 1    
    91   46   47 1    
    92   46  108 1    
    93   46  109 1    
    94   47   48 1    
    95   48  110 1    
    96   48  111 1    
    97   49   50 am   BACKBONE|DICT|INTERRES
    98   49  112 1    
    99   50   51 2    
   100   50   52 1    
   101   52   53 1    
   102   52   54 1    
   103   52  113 1    
   104   53  114 1    
   105   53  115 1    
   106   53  116 1    
   107   54   55 am   BACKBONE|DICT|INTERRES
   108   54  117 1    
   109   55   56 2    
   110   55   57 1    
   111   57   58 1    
   112   57   59 1    
   113   57  118 1    
   114   58  119 1    
   115   58  120 1    
   116   58  121 1    
   117   59   60 am   BACKBONE|DICT|INTERRES
   118   59  122 1    
   119   60   61 2    
   120   60   62 1    
   121   62   63 1    
   122   62   64 1    
   123   62  123 1    
   124   63  124 1    
   125   63  125 1    
   126   63  126 1    
   127   64   65 am   BACKBONE|DICT|INTERRES
   128   64  127 1    
   129   65   66 2    
@<TRIPOS>SUBSTRUCTURE
     1 UNK         1 GROUP             0       ****    0 ROOT    
