@<TRIPOS>MOLECULE
3R134
127   129    1
SMALL
USER_CHARGES


@<TRIPOS>ATOM
      1 CA         38.5555  -44.7075  -54.6231 C.3       0 UNK        -0.1968 
      2 C          37.0901  -44.8650  -55.0021 C.2       0 UNK         0.4852 
      3 O          36.7376  -44.6813  -56.1686 O.2       0 UNK        -0.5359 
      4 N          36.2354  -45.1938  -54.0252 N.am      1 UNK        -0.4300 
      5 CA         34.8019  -45.4357  -54.2139 C.3       1 UNK         0.0863 
      6 C6         34.0226  -45.3630  -52.8777 C.3       11 UNK        -0.0953 
      7 S7         34.1374  -43.7348  -52.0606 S.3       11 UNK        -0.2369 
      8 C8         33.2276  -42.6391  -53.2044 C.3       11 UNK         0.0226 
      9 C9         31.8418  -43.1638  -53.5578 C.ar      11 UNK        -0.0699 
     10 C10        30.8724  -43.3142  -52.5618 C.ar      11 UNK        -0.0804 
     11 C11        29.6050  -43.8130  -52.8744 C.ar      11 UNK        -0.0871 
     12 C12        29.3041  -44.1476  -54.1967 C.ar      11 UNK        -0.1008 
     13 C13        30.2629  -43.9991  -55.2018 C.ar      11 UNK        -0.0735 
     14 C14        31.5300  -43.5049  -54.8785 C.ar      11 UNK        -0.0945 
     15 C15        29.9379  -44.4150  -56.6272 C.3       11 UNK         0.0169 
     16 S16        29.5072  -43.0157  -57.7119 S.3       11 UNK        -0.2669 
     17 C17        27.9973  -42.3121  -56.9515 C.3       11 UNK        -0.0850 
     18 CA         26.6600  -42.8885  -57.4898 C.3       10 UNK         0.0855 
     19 C          26.4011  -42.5325  -58.9851 C.2       10 UNK         0.5543 
     20 N          26.1893  -43.4918  -59.8797 N.am      10 UNK        -0.7343 
     21 O          26.3739  -41.3554  -59.3364 O.2       10 UNK        -0.5027 
     22 N          26.5206  -44.3132  -57.1617 N.am      10 UNK        -0.4495 
     23 C          25.3595  -44.9630  -57.0166 C.2       10 UNK         0.4903 
     24 O          24.2587  -44.4105  -57.0408 O.2       10 UNK        -0.4860 
     25 CA         25.4529  -46.4888  -56.8081 C.3       9 UNK         0.0227 
     26 CB         24.1552  -47.2268  -57.1981 C.3       9 UNK        -0.1964 
     27 N          26.6147  -47.1098  -57.4615 N.am      9 UNK        -0.4231 
     28 C          26.9086  -47.1007  -58.7731 C.2       9 UNK         0.5014 
     29 O          26.2437  -46.4908  -59.6115 O.2       9 UNK        -0.5270 
     30 CA         28.1470  -47.8783  -59.2481 C.3       8 UNK         0.0284 
     31 CB         29.3247  -46.9268  -59.5108 C.3       8 UNK        -0.1977 
     32 N          28.5490  -48.9410  -58.3179 N.am      8 UNK        -0.4342 
     33 C          28.8259  -50.2018  -58.6841 C.2       8 UNK         0.5039 
     34 O          28.8922  -50.5752  -59.8564 O.2       8 UNK        -0.5547 
     35 CA         29.0387  -51.2435  -57.5671 C.3       7 UNK         0.0281 
     36 CB         30.5189  -51.6316  -57.4269 C.3       7 UNK        -0.1963 
     37 N          28.4926  -50.8227  -56.2708 N.am      7 UNK        -0.4444 
     38 C          27.1753  -50.7985  -56.0138 C.2       7 UNK         0.5104 
     39 O          26.3240  -51.1609  -56.8268 O.2       7 UNK        -0.5100 
     40 CA         26.6944  -50.2896  -54.6442 C.3       6 UNK         0.0396 
     41 CB         26.2167  -51.4682  -53.7804 C.3       6 UNK        -0.1801 
     42 N          27.6432  -49.4979  -53.8602 N.am      6 UNK        -0.4747 
     43 C          28.2413  -48.3519  -54.2053 C.2       6 UNK         0.5012 
     44 O          28.2201  -47.8876  -55.3481 O.2       6 UNK        -0.5003 
     45 CA         28.9558  -47.5803  -53.0735 C.3       5 UNK         0.0782 
     46 C46        27.9287  -46.7121  -52.2945 C.3       11 UNK        -0.0868 
     47 S47        28.6929  -45.6487  -51.0216 S.3       11 UNK        -0.2515 
     48 C48        28.5672  -43.9984  -51.7794 C.3       11 UNK         0.0199 
     49 N          29.7901  -48.4340  -52.2105 N.am      5 UNK        -0.4607 
     50 C          29.4190  -49.3723  -51.3283 C.2       4 UNK         0.5031 
     51 O          28.2455  -49.6807  -51.1135 O.2       4 UNK        -0.5119 
     52 CA         30.5564  -50.1320  -50.6146 C.3       4 UNK         0.0263 
     53 CB         30.0381  -51.2658  -49.7095 C.3       4 UNK        -0.1967 
     54 N          31.4997  -50.6929  -51.5857 N.am      4 UNK        -0.4237 
     55 C          32.4848  -50.0076  -52.1788 C.2       3 UNK         0.4908 
     56 O          32.7714  -48.8457  -51.8798 O.2       3 UNK        -0.5102 
     57 CA         33.2448  -50.6946  -53.3306 C.3       3 UNK         0.0241 
     58 CB         32.6278  -52.0346  -53.7977 C.3       3 UNK        -0.1971 
     59 N          33.3985  -49.7716  -54.4603 N.am      3 UNK        -0.4139 
     60 C          32.4178  -49.1814  -55.1586 C.2       2 UNK         0.5016 
     61 O          31.2171  -49.4127  -54.9970 O.2       2 UNK        -0.5319 
     62 CA         32.8672  -48.1219  -56.1821 C.3       2 UNK         0.0286 
     63 CB         31.7386  -47.7194  -57.1460 C.3       2 UNK        -0.1963 
     64 N          33.3520  -46.9148  -55.5102 N.am      2 UNK        -0.4790 
     65 C          34.5426  -46.7859  -54.9104 C.2       1 UNK         0.5024 
     66 O          35.3863  -47.6868  -54.8706 O.2       1 UNK        -0.4888 
     67 H67        39.1648  -45.4206  -55.1778 H         1 UNK         0.0892 
     68 H68        38.7221  -44.8748  -53.5591 H         1 UNK         0.0892 
     69 H69        38.9001  -43.7026  -54.8657 H         1 UNK         0.0892 
     70 H70        36.5824  -45.3456  -53.0893 H         1 UNK         0.3107 
     71 H71        34.4212  -44.6596  -54.8801 H         1 UNK         0.0773 
     72 H72        34.3966  -46.1151  -52.1800 H         1 UNK         0.0680 
     73 H73        32.9664  -45.5992  -53.0206 H         1 UNK         0.0680 
     74 H74        33.1263  -41.6576  -52.7396 H         1 UNK         0.0650 
     75 H75        33.8276  -42.4865  -54.1025 H         1 UNK         0.0650 
     76 H76        31.1137  -43.0593  -51.5387 H         1 UNK         0.1397 
     77 H77        28.3251  -44.5331  -54.4445 H         1 UNK         0.1363 
     78 H78        32.2712  -43.3883  -55.6574 H         1 UNK         0.1355 
     79 H79        30.8082  -44.9121  -57.0558 H         1 UNK         0.0707 
     80 H80        29.1366  -45.1538  -56.6329 H         1 UNK         0.0707 
     81 H81        28.0220  -41.2330  -57.1141 H         1 UNK         0.1034 
     82 H82        28.0388  -42.4253  -55.8692 H         1 UNK         0.1034 
     83 H83        25.8716  -42.3655  -56.9449 H         1 UNK         0.0482 
     84 H84        26.1940  -44.4709  -59.6158 H         1 UNK         0.3460 
     85 H85        26.0174  -43.2365  -60.8387 H         1 UNK         0.3460 
     86 H86        27.3725  -44.8503  -57.1706 H         1 UNK         0.2989 
     87 H87        25.6007  -46.6335  -55.7369 H         1 UNK         0.0559 
     88 H88        24.2402  -48.2988  -57.0193 H         1 UNK         0.0848 
     89 H89        23.9084  -47.0806  -58.2502 H         1 UNK         0.0848 
     90 H90        23.3075  -46.8688  -56.6126 H         1 UNK         0.0848 
     91 H91        27.2595  -47.5487  -56.8082 H         1 UNK         0.3144 
     92 H92        27.8610  -48.3218  -60.2043 H         1 UNK         0.0727 
     93 H93        30.1781  -47.4600  -59.9298 H         1 UNK         0.0790 
     94 H94        29.6515  -46.4309  -58.6004 H         1 UNK         0.0790 
     95 H95        29.0478  -46.1479  -60.2229 H         1 UNK         0.0790 
     96 H96        28.5404  -48.7285  -57.3277 H         1 UNK         0.3215 
     97 H97        28.5030  -52.1446  -57.8750 H         1 UNK         0.0863 
     98 H98        30.6673  -52.3641  -56.6335 H         1 UNK         0.0808 
     99 H99        31.1483  -50.7724  -57.2130 H         1 UNK         0.0808 
    100 H100       30.8896  -52.0758  -58.3515 H         1 UNK         0.0808 
    101 H101       29.1446  -50.4750  -55.5767 H         1 UNK         0.3118 
    102 H102       25.8356  -49.6440  -54.8382 H         1 UNK         0.0546 
    103 H103       25.4709  -52.0664  -54.3060 H         1 UNK         0.0828 
    104 H104       25.7560  -51.1222  -52.8549 H         1 UNK         0.0828 
    105 H105       27.0411  -52.1320  -53.5165 H         1 UNK         0.0828 
    106 H106       27.7435  -49.7656  -52.8832 H         1 UNK         0.3005 
    107 H107       29.6556  -46.9074  -53.5714 H         1 UNK         0.1257 
    108 H108       27.1935  -47.3443  -51.7940 H         1 UNK         0.0775 
    109 H109       27.3512  -46.0906  -52.9805 H         1 UNK         0.0775 
    110 H110       27.5604  -43.8381  -52.1682 H         1 UNK         0.0840 
    111 H111       28.7121  -43.2453  -51.0033 H         1 UNK         0.0840 
    112 H112       30.7888  -48.3069  -52.3306 H         1 UNK         0.2987 
    113 H113       31.0761  -49.4113  -49.9793 H         1 UNK         0.0785 
    114 H114       29.4912  -52.0197  -50.2773 H         1 UNK         0.0798 
    115 H115       29.3621  -50.8780  -48.9462 H         1 UNK         0.0798 
    116 H116       30.8569  -51.7645  -49.1904 H         1 UNK         0.0798 
    117 H117       31.3021  -51.6258  -51.9177 H         1 UNK         0.3079 
    118 H118       34.2493  -50.8983  -52.9570 H         1 UNK         0.0794 
    119 H119       32.6474  -52.7803  -53.0021 H         1 UNK         0.0786 
    120 H120       33.1909  -52.4515  -54.6329 H         1 UNK         0.0786 
    121 H121       31.5938  -51.9218  -54.1266 H         1 UNK         0.0786 
    122 H122       34.3368  -49.4147  -54.6100 H         1 UNK         0.3032 
    123 H123       33.6788  -48.5505  -56.7750 H         1 UNK         0.1094 
    124 H124       30.8629  -47.3481  -56.6121 H         1 UNK         0.0794 
    125 H125       32.0676  -46.9467  -57.8408 H         1 UNK         0.0794 
    126 H126       31.4176  -48.5679  -57.7483 H         1 UNK         0.0794 
    127 H127       32.6991  -46.1469  -55.4557 H         1 UNK         0.3016 
@<TRIPOS>BOND
     1    1    2 1    
     2    1   67 1    
     3    1   68 1    
     4    1   69 1    
     5    2    3 2    
     6    2    4 am   BACKBONE|DICT|INTERRES
     7    4    5 1    
     8    4   70 1    
     9    5    6 1    
    10    5   65 1    
    11    5   71 1    
    12    6    7 1    
    13    6   72 1    
    14    6   73 1    
    15    7    8 1    
    16    8    9 1    
    17    8   74 1    
    18    8   75 1    
    19    9   10 ar   
    20    9   14 ar   
    21   10   11 ar   
    22   10   76 1    
    23   11   12 ar   
    24   11   48 1    
    25   12   13 ar   
    26   12   77 1    
    27   13   14 ar   
    28   13   15 1    
    29   14   78 1    
    30   15   16 1    
    31   15   79 1    
    32   15   80 1    
    33   16   17 1    
    34   17   18 1    
    35   17   81 1    
    36   17   82 1    
    37   18   19 1    
    38   18   22 1    
    39   18   83 1    
    40   19   20 am   BACKBONE|DICT|INTERRES
    41   19   21 2    
    42   20   84 1    
    43   20   85 1    
    44   22   23 am   BACKBONE|DICT|INTERRES
    45   22   86 1    
    46   23   24 2    
    47   23   25 1    
    48   25   26 1    
    49   25   27 1    
    50   25   87 1    
    51   26   88 1    
    52   26   89 1    
    53   26   90 1    
    54   27   28 am   BACKBONE|DICT|INTERRES
    55   27   91 1    
    56   28   29 2    
    57   28   30 1    
    58   30   31 1    
    59   30   32 1    
    60   30   92 1    
    61   31   93 1    
    62   31   94 1    
    63   31   95 1    
    64   32   33 am   BACKBONE|DICT|INTERRES
    65   32   96 1    
    66   33   34 2    
    67   33   35 1    
    68   35   36 1    
    69   35   37 1    
    70   35   97 1    
    71   36   98 1    
    72   36   99 1    
    73   36  100 1    
    74   37   38 am   BACKBONE|DICT|INTERRES
    75   37  101 1    
    76   38   39 2    
    77   38   40 1    
    78   40   41 1    
    79   40   42 1    
    80   40  102 1    
    81   41  103 1    
    82   41  104 1    
    83   41  105 1    
    84   42   43 am   BACKBONE|DICT|INTERRES
    85   42  106 1    
    86   43   44 2    
    87   43   45 1    
    88   45   46 1    
    89   45   49 1    
    90   45  107 1    
    91   46   47 1    
    92   46  108 1    
    93   46  109 1    
    94   47   48 1    
    95   48  110 1    
    96   48  111 1    
    97   49   50 am   BACKBONE|DICT|INTERRES
    98   49  112 1    
    99   50   51 2    
   100   50   52 1    
   101   52   53 1    
   102   52   54 1    
   103   52  113 1    
   104   53  114 1    
   105   53  115 1    
   106   53  116 1    
   107   54   55 am   BACKBONE|DICT|INTERRES
   108   54  117 1    
   109   55   56 2    
   110   55   57 1    
   111   57   58 1    
   112   57   59 1    
   113   57  118 1    
   114   58  119 1    
   115   58  120 1    
   116   58  121 1    
   117   59   60 am   BACKBONE|DICT|INTERRES
   118   59  122 1    
   119   60   61 2    
   120   60   62 1    
   121   62   63 1    
   122   62   64 1    
   123   62  123 1    
   124   63  124 1    
   125   63  125 1    
   126   63  126 1    
   127   64   65 am   BACKBONE|DICT|INTERRES
   128   64  127 1    
   129   65   66 2    
@<TRIPOS>SUBSTRUCTURE
     1 UNK         1 GROUP             0       ****    0 ROOT    
