@<TRIPOS>MOLECULE
3R134
127   129    1
SMALL
USER_CHARGES


@<TRIPOS>ATOM
      1 CA         35.3144  -47.2993  -55.0576 C.3       0 UNK        -0.1968 
      2 C          34.2342  -47.0397  -54.0200 C.2       0 UNK         0.4852 
      3 O          33.1847  -47.6905  -54.0454 O.2       0 UNK        -0.5359 
      4 N          34.4866  -46.0886  -53.1113 N.am      1 UNK        -0.4300 
      5 CA         33.6114  -45.7631  -51.9823 C.3       1 UNK         0.0863 
      6 C6         34.0332  -44.4745  -51.2343 C.3       11 UNK        -0.0953 
      7 S7         34.3018  -43.0326  -52.3186 S.3       11 UNK        -0.2369 
      8 C8         32.6116  -42.3806  -52.5581 C.3       11 UNK         0.0226 
      9 C9         31.9116  -42.8937  -53.8172 C.ar      11 UNK        -0.0699 
     10 C10        32.6165  -43.0937  -55.0114 C.ar      11 UNK        -0.0804 
     11 C11        31.9592  -43.5087  -56.1731 C.ar      11 UNK        -0.0871 
     12 C12        30.5769  -43.7083  -56.1380 C.ar      11 UNK        -0.1008 
     13 C13        29.8528  -43.5015  -54.9622 C.ar      11 UNK        -0.0735 
     14 C14        30.5271  -43.0996  -53.8040 C.ar      11 UNK        -0.0945 
     15 C15        28.3470  -43.7267  -54.9414 C.3       11 UNK         0.0169 
     16 S16        27.4206  -42.2739  -55.5287 S.3       11 UNK        -0.2669 
     17 C17        27.3277  -42.5749  -57.3309 C.3       11 UNK        -0.0850 
     18 CA         25.9566  -43.1531  -57.7731 C.3       10 UNK         0.0855 
     19 C          25.8167  -43.1808  -59.3251 C.2       10 UNK         0.5543 
     20 N          25.4728  -44.2989  -59.9548 N.am      10 UNK        -0.7343 
     21 O          26.0150  -42.1572  -59.9749 O.2       10 UNK        -0.5027 
     22 N          25.6819  -44.4471  -57.1283 N.am      10 UNK        -0.4495 
     23 C          24.4627  -44.9060  -56.8251 C.2       10 UNK         0.4903 
     24 O          23.4255  -44.2630  -56.9971 O.2       10 UNK        -0.4860 
     25 CA         24.4019  -46.3284  -56.2344 C.3       9 UNK         0.0227 
     26 CB         22.9826  -46.9334  -56.2769 C.3       9 UNK        -0.1964 
     27 N          25.3728  -47.2582  -56.8289 N.am      9 UNK        -0.4231 
     28 C          25.4785  -47.6089  -58.1229 C.2       9 UNK         0.5014 
     29 O          24.7997  -47.1041  -59.0185 O.2       9 UNK        -0.5270 
     30 CA         26.5161  -48.6852  -58.5060 C.3       8 UNK         0.0284 
     31 CB         27.5523  -48.1225  -59.4944 C.3       8 UNK        -0.1977 
     32 N          27.2081  -49.2651  -57.3515 N.am      8 UNK        -0.4342 
     33 C          26.6905  -50.2013  -56.5420 C.2       8 UNK         0.5039 
     34 O          25.6054  -50.7478  -56.7430 O.2       8 UNK        -0.5547 
     35 CA         27.4868  -50.5712  -55.2744 C.3       7 UNK         0.0281 
     36 CB         28.2358  -51.8973  -55.4776 C.3       7 UNK        -0.1963 
     37 N          28.4313  -49.5386  -54.8328 N.am      7 UNK        -0.4444 
     38 C          28.0942  -48.2984  -54.4518 C.2       7 UNK         0.5104 
     39 O          26.9347  -47.8875  -54.4074 O.2       7 UNK        -0.5100 
     40 CA         29.2470  -47.3308  -54.1422 C.3       6 UNK         0.0396 
     41 CB         29.7180  -47.4759  -52.6933 C.3       6 UNK        -0.1801 
     42 N          30.3779  -47.4765  -55.0641 N.am      6 UNK        -0.4747 
     43 C          30.3067  -47.2231  -56.3801 C.2       6 UNK         0.5012 
     44 O          29.2985  -46.7768  -56.9281 O.2       6 UNK        -0.5003 
     45 CA         31.5294  -47.6077  -57.2360 C.3       5 UNK         0.0782 
     46 C46        32.6267  -46.5176  -57.2524 C.3       11 UNK        -0.0868 
     47 S47        32.2594  -45.1747  -58.4270 S.3       11 UNK        -0.2515 
     48 C48        32.7513  -43.7032  -57.4641 C.3       11 UNK         0.0199 
     49 N          32.0595  -48.9110  -56.8248 N.am      5 UNK        -0.4607 
     50 C          31.4845  -50.0765  -57.1488 C.2       4 UNK         0.5031 
     51 O          30.4754  -50.1643  -57.8481 O.2       4 UNK        -0.5119 
     52 CA         32.1312  -51.3655  -56.6103 C.3       4 UNK         0.0263 
     53 CB         33.1353  -51.9205  -57.6333 C.3       4 UNK        -0.1967 
     54 N          32.7923  -51.2399  -55.3066 N.am      4 UNK        -0.4237 
     55 C          32.1989  -50.8689  -54.1636 C.2       3 UNK         0.4908 
     56 O          31.0281  -50.4887  -54.1000 O.2       3 UNK        -0.5102 
     57 CA         33.0365  -50.9545  -52.8762 C.3       3 UNK         0.0241 
     58 CB         34.5623  -50.9346  -53.1087 C.3       3 UNK        -0.1971 
     59 N          32.6650  -49.8526  -51.9939 N.am      3 UNK        -0.4139 
     60 C          32.4715  -49.9352  -50.6706 C.2       2 UNK         0.5016 
     61 O          32.6062  -50.9790  -50.0290 O.2       2 UNK        -0.5319 
     62 CA         32.0387  -48.6444  -49.9350 C.3       2 UNK         0.0286 
     63 CB         32.5679  -48.5806  -48.4857 C.3       2 UNK        -0.1963 
     64 N          32.3513  -47.4067  -50.6672 N.am      2 UNK        -0.4790 
     65 C          33.5674  -46.9612  -51.0125 C.2       1 UNK         0.5024 
     66 O          34.6247  -47.4728  -50.6369 O.2       1 UNK        -0.4888 
     67 H67        35.3694  -46.4723  -55.7648 H         1 UNK         0.0892 
     68 H68        35.1061  -48.2128  -55.6134 H         1 UNK         0.0892 
     69 H69        36.2878  -47.4115  -54.5807 H         1 UNK         0.0892 
     70 H70        35.3640  -45.5899  -53.1372 H         1 UNK         0.3107 
     71 H71        32.6126  -45.5983  -52.3916 H         1 UNK         0.0773 
     72 H72        34.9678  -44.6396  -50.6942 H         1 UNK         0.0680 
     73 H73        33.2930  -44.2139  -50.4756 H         1 UNK         0.0680 
     74 H74        32.0130  -42.5892  -51.6704 H         1 UNK         0.0650 
     75 H75        32.6766  -41.2945  -52.6327 H         1 UNK         0.0650 
     76 H76        33.6818  -42.9127  -55.0424 H         1 UNK         0.1397 
     77 H77        30.0663  -44.0360  -57.0310 H         1 UNK         0.1363 
     78 H78        29.9678  -42.9303  -52.8940 H         1 UNK         0.1355 
     79 H79        28.0203  -43.9584  -53.9265 H         1 UNK         0.0707 
     80 H80        28.0887  -44.5950  -55.5480 H         1 UNK         0.0707 
     81 H81        28.1340  -43.2306  -57.6551 H         1 UNK         0.1034 
     82 H82        27.5115  -41.6170  -57.8211 H         1 UNK         0.1034 
     83 H83        25.1969  -42.4454  -57.4357 H         1 UNK         0.0482 
     84 H84        25.2669  -45.1513  -59.4465 H         1 UNK         0.3460 
     85 H85        25.3847  -44.2859  -60.9582 H         1 UNK         0.3460 
     86 H86        26.4747  -45.0542  -56.9845 H         1 UNK         0.2989 
     87 H87        24.6847  -46.2295  -55.1855 H         1 UNK         0.0559 
     88 H88        22.9616  -47.9269  -55.8290 H         1 UNK         0.0848 
     89 H89        22.6102  -47.0181  -57.2984 H         1 UNK         0.0848 
     90 H90        22.2752  -46.3153  -55.7228 H         1 UNK         0.0848 
     91 H91        26.0018  -47.6933  -56.1602 H         1 UNK         0.3144 
     92 H92        25.9734  -49.4844  -59.0152 H         1 UNK         0.0727 
     93 H93        28.3224  -48.8579  -59.7292 H         1 UNK         0.0790 
     94 H94        28.0442  -47.2308  -59.1071 H         1 UNK         0.0790 
     95 H95        27.0765  -47.8406  -60.4346 H         1 UNK         0.0790 
     96 H96        28.1108  -48.8698  -57.1202 H         1 UNK         0.3215 
     97 H97        26.7623  -50.7103  -54.4692 H         1 UNK         0.0863 
     98 H98        28.7783  -52.1924  -54.5792 H         1 UNK         0.0808 
     99 H99        28.9502  -51.8318  -56.2975 H         1 UNK         0.0808 
    100 H100       27.5413  -52.7037  -55.7169 H         1 UNK         0.0808 
    101 H101       29.4116  -49.8079  -54.7688 H         1 UNK         0.3118 
    102 H102       28.8573  -46.3211  -54.2538 H         1 UNK         0.0546 
    103 H103       28.8807  -47.3908  -51.9991 H         1 UNK         0.0828 
    104 H104       30.4229  -46.6845  -52.4481 H         1 UNK         0.0828 
    105 H105       30.1930  -48.4406  -52.5181 H         1 UNK         0.0828 
    106 H106       31.2530  -47.8227  -54.6828 H         1 UNK         0.3005 
    107 H107       31.1660  -47.7215  -58.2608 H         1 UNK         0.1257 
    108 H108       33.5800  -46.9479  -57.5626 H         1 UNK         0.0775 
    109 H109       32.7874  -46.1099  -56.2552 H         1 UNK         0.0775 
    110 H110       33.8194  -43.7741  -57.2520 H         1 UNK         0.0840 
    111 H111       32.6195  -42.8183  -58.0878 H         1 UNK         0.0840 
    112 H112       32.8471  -48.9092  -56.1928 H         1 UNK         0.2987 
    113 H113       31.3319  -52.0994  -56.4927 H         1 UNK         0.0785 
    114 H114       33.9863  -51.2516  -57.7682 H         1 UNK         0.0798 
    115 H115       32.6662  -52.0516  -58.6097 H         1 UNK         0.0798 
    116 H116       33.5173  -52.8950  -57.3283 H         1 UNK         0.0798 
    117 H117       33.7592  -51.5274  -55.2652 H         1 UNK         0.3079 
    118 H118       32.7706  -51.9039  -52.4073 H         1 UNK         0.0794 
    119 H119       34.8770  -50.0500  -53.6626 H         1 UNK         0.0786 
    120 H120       34.8977  -51.8149  -53.6580 H         1 UNK         0.0786 
    121 H121       35.1005  -50.9340  -52.1605 H         1 UNK         0.0786 
    122 H122       32.5330  -48.9634  -52.4624 H         1 UNK         0.3032 
    123 H123       30.9500  -48.6956  -49.8787 H         1 UNK         0.1094 
    124 H124       33.6567  -48.6222  -48.4474 H         1 UNK         0.0794 
    125 H125       32.2485  -47.6663  -47.9857 H         1 UNK         0.0794 
    126 H126       32.1930  -49.4175  -47.8951 H         1 UNK         0.0794 
    127 H127       31.5479  -46.8962  -51.0050 H         1 UNK         0.3016 
@<TRIPOS>BOND
     1    1    2 1    
     2    1   67 1    
     3    1   68 1    
     4    1   69 1    
     5    2    3 2    
     6    2    4 am   BACKBONE|DICT|INTERRES
     7    4    5 1    
     8    4   70 1    
     9    5    6 1    
    10    5   65 1    
    11    5   71 1    
    12    6    7 1    
    13    6   72 1    
    14    6   73 1    
    15    7    8 1    
    16    8    9 1    
    17    8   74 1    
    18    8   75 1    
    19    9   10 ar   
    20    9   14 ar   
    21   10   11 ar   
    22   10   76 1    
    23   11   12 ar   
    24   11   48 1    
    25   12   13 ar   
    26   12   77 1    
    27   13   14 ar   
    28   13   15 1    
    29   14   78 1    
    30   15   16 1    
    31   15   79 1    
    32   15   80 1    
    33   16   17 1    
    34   17   18 1    
    35   17   81 1    
    36   17   82 1    
    37   18   19 1    
    38   18   22 1    
    39   18   83 1    
    40   19   20 am   BACKBONE|DICT|INTERRES
    41   19   21 2    
    42   20   84 1    
    43   20   85 1    
    44   22   23 am   BACKBONE|DICT|INTERRES
    45   22   86 1    
    46   23   24 2    
    47   23   25 1    
    48   25   26 1    
    49   25   27 1    
    50   25   87 1    
    51   26   88 1    
    52   26   89 1    
    53   26   90 1    
    54   27   28 am   BACKBONE|DICT|INTERRES
    55   27   91 1    
    56   28   29 2    
    57   28   30 1    
    58   30   31 1    
    59   30   32 1    
    60   30   92 1    
    61   31   93 1    
    62   31   94 1    
    63   31   95 1    
    64   32   33 am   BACKBONE|DICT|INTERRES
    65   32   96 1    
    66   33   34 2    
    67   33   35 1    
    68   35   36 1    
    69   35   37 1    
    70   35   97 1    
    71   36   98 1    
    72   36   99 1    
    73   36  100 1    
    74   37   38 am   BACKBONE|DICT|INTERRES
    75   37  101 1    
    76   38   39 2    
    77   38   40 1    
    78   40   41 1    
    79   40   42 1    
    80   40  102 1    
    81   41  103 1    
    82   41  104 1    
    83   41  105 1    
    84   42   43 am   BACKBONE|DICT|INTERRES
    85   42  106 1    
    86   43   44 2    
    87   43   45 1    
    88   45   46 1    
    89   45   49 1    
    90   45  107 1    
    91   46   47 1    
    92   46  108 1    
    93   46  109 1    
    94   47   48 1    
    95   48  110 1    
    96   48  111 1    
    97   49   50 am   BACKBONE|DICT|INTERRES
    98   49  112 1    
    99   50   51 2    
   100   50   52 1    
   101   52   53 1    
   102   52   54 1    
   103   52  113 1    
   104   53  114 1    
   105   53  115 1    
   106   53  116 1    
   107   54   55 am   BACKBONE|DICT|INTERRES
   108   54  117 1    
   109   55   56 2    
   110   55   57 1    
   111   57   58 1    
   112   57   59 1    
   113   57  118 1    
   114   58  119 1    
   115   58  120 1    
   116   58  121 1    
   117   59   60 am   BACKBONE|DICT|INTERRES
   118   59  122 1    
   119   60   61 2    
   120   60   62 1    
   121   62   63 1    
   122   62   64 1    
   123   62  123 1    
   124   63  124 1    
   125   63  125 1    
   126   63  126 1    
   127   64   65 am   BACKBONE|DICT|INTERRES
   128   64  127 1    
   129   65   66 2    
@<TRIPOS>SUBSTRUCTURE
     1 UNK         1 GROUP             0       ****    0 ROOT    
