@<TRIPOS>MOLECULE
3R134
127   129    1
SMALL
USER_CHARGES


@<TRIPOS>ATOM
      1 CA         37.7307  -44.0331  -48.9369 C.3       0 UNK        -0.1968 
      2 C          36.8083  -44.4122  -50.0865 C.2       0 UNK         0.4852 
      3 O          37.2512  -44.4569  -51.2355 O.2       0 UNK        -0.5359 
      4 N          35.5297  -44.6769  -49.7876 N.am      1 UNK        -0.4300 
      5 CA         34.5197  -45.1222  -50.7502 C.3       1 UNK         0.0863 
      6 C6         33.0931  -44.9372  -50.1722 C.3       11 UNK        -0.0953 
      7 S7         31.7784  -45.2484  -51.3950 S.3       11 UNK        -0.2369 
      8 C8         31.5756  -43.6019  -52.1337 C.3       11 UNK         0.0226 
      9 C9         30.9766  -43.7231  -53.5242 C.ar      11 UNK        -0.0699 
     10 C10        31.8138  -43.8224  -54.6389 C.ar      11 UNK        -0.0804 
     11 C11        31.2761  -43.9659  -55.9211 C.ar      11 UNK        -0.0871 
     12 C12        29.8876  -44.0064  -56.0815 C.ar      11 UNK        -0.1008 
     13 C13        29.0402  -43.9102  -54.9735 C.ar      11 UNK        -0.0735 
     14 C14        29.5906  -43.7621  -53.6970 C.ar      11 UNK        -0.0945 
     15 C15        27.5335  -44.0217  -55.1428 C.3       11 UNK         0.0169 
     16 S16        26.7511  -42.4091  -55.4639 S.3       11 UNK        -0.2669 
     17 C17        26.8733  -42.2622  -57.2826 C.3       11 UNK        -0.0850 
     18 CA         25.5190  -42.5534  -57.9961 C.3       10 UNK         0.0855 
     19 C          25.5252  -42.1475  -59.5028 C.2       10 UNK         0.5543 
     20 N          24.7847  -42.8262  -60.3703 N.am      10 UNK        -0.7343 
     21 O          26.1795  -41.1815  -59.8886 O.2       10 UNK        -0.5027 
     22 N          25.0106  -43.9100  -57.7120 N.am      10 UNK        -0.4495 
     23 C          25.5754  -45.0633  -58.0954 C.2       10 UNK         0.4903 
     24 O          26.5718  -45.1320  -58.8173 O.2       10 UNK        -0.4860 
     25 CA         24.9295  -46.3343  -57.5125 C.3       9 UNK         0.0227 
     26 CB         23.4561  -46.4963  -57.9469 C.3       9 UNK        -0.1964 
     27 N          25.7085  -47.5515  -57.7712 N.am      9 UNK        -0.4231 
     28 C          25.8745  -48.2103  -58.9296 C.2       9 UNK         0.5014 
     29 O          25.3273  -47.8980  -59.9889 O.2       9 UNK        -0.5270 
     30 CA         26.7982  -49.4469  -58.9202 C.3       8 UNK         0.0284 
     31 CB         28.0851  -49.1688  -59.7153 C.3       8 UNK        -0.1977 
     32 N          27.1514  -49.9219  -57.5778 N.am      8 UNK        -0.4342 
     33 C          26.3102  -50.5461  -56.7413 C.2       8 UNK         0.5039 
     34 O          25.1541  -50.8499  -57.0376 O.2       8 UNK        -0.5547 
     35 CA         26.8293  -50.8649  -55.3277 C.3       7 UNK         0.0281 
     36 CB         27.4847  -52.2547  -55.2980 C.3       7 UNK        -0.1963 
     37 N          27.7675  -49.8664  -54.8032 N.am      7 UNK        -0.4444 
     38 C          27.4638  -48.5840  -54.5512 C.2       7 UNK         0.5104 
     39 O          26.3448  -48.0990  -54.7186 O.2       7 UNK        -0.5100 
     40 CA         28.6172  -47.6734  -54.0924 C.3       6 UNK         0.0396 
     41 CB         28.9470  -47.8973  -52.6098 C.3       6 UNK        -0.1801 
     42 N          29.8234  -47.8393  -54.9066 N.am      6 UNK        -0.4747 
     43 C          29.8796  -47.6109  -56.2283 C.2       6 UNK         0.5012 
     44 O          28.9324  -47.1827  -56.8872 O.2       6 UNK        -0.5003 
     45 CA         31.1810  -48.0116  -56.9498 C.3       5 UNK         0.0782 
     46 C46        32.2656  -46.9085  -56.8964 C.3       11 UNK        -0.0868 
     47 S47        31.9398  -45.5844  -58.1090 S.3       11 UNK        -0.2515 
     48 C48        32.2021  -44.0711  -57.1268 C.3       11 UNK         0.0199 
     49 N          31.6805  -49.2941  -56.4497 N.am      5 UNK        -0.4607 
     50 C          31.1025  -50.4758  -56.7054 C.2       4 UNK         0.5031 
     51 O          30.1104  -50.6094  -57.4206 O.2       4 UNK        -0.5119 
     52 CA         31.7135  -51.7121  -56.0248 C.3       4 UNK         0.0263 
     53 CB         32.8816  -52.2642  -56.8569 C.3       4 UNK        -0.1967 
     54 N          32.1674  -51.4412  -54.6586 N.am      4 UNK        -0.4237 
     55 C          31.3516  -51.1285  -53.6417 C.2       3 UNK         0.4908 
     56 O          30.1259  -51.0876  -53.7368 O.2       3 UNK        -0.5102 
     57 CA         32.0131  -50.7556  -52.3045 C.3       3 UNK         0.0241 
     58 CB         32.2518  -52.0124  -51.4526 C.3       3 UNK        -0.1971 
     59 N          33.2691  -50.0098  -52.4472 N.am      3 UNK        -0.4139 
     60 C          33.3880  -48.8246  -53.0612 C.2       2 UNK         0.5016 
     61 O          32.4606  -48.2504  -53.6374 O.2       2 UNK        -0.5319 
     62 CA         34.7818  -48.1845  -53.0670 C.3       2 UNK         0.0286 
     63 CB         35.3281  -48.0845  -54.5009 C.3       2 UNK        -0.1963 
     64 N          34.6964  -46.8458  -52.4892 N.am      2 UNK        -0.4790 
     65 C          34.7942  -46.5801  -51.1805 C.2       1 UNK         0.5024 
     66 O          35.0657  -47.4286  -50.3266 O.2       1 UNK        -0.4888 
     67 H67        38.5487  -44.7490  -48.8609 H         1 UNK         0.0892 
     68 H68        38.1570  -43.0449  -49.1078 H         1 UNK         0.0892 
     69 H69        37.2064  -44.0150  -47.9816 H         1 UNK         0.0892 
     70 H70        35.2337  -44.6550  -48.8222 H         1 UNK         0.3107 
     71 H71        34.6106  -44.4818  -51.6305 H         1 UNK         0.0773 
     72 H72        32.9702  -43.9239  -49.7858 H         1 UNK         0.0680 
     73 H73        32.9334  -45.6035  -49.3223 H         1 UNK         0.0680 
     74 H74        30.9388  -42.9909  -51.4923 H         1 UNK         0.0650 
     75 H75        32.5405  -43.0957  -52.1882 H         1 UNK         0.0650 
     76 H76        32.8863  -43.7974  -54.5037 H         1 UNK         0.1397 
     77 H77        29.4704  -44.1461  -57.0690 H         1 UNK         0.1363 
     78 H78        28.9413  -43.7001  -52.8344 H         1 UNK         0.1355 
     79 H79        27.3047  -44.7296  -55.9382 H         1 UNK         0.0707 
     80 H80        27.0919  -44.4417  -54.2379 H         1 UNK         0.0707 
     81 H81        27.2044  -41.2438  -57.4932 H         1 UNK         0.1034 
     82 H82        27.6576  -42.9121  -57.6691 H         1 UNK         0.1034 
     83 H83        24.7824  -41.8821  -57.5531 H         1 UNK         0.0482 
     84 H84        24.2451  -43.6202  -60.0653 H         1 UNK         0.3460 
     85 H85        24.7824  -42.5534  -61.3404 H         1 UNK         0.3460 
     86 H86        24.1914  -43.9449  -57.1229 H         1 UNK         0.2989 
     87 H87        24.9432  -46.2176  -56.4277 H         1 UNK         0.0559 
     88 H88        23.3462  -46.4886  -59.0317 H         1 UNK         0.0848 
     89 H89        22.8358  -45.6891  -57.5566 H         1 UNK         0.0848 
     90 H90        23.0341  -47.4300  -57.5749 H         1 UNK         0.0848 
     91 H91        26.2413  -47.8838  -56.9764 H         1 UNK         0.3144 
     92 H92        26.2597  -50.2506  -59.4268 H         1 UNK         0.0727 
     93 H93        28.6672  -48.3617  -59.2705 H         1 UNK         0.0790 
     94 H94        27.8547  -48.8744  -60.7400 H         1 UNK         0.0790 
     95 H95        28.7200  -50.0533  -59.7686 H         1 UNK         0.0790 
     96 H96        28.1084  -49.7696  -57.2790 H         1 UNK         0.3215 
     97 H97        25.9650  -50.8825  -54.6605 H         1 UNK         0.0863 
     98 H98        27.7741  -52.5355  -54.2852 H         1 UNK         0.0808 
     99 H99        28.3769  -52.2924  -55.9237 H         1 UNK         0.0808 
    100 H100       26.7973  -53.0194  -55.6621 H         1 UNK         0.0808 
    101 H101       28.7042  -50.1967  -54.5782 H         1 UNK         0.3118 
    102 H102       28.2896  -46.6400  -54.2078 H         1 UNK         0.0546 
    103 H103       29.7459  -47.2346  -52.2793 H         1 UNK         0.0828 
    104 H104       29.2597  -48.9218  -52.4117 H         1 UNK         0.0828 
    105 H105       28.0772  -47.6954  -51.9838 H         1 UNK         0.0828 
    106 H106       30.6684  -48.1459  -54.4307 H         1 UNK         0.3005 
    107 H107       30.9201  -48.1698  -57.9993 H         1 UNK         0.1257 
    108 H108       32.3713  -46.5057  -55.8874 H         1 UNK         0.0775 
    109 H109       33.2386  -47.3298  -57.1532 H         1 UNK         0.0775 
    110 H110       33.2486  -44.0331  -56.8202 H         1 UNK         0.0840 
    111 H111       32.0409  -43.2044  -57.7692 H         1 UNK         0.0840 
    112 H112       32.4398  -49.2525  -55.7855 H         1 UNK         0.2987 
    113 H113       30.9375  -52.4791  -55.9752 H         1 UNK         0.0785 
    114 H114       33.7042  -51.5511  -56.9263 H         1 UNK         0.0798 
    115 H115       32.5607  -52.4913  -57.8746 H         1 UNK         0.0798 
    116 H116       33.2720  -53.1879  -56.4290 H         1 UNK         0.0798 
    117 H117       33.1624  -51.4615  -54.4899 H         1 UNK         0.3079 
    118 H118       31.3150  -50.1104  -51.7675 H         1 UNK         0.0794 
    119 H119       32.9742  -52.6856  -51.9160 H         1 UNK         0.0786 
    120 H120       31.3254  -52.5723  -51.3161 H         1 UNK         0.0786 
    121 H121       32.6204  -51.7549  -50.4594 H         1 UNK         0.0786 
    122 H122       34.0817  -50.4096  -51.9997 H         1 UNK         0.3032 
    123 H123       35.4705  -48.7973  -52.4804 H         1 UNK         0.1094 
    124 H124       36.3342  -47.6647  -54.5105 H         1 UNK         0.0794 
    125 H125       35.3838  -49.0680  -54.9694 H         1 UNK         0.0794 
    126 H126       34.7000  -47.4556  -55.1321 H         1 UNK         0.0794 
    127 H127       34.3989  -46.1105  -53.1140 H         1 UNK         0.3016 
@<TRIPOS>BOND
     1    1    2 1    
     2    1   67 1    
     3    1   68 1    
     4    1   69 1    
     5    2    3 2    
     6    2    4 am   BACKBONE|DICT|INTERRES
     7    4    5 1    
     8    4   70 1    
     9    5    6 1    
    10    5   65 1    
    11    5   71 1    
    12    6    7 1    
    13    6   72 1    
    14    6   73 1    
    15    7    8 1    
    16    8    9 1    
    17    8   74 1    
    18    8   75 1    
    19    9   10 ar   
    20    9   14 ar   
    21   10   11 ar   
    22   10   76 1    
    23   11   12 ar   
    24   11   48 1    
    25   12   13 ar   
    26   12   77 1    
    27   13   14 ar   
    28   13   15 1    
    29   14   78 1    
    30   15   16 1    
    31   15   79 1    
    32   15   80 1    
    33   16   17 1    
    34   17   18 1    
    35   17   81 1    
    36   17   82 1    
    37   18   19 1    
    38   18   22 1    
    39   18   83 1    
    40   19   20 am   BACKBONE|DICT|INTERRES
    41   19   21 2    
    42   20   84 1    
    43   20   85 1    
    44   22   23 am   BACKBONE|DICT|INTERRES
    45   22   86 1    
    46   23   24 2    
    47   23   25 1    
    48   25   26 1    
    49   25   27 1    
    50   25   87 1    
    51   26   88 1    
    52   26   89 1    
    53   26   90 1    
    54   27   28 am   BACKBONE|DICT|INTERRES
    55   27   91 1    
    56   28   29 2    
    57   28   30 1    
    58   30   31 1    
    59   30   32 1    
    60   30   92 1    
    61   31   93 1    
    62   31   94 1    
    63   31   95 1    
    64   32   33 am   BACKBONE|DICT|INTERRES
    65   32   96 1    
    66   33   34 2    
    67   33   35 1    
    68   35   36 1    
    69   35   37 1    
    70   35   97 1    
    71   36   98 1    
    72   36   99 1    
    73   36  100 1    
    74   37   38 am   BACKBONE|DICT|INTERRES
    75   37  101 1    
    76   38   39 2    
    77   38   40 1    
    78   40   41 1    
    79   40   42 1    
    80   40  102 1    
    81   41  103 1    
    82   41  104 1    
    83   41  105 1    
    84   42   43 am   BACKBONE|DICT|INTERRES
    85   42  106 1    
    86   43   44 2    
    87   43   45 1    
    88   45   46 1    
    89   45   49 1    
    90   45  107 1    
    91   46   47 1    
    92   46  108 1    
    93   46  109 1    
    94   47   48 1    
    95   48  110 1    
    96   48  111 1    
    97   49   50 am   BACKBONE|DICT|INTERRES
    98   49  112 1    
    99   50   51 2    
   100   50   52 1    
   101   52   53 1    
   102   52   54 1    
   103   52  113 1    
   104   53  114 1    
   105   53  115 1    
   106   53  116 1    
   107   54   55 am   BACKBONE|DICT|INTERRES
   108   54  117 1    
   109   55   56 2    
   110   55   57 1    
   111   57   58 1    
   112   57   59 1    
   113   57  118 1    
   114   58  119 1    
   115   58  120 1    
   116   58  121 1    
   117   59   60 am   BACKBONE|DICT|INTERRES
   118   59  122 1    
   119   60   61 2    
   120   60   62 1    
   121   62   63 1    
   122   62   64 1    
   123   62  123 1    
   124   63  124 1    
   125   63  125 1    
   126   63  126 1    
   127   64   65 am   BACKBONE|DICT|INTERRES
   128   64  127 1    
   129   65   66 2    
@<TRIPOS>SUBSTRUCTURE
     1 UNK         1 GROUP             0       ****    0 ROOT    
