@<TRIPOS>MOLECULE
3R134
127   129    1
SMALL
USER_CHARGES


@<TRIPOS>ATOM
      1 CA         28.4666  -45.2072  -49.5008 C.3       0 UNK        -0.1968 
      2 C          29.9840  -45.2957  -49.5773 C.2       0 UNK         0.4852 
      3 O          30.6535  -45.2210  -48.5453 O.2       0 UNK        -0.5359 
      4 N          30.5291  -45.4453  -50.7916 N.am      1 UNK        -0.4300 
      5 CA         31.9608  -45.6231  -51.0508 C.3       1 UNK         0.0863 
      6 C6         32.2923  -45.3498  -52.5407 C.3       11 UNK        -0.0953 
      7 S7         34.0281  -44.8586  -52.8034 S.3       11 UNK        -0.2369 
      8 C8         33.8300  -43.3761  -53.8431 C.3       11 UNK         0.0226 
      9 C9         33.1820  -43.6968  -55.1844 C.ar      11 UNK        -0.0699 
     10 C10        33.8493  -44.5057  -56.1083 C.ar      11 UNK        -0.0804 
     11 C11        33.2683  -44.8026  -57.3443 C.ar      11 UNK        -0.0871 
     12 C12        32.0162  -44.2710  -57.6624 C.ar      11 UNK        -0.1008 
     13 C13        31.3435  -43.4501  -56.7522 C.ar      11 UNK        -0.0735 
     14 C14        31.9264  -43.1730  -55.5111 C.ar      11 UNK        -0.0945 
     15 C15        30.0074  -42.8330  -57.1340 C.3       11 UNK         0.0169 
     16 S16        28.6631  -44.0565  -57.0994 S.3       11 UNK        -0.2669 
     17 C17        27.3053  -43.0814  -57.8387 C.3       11 UNK        -0.0850 
     18 CA         26.0532  -42.9975  -56.9288 C.3       10 UNK         0.0855 
     19 C          24.9884  -42.0689  -57.5769 C.2       10 UNK         0.5543 
     20 N          24.8988  -40.8225  -57.1336 N.am      10 UNK        -0.7343 
     21 O          24.2853  -42.4538  -58.5089 O.2       10 UNK        -0.5027 
     22 N          25.5524  -44.3450  -56.6271 N.am      10 UNK        -0.4495 
     23 C          24.4620  -44.6731  -55.9229 C.2       10 UNK         0.4903 
     24 O          23.7302  -43.8540  -55.3652 O.2       10 UNK        -0.4860 
     25 CA         24.1627  -46.1798  -55.7762 C.3       9 UNK         0.0227 
     26 CB         22.6507  -46.4901  -55.7979 C.3       9 UNK        -0.1964 
     27 N          24.9046  -47.0302  -56.7200 N.am      9 UNK        -0.4231 
     28 C          24.7589  -47.1072  -58.0550 C.2       9 UNK         0.5014 
     29 O          23.9128  -46.4764  -58.6887 O.2       9 UNK        -0.5270 
     30 CA         25.7391  -48.0087  -58.8354 C.3       8 UNK         0.0284 
     31 CB         26.7181  -47.1464  -59.6507 C.3       8 UNK        -0.1977 
     32 N          26.5072  -48.9202  -57.9835 N.am      8 UNK        -0.4342 
     33 C          25.9962  -49.9931  -57.3595 C.2       8 UNK         0.5039 
     34 O          24.8481  -50.3996  -57.5414 O.2       8 UNK        -0.5547 
     35 CA         26.8894  -50.7197  -56.3332 C.3       7 UNK         0.0281 
     36 CB         27.4203  -52.0355  -56.9238 C.3       7 UNK        -0.1963 
     37 N          28.0182  -49.9243  -55.8356 N.am      7 UNK        -0.4444 
     38 C          27.9222  -48.7473  -55.1943 C.2       7 UNK         0.5104 
     39 O          26.8490  -48.2200  -54.9015 O.2       7 UNK        -0.5100 
     40 CA         29.2320  -48.0029  -54.8695 C.3       6 UNK         0.0396 
     41 CB         29.6176  -48.2886  -53.4114 C.3       6 UNK        -0.1801 
     42 N          30.3535  -48.3484  -55.7544 N.am      6 UNK        -0.4747 
     43 C          30.3405  -48.2457  -57.0962 C.2       6 UNK         0.5012 
     44 O          29.4145  -47.7242  -57.7191 O.2       6 UNK        -0.5003 
     45 CA         31.4638  -48.9430  -57.8993 C.3       5 UNK         0.0782 
     46 C46        32.3432  -47.9534  -58.7155 C.3       11 UNK        -0.0868 
     47 S47        33.8898  -47.4364  -57.8899 S.3       11 UNK        -0.2515 
     48 C48        34.0119  -45.6794  -58.3371 C.3       11 UNK         0.0199 
     49 N          32.2581  -49.8986  -57.1179 N.am      5 UNK        -0.4607 
     50 C          31.8013  -51.0050  -56.5185 C.2       4 UNK         0.5031 
     51 O          30.6395  -51.4001  -56.6170 O.2       4 UNK        -0.5119 
     52 CA         32.7881  -51.7673  -55.6147 C.3       4 UNK         0.0263 
     53 CB         33.4015  -52.9524  -56.3772 C.3       4 UNK        -0.1967 
     54 N          33.8670  -50.9433  -55.0475 N.am      4 UNK        -0.4237 
     55 C          33.6935  -49.8783  -54.2506 C.2       3 UNK         0.4908 
     56 O          32.5899  -49.4115  -53.9621 O.2       3 UNK        -0.5102 
     57 CA         34.9701  -49.1924  -53.7370 C.3       3 UNK         0.0241 
     58 CB         35.4287  -48.1016  -54.7166 C.3       3 UNK        -0.1971 
     59 N          34.7546  -48.5800  -52.4272 N.am      3 UNK        -0.4139 
     60 C          34.6849  -49.2480  -51.2676 C.2       2 UNK         0.5016 
     61 O          34.8619  -50.4630  -51.1656 O.2       2 UNK        -0.5319 
     62 CA         34.3871  -48.4227  -50.0007 C.3       2 UNK         0.0286 
     63 CB         35.6834  -48.1489  -49.2205 C.3       2 UNK        -0.1963 
     64 N          33.7259  -47.1466  -50.2926 N.am      2 UNK        -0.4790 
     65 C          32.4322  -47.0289  -50.6186 C.2       1 UNK         0.5024 
     66 O          31.6429  -47.9766  -50.6214 O.2       1 UNK        -0.4888 
     67 H67        28.0028  -45.2776  -50.4846 H         1 UNK         0.0892 
     68 H68        28.0751  -46.0154  -48.8835 H         1 UNK         0.0892 
     69 H69        28.1679  -44.2600  -49.0524 H         1 UNK         0.0892 
     70 H70        29.9254  -45.5254  -51.5962 H         1 UNK         0.3107 
     71 H71        32.4859  -44.8864  -50.4381 H         1 UNK         0.0773 
     72 H72        32.0840  -46.2098  -53.1775 H         1 UNK         0.0680 
     73 H73        31.6534  -44.5478  -52.9128 H         1 UNK         0.0680 
     74 H74        34.8124  -42.9356  -54.0182 H         1 UNK         0.0650 
     75 H75        33.2518  -42.6300  -53.2959 H         1 UNK         0.0650 
     76 H76        34.8203  -44.9123  -55.8599 H         1 UNK         0.1397 
     77 H77        31.5637  -44.4882  -58.6205 H         1 UNK         0.1363 
     78 H78        31.4084  -42.5382  -54.8053 H         1 UNK         0.1355 
     79 H79        29.7576  -42.0064  -56.4668 H         1 UNK         0.0707 
     80 H80        30.0872  -42.4094  -58.1365 H         1 UNK         0.0707 
     81 H81        27.6660  -42.0772  -58.0704 H         1 UNK         0.1034 
     82 H82        27.0487  -43.5326  -58.7996 H         1 UNK         0.1034 
     83 H83        26.3529  -42.5581  -55.9754 H         1 UNK         0.0482 
     84 H84        25.4785  -40.4946  -56.3765 H         1 UNK         0.3460 
     85 H85        24.2264  -40.2000  -57.5542 H         1 UNK         0.3460 
     86 H86        26.0927  -45.0984  -57.0231 H         1 UNK         0.2989 
     87 H87        24.5334  -46.4564  -54.7883 H         1 UNK         0.0559 
     88 H88        22.1793  -46.1542  -56.7218 H         1 UNK         0.0848 
     89 H89        22.1376  -45.9902  -54.9755 H         1 UNK         0.0848 
     90 H90        22.4628  -47.5585  -55.6929 H         1 UNK         0.0848 
     91 H91        25.6385  -47.5846  -56.2857 H         1 UNK         0.3144 
     92 H92        25.1483  -48.6075  -59.5317 H         1 UNK         0.0727 
     93 H93        27.3240  -46.5054  -59.0086 H         1 UNK         0.0790 
     94 H94        26.1833  -46.4973  -60.3455 H         1 UNK         0.0790 
     95 H95        27.3954  -47.7633  -60.2415 H         1 UNK         0.0790 
     96 H96        27.4673  -48.6539  -57.7908 H         1 UNK         0.3215 
     97 H97        26.2585  -50.9591  -55.4747 H         1 UNK         0.0863 
     98 H98        27.9831  -52.6052  -56.1840 H         1 UNK         0.0808 
     99 H99        28.0753  -51.8576  -57.7778 H         1 UNK         0.0808 
    100 H100       26.6019  -52.6705  -57.2662 H         1 UNK         0.0808 
    101 H101       28.9445  -50.2901  -56.0326 H         1 UNK         0.3118 
    102 H102       29.0448  -46.9328  -54.9797 H         1 UNK         0.0546 
    103 H103       28.8252  -47.9851  -52.7260 H         1 UNK         0.0828 
    104 H104       30.5165  -47.7518  -53.1226 H         1 UNK         0.0828 
    105 H105       29.8054  -49.3501  -53.2445 H         1 UNK         0.0828 
    106 H106       31.1549  -48.7849  -55.3082 H         1 UNK         0.3005 
    107 H107       30.9209  -49.5449  -58.6322 H         1 UNK         0.1257 
    108 H108       31.7712  -47.0753  -59.0219 H         1 UNK         0.0775 
    109 H109       32.6406  -48.4362  -59.6476 H         1 UNK         0.0775 
    110 H110       35.0652  -45.3950  -58.3481 H         1 UNK         0.0840 
    111 H111       33.6480  -45.5234  -59.3539 H         1 UNK         0.0840 
    112 H112       33.2212  -49.6328  -56.9701 H         1 UNK         0.2987 
    113 H113       32.2095  -52.1627  -54.7772 H         1 UNK         0.0785 
    114 H114       32.6231  -53.5972  -56.7881 H         1 UNK         0.0798 
    115 H115       34.0178  -53.5703  -55.7238 H         1 UNK         0.0798 
    116 H116       34.0217  -52.6191  -57.2104 H         1 UNK         0.0798 
    117 H117       34.8101  -51.2428  -55.2513 H         1 UNK         0.3079 
    118 H118       35.7627  -49.9382  -53.6443 H         1 UNK         0.0794 
    119 H119       34.6535  -47.3494  -54.8720 H         1 UNK         0.0786 
    120 H120       35.6735  -48.5279  -55.6899 H         1 UNK         0.0786 
    121 H121       36.3218  -47.5911  -54.3560 H         1 UNK         0.0786 
    122 H122       34.5517  -47.5913  -52.4189 H         1 UNK         0.3032 
    123 H123       33.7275  -49.0234  -49.3696 H         1 UNK         0.1094 
    124 H124       36.3858  -47.5483  -49.7999 H         1 UNK         0.0794 
    125 H125       35.4814  -47.6239  -48.2866 H         1 UNK         0.0794 
    126 H126       36.1876  -49.0815  -48.9629 H         1 UNK         0.0794 
    127 H127       34.3118  -46.3230  -50.3166 H         1 UNK         0.3016 
@<TRIPOS>BOND
     1    1    2 1    
     2    1   67 1    
     3    1   68 1    
     4    1   69 1    
     5    2    3 2    
     6    2    4 am   BACKBONE|DICT|INTERRES
     7    4    5 1    
     8    4   70 1    
     9    5    6 1    
    10    5   65 1    
    11    5   71 1    
    12    6    7 1    
    13    6   72 1    
    14    6   73 1    
    15    7    8 1    
    16    8    9 1    
    17    8   74 1    
    18    8   75 1    
    19    9   10 ar   
    20    9   14 ar   
    21   10   11 ar   
    22   10   76 1    
    23   11   12 ar   
    24   11   48 1    
    25   12   13 ar   
    26   12   77 1    
    27   13   14 ar   
    28   13   15 1    
    29   14   78 1    
    30   15   16 1    
    31   15   79 1    
    32   15   80 1    
    33   16   17 1    
    34   17   18 1    
    35   17   81 1    
    36   17   82 1    
    37   18   19 1    
    38   18   22 1    
    39   18   83 1    
    40   19   20 am   BACKBONE|DICT|INTERRES
    41   19   21 2    
    42   20   84 1    
    43   20   85 1    
    44   22   23 am   BACKBONE|DICT|INTERRES
    45   22   86 1    
    46   23   24 2    
    47   23   25 1    
    48   25   26 1    
    49   25   27 1    
    50   25   87 1    
    51   26   88 1    
    52   26   89 1    
    53   26   90 1    
    54   27   28 am   BACKBONE|DICT|INTERRES
    55   27   91 1    
    56   28   29 2    
    57   28   30 1    
    58   30   31 1    
    59   30   32 1    
    60   30   92 1    
    61   31   93 1    
    62   31   94 1    
    63   31   95 1    
    64   32   33 am   BACKBONE|DICT|INTERRES
    65   32   96 1    
    66   33   34 2    
    67   33   35 1    
    68   35   36 1    
    69   35   37 1    
    70   35   97 1    
    71   36   98 1    
    72   36   99 1    
    73   36  100 1    
    74   37   38 am   BACKBONE|DICT|INTERRES
    75   37  101 1    
    76   38   39 2    
    77   38   40 1    
    78   40   41 1    
    79   40   42 1    
    80   40  102 1    
    81   41  103 1    
    82   41  104 1    
    83   41  105 1    
    84   42   43 am   BACKBONE|DICT|INTERRES
    85   42  106 1    
    86   43   44 2    
    87   43   45 1    
    88   45   46 1    
    89   45   49 1    
    90   45  107 1    
    91   46   47 1    
    92   46  108 1    
    93   46  109 1    
    94   47   48 1    
    95   48  110 1    
    96   48  111 1    
    97   49   50 am   BACKBONE|DICT|INTERRES
    98   49  112 1    
    99   50   51 2    
   100   50   52 1    
   101   52   53 1    
   102   52   54 1    
   103   52  113 1    
   104   53  114 1    
   105   53  115 1    
   106   53  116 1    
   107   54   55 am   BACKBONE|DICT|INTERRES
   108   54  117 1    
   109   55   56 2    
   110   55   57 1    
   111   57   58 1    
   112   57   59 1    
   113   57  118 1    
   114   58  119 1    
   115   58  120 1    
   116   58  121 1    
   117   59   60 am   BACKBONE|DICT|INTERRES
   118   59  122 1    
   119   60   61 2    
   120   60   62 1    
   121   62   63 1    
   122   62   64 1    
   123   62  123 1    
   124   63  124 1    
   125   63  125 1    
   126   63  126 1    
   127   64   65 am   BACKBONE|DICT|INTERRES
   128   64  127 1    
   129   65   66 2    
@<TRIPOS>SUBSTRUCTURE
     1 UNK         1 GROUP             0       ****    0 ROOT    
