@<TRIPOS>MOLECULE
3R134
127   129    1
SMALL
USER_CHARGES


@<TRIPOS>ATOM
      1 CA         34.7086  -42.7780  -50.1457 C.3       0 UNK        -0.1968 
      2 C          35.1741  -43.9916  -50.9375 C.2       0 UNK         0.4852 
      3 O          36.1864  -44.6000  -50.5856 O.2       0 UNK        -0.5359 
      4 N          34.4476  -44.3386  -52.0076 N.am      1 UNK        -0.4300 
      5 CA         34.7069  -45.5042  -52.8617 C.3       1 UNK         0.0863 
      6 C6         33.9794  -45.4252  -54.2332 C.3       11 UNK        -0.0953 
      7 S7         34.1613  -43.8065  -55.0632 S.3       11 UNK        -0.2369 
      8 C8         32.6510  -43.7076  -56.0950 C.3       11 UNK         0.0226 
      9 C9         31.3060  -43.6956  -55.3595 C.ar      11 UNK        -0.0699 
     10 C10        31.1964  -43.5581  -53.9698 C.ar      11 UNK        -0.0804 
     11 C11        29.9527  -43.6279  -53.3382 C.ar      11 UNK        -0.0871 
     12 C12        28.7943  -43.7295  -54.1097 C.ar      11 UNK        -0.1008 
     13 C13        28.8815  -43.8663  -55.4960 C.ar      11 UNK        -0.0735 
     14 C14        30.1376  -43.8589  -56.1117 C.ar      11 UNK        -0.0945 
     15 C15        27.6223  -44.1346  -56.3013 C.3       11 UNK         0.0169 
     16 S16        26.9220  -42.6453  -57.0743 S.3       11 UNK        -0.2669 
     17 C17        27.8172  -42.5447  -58.6634 C.3       11 UNK        -0.0850 
     18 CA         27.0567  -43.2496  -59.8313 C.3       10 UNK         0.0855 
     19 C          27.5402  -42.8139  -61.2518 C.2       10 UNK         0.5543 
     20 N          27.7999  -41.5313  -61.4706 N.am      10 UNK        -0.7343 
     21 O          27.6292  -43.6122  -62.1835 O.2       10 UNK        -0.5027 
     22 N          26.9907  -44.7139  -59.6604 N.am      10 UNK        -0.4495 
     23 C          28.0225  -45.5684  -59.7025 C.2       10 UNK         0.4903 
     24 O          29.1999  -45.2246  -59.8228 O.2       10 UNK        -0.4860 
     25 CA         27.6722  -47.0575  -59.5304 C.3       9 UNK         0.0227 
     26 CB         28.8613  -47.9851  -59.8425 C.3       9 UNK        -0.1964 
     27 N          27.2126  -47.3298  -58.1691 N.am      9 UNK        -0.4231 
     28 C          25.9667  -47.1507  -57.7127 C.2       9 UNK         0.5014 
     29 O          25.0466  -46.7046  -58.4022 O.2       9 UNK        -0.5270 
     30 CA         25.7279  -47.5385  -56.2386 C.3       8 UNK         0.0284 
     31 CB         24.2428  -47.4823  -55.8238 C.3       8 UNK        -0.1977 
     32 N          26.3263  -48.8364  -55.9041 N.am      8 UNK        -0.4342 
     33 C          26.0420  -50.0319  -56.4428 C.2       8 UNK         0.5039 
     34 O          25.1378  -50.2253  -57.2566 O.2       8 UNK        -0.5547 
     35 CA         26.9346  -51.2188  -56.0369 C.3       7 UNK         0.0281 
     36 CB         27.8743  -51.5865  -57.1980 C.3       7 UNK        -0.1963 
     37 N          27.7390  -50.9691  -54.8369 N.am      7 UNK        -0.4444 
     38 C          27.2736  -51.0108  -53.5812 C.2       7 UNK         0.5104 
     39 O          26.1112  -51.2939  -53.2903 O.2       7 UNK        -0.5100 
     40 CA         28.2684  -50.6502  -52.4613 C.3       6 UNK         0.0396 
     41 CB         29.1801  -51.8431  -52.1344 C.3       6 UNK        -0.1801 
     42 N          29.0868  -49.4734  -52.7718 N.am      6 UNK        -0.4747 
     43 C          28.6014  -48.2350  -52.9550 C.2       6 UNK         0.5012 
     44 O          27.4061  -47.9507  -52.8788 O.2       6 UNK        -0.5003 
     45 CA         29.6126  -47.1450  -53.3531 C.3       5 UNK         0.0782 
     46 C46        30.3223  -46.5127  -52.1260 C.3       11 UNK        -0.0868 
     47 S47        29.2597  -45.3138  -51.2386 S.3       11 UNK        -0.2515 
     48 C48        29.8684  -43.6888  -51.8200 C.3       11 UNK         0.0199 
     49 N          30.5558  -47.6614  -54.3488 N.am      5 UNK        -0.4607 
     50 C          30.2374  -47.8515  -55.6385 C.2       4 UNK         0.5031 
     51 O          29.1460  -47.5543  -56.1239 O.2       4 UNK        -0.5119 
     52 CA         31.2862  -48.5217  -56.5419 C.3       4 UNK         0.0263 
     53 CB         32.1714  -47.4652  -57.2181 C.3       4 UNK        -0.1967 
     54 N          32.1215  -49.5016  -55.8427 N.am      4 UNK        -0.4237 
     55 C          31.6559  -50.6491  -55.3290 C.2       3 UNK         0.4908 
     56 O          30.4829  -51.0066  -55.4142 O.2       3 UNK        -0.5102 
     57 CA         32.6449  -51.5301  -54.5493 C.3       3 UNK         0.0241 
     58 CB         33.3490  -52.5128  -55.4981 C.3       3 UNK        -0.1971 
     59 N          33.6480  -50.7895  -53.7767 N.am      3 UNK        -0.4139 
     60 C          33.3932  -49.8545  -52.8493 C.2       2 UNK         0.5016 
     61 O          32.2606  -49.4367  -52.5962 O.2       2 UNK        -0.5319 
     62 CA         34.6041  -49.2755  -52.0942 C.3       2 UNK         0.0286 
     63 CB         35.8777  -50.1419  -52.1887 C.3       2 UNK        -0.1963 
     64 N          34.9056  -47.9316  -52.5883 N.am      2 UNK        -0.4790 
     65 C          34.3314  -46.8120  -52.1319 C.2       1 UNK         0.5024 
     66 O          33.5208  -46.7907  -51.2024 O.2       1 UNK        -0.4888 
     67 H67        35.4918  -42.0208  -50.1244 H         1 UNK         0.0892 
     68 H68        33.8139  -42.3278  -50.5755 H         1 UNK         0.0892 
     69 H69        34.4832  -43.0649  -49.1189 H         1 UNK         0.0892 
     70 H70        33.6311  -43.7991  -52.2439 H         1 UNK         0.3107 
     71 H71        35.7818  -45.5289  -53.0553 H         1 UNK         0.0773 
     72 H72        32.9197  -45.6573  -54.1246 H         1 UNK         0.0680 
     73 H73        34.3810  -46.1839  -54.9063 H         1 UNK         0.0680 
     74 H74        32.7162  -42.7982  -56.6936 H         1 UNK         0.0650 
     75 H75        32.6682  -44.5374  -56.8018 H         1 UNK         0.0650 
     76 H76        32.0794  -43.4468  -53.3629 H         1 UNK         0.1397 
     77 H77        27.8308  -43.7842  -53.6211 H         1 UNK         0.1363 
     78 H78        30.2111  -44.0069  -57.1798 H         1 UNK         0.1355 
     79 H79        27.8344  -44.8933  -57.0479 H         1 UNK         0.0707 
     80 H80        26.8568  -44.5605  -55.6524 H         1 UNK         0.0707 
     81 H81        28.8294  -42.9322  -58.5626 H         1 UNK         0.1034 
     82 H82        27.9380  -41.4794  -58.8602 H         1 UNK         0.1034 
     83 H83        26.0180  -42.9191  -59.7939 H         1 UNK         0.0482 
     84 H84        28.0909  -41.2454  -62.3926 H         1 UNK         0.3460 
     85 H85        27.6926  -40.8397  -60.7458 H         1 UNK         0.3460 
     86 H86        26.0657  -45.1031  -59.5223 H         1 UNK         0.2989 
     87 H87        26.8721  -47.2955  -60.2345 H         1 UNK         0.0559 
     88 H88        29.7035  -47.8001  -59.1757 H         1 UNK         0.0848 
     89 H89        29.2151  -47.8344  -60.8632 H         1 UNK         0.0848 
     90 H90        28.5823  -49.0347  -59.7473 H         1 UNK         0.0848 
     91 H91        27.9287  -47.5889  -57.4918 H         1 UNK         0.3144 
     92 H92        26.2631  -46.8056  -55.6351 H         1 UNK         0.0727 
     93 H93        23.6290  -48.1616  -56.4159 H         1 UNK         0.0790 
     94 H94        23.8389  -46.4783  -55.9598 H         1 UNK         0.0790 
     95 H95        24.1158  -47.7434  -54.7731 H         1 UNK         0.0790 
     96 H96        27.1002  -48.7977  -55.2541 H         1 UNK         0.3215 
     97 H97        26.2790  -52.0708  -55.8440 H         1 UNK         0.0863 
     98 H98        28.5477  -50.7647  -57.4457 H         1 UNK         0.0808 
     99 H99        27.3090  -51.8279  -58.0993 H         1 UNK         0.0808 
    100 H100       28.4841  -52.4570  -56.9553 H         1 UNK         0.0808 
    101 H101       28.7353  -50.8087  -54.9843 H         1 UNK         0.3118 
    102 H102       27.6881  -50.4164  -51.5663 H         1 UNK         0.0546 
    103 H103       29.8616  -51.6114  -51.3157 H         1 UNK         0.0828 
    104 H104       29.7783  -52.1435  -52.9944 H         1 UNK         0.0828 
    105 H105       28.5914  -52.7098  -51.8311 H         1 UNK         0.0828 
    106 H106       30.0886  -49.6129  -52.8479 H         1 UNK         0.3005 
    107 H107       29.0359  -46.3619  -53.8460 H         1 UNK         0.1257 
    108 H108       31.2267  -45.9937  -52.4410 H         1 UNK         0.0775 
    109 H109       30.6604  -47.2796  -51.4262 H         1 UNK         0.0775 
    110 H110       29.1983  -42.9061  -51.4617 H         1 UNK         0.0840 
    111 H111       30.8407  -43.4935  -51.3650 H         1 UNK         0.0840 
    112 H112       31.4321  -48.0217  -53.9924 H         1 UNK         0.2987 
    113 H113       30.7412  -49.0550  -57.3237 H         1 UNK         0.0785 
    114 H114       32.8321  -47.9159  -57.9587 H         1 UNK         0.0798 
    115 H115       31.5648  -46.7209  -57.7369 H         1 UNK         0.0798 
    116 H116       32.7888  -46.9358  -56.4944 H         1 UNK         0.0798 
    117 H117       33.1008  -49.2842  -55.7320 H         1 UNK         0.3079 
    118 H118       32.0607  -52.1121  -53.8343 H         1 UNK         0.0794 
    119 H119       33.9642  -53.2252  -54.9480 H         1 UNK         0.0786 
    120 H120       33.9900  -51.9963  -56.2137 H         1 UNK         0.0786 
    121 H121       32.6221  -53.0916  -56.0701 H         1 UNK         0.0786 
    122 H122       34.6105  -51.0600  -53.9184 H         1 UNK         0.3032 
    123 H123       34.3182  -49.2256  -51.0406 H         1 UNK         0.1094 
    124 H124       36.2793  -50.1871  -53.2018 H         1 UNK         0.0794 
    125 H125       36.6635  -49.7438  -51.5460 H         1 UNK         0.0794 
    126 H126       35.6872  -51.1634  -51.8557 H         1 UNK         0.0794 
    127 H127       35.5510  -47.8688  -53.3631 H         1 UNK         0.3016 
@<TRIPOS>BOND
     1    1    2 1    
     2    1   67 1    
     3    1   68 1    
     4    1   69 1    
     5    2    3 2    
     6    2    4 am   BACKBONE|DICT|INTERRES
     7    4    5 1    
     8    4   70 1    
     9    5    6 1    
    10    5   65 1    
    11    5   71 1    
    12    6    7 1    
    13    6   72 1    
    14    6   73 1    
    15    7    8 1    
    16    8    9 1    
    17    8   74 1    
    18    8   75 1    
    19    9   10 ar   
    20    9   14 ar   
    21   10   11 ar   
    22   10   76 1    
    23   11   12 ar   
    24   11   48 1    
    25   12   13 ar   
    26   12   77 1    
    27   13   14 ar   
    28   13   15 1    
    29   14   78 1    
    30   15   16 1    
    31   15   79 1    
    32   15   80 1    
    33   16   17 1    
    34   17   18 1    
    35   17   81 1    
    36   17   82 1    
    37   18   19 1    
    38   18   22 1    
    39   18   83 1    
    40   19   20 am   BACKBONE|DICT|INTERRES
    41   19   21 2    
    42   20   84 1    
    43   20   85 1    
    44   22   23 am   BACKBONE|DICT|INTERRES
    45   22   86 1    
    46   23   24 2    
    47   23   25 1    
    48   25   26 1    
    49   25   27 1    
    50   25   87 1    
    51   26   88 1    
    52   26   89 1    
    53   26   90 1    
    54   27   28 am   BACKBONE|DICT|INTERRES
    55   27   91 1    
    56   28   29 2    
    57   28   30 1    
    58   30   31 1    
    59   30   32 1    
    60   30   92 1    
    61   31   93 1    
    62   31   94 1    
    63   31   95 1    
    64   32   33 am   BACKBONE|DICT|INTERRES
    65   32   96 1    
    66   33   34 2    
    67   33   35 1    
    68   35   36 1    
    69   35   37 1    
    70   35   97 1    
    71   36   98 1    
    72   36   99 1    
    73   36  100 1    
    74   37   38 am   BACKBONE|DICT|INTERRES
    75   37  101 1    
    76   38   39 2    
    77   38   40 1    
    78   40   41 1    
    79   40   42 1    
    80   40  102 1    
    81   41  103 1    
    82   41  104 1    
    83   41  105 1    
    84   42   43 am   BACKBONE|DICT|INTERRES
    85   42  106 1    
    86   43   44 2    
    87   43   45 1    
    88   45   46 1    
    89   45   49 1    
    90   45  107 1    
    91   46   47 1    
    92   46  108 1    
    93   46  109 1    
    94   47   48 1    
    95   48  110 1    
    96   48  111 1    
    97   49   50 am   BACKBONE|DICT|INTERRES
    98   49  112 1    
    99   50   51 2    
   100   50   52 1    
   101   52   53 1    
   102   52   54 1    
   103   52  113 1    
   104   53  114 1    
   105   53  115 1    
   106   53  116 1    
   107   54   55 am   BACKBONE|DICT|INTERRES
   108   54  117 1    
   109   55   56 2    
   110   55   57 1    
   111   57   58 1    
   112   57   59 1    
   113   57  118 1    
   114   58  119 1    
   115   58  120 1    
   116   58  121 1    
   117   59   60 am   BACKBONE|DICT|INTERRES
   118   59  122 1    
   119   60   61 2    
   120   60   62 1    
   121   62   63 1    
   122   62   64 1    
   123   62  123 1    
   124   63  124 1    
   125   63  125 1    
   126   63  126 1    
   127   64   65 am   BACKBONE|DICT|INTERRES
   128   64  127 1    
   129   65   66 2    
@<TRIPOS>SUBSTRUCTURE
     1 UNK         1 GROUP             0       ****    0 ROOT    
