@<TRIPOS>MOLECULE
3R134
127   129    1
SMALL
USER_CHARGES


@<TRIPOS>ATOM
      1 CA         35.7961  -47.7179  -58.4796 C.3       0 UNK        -0.1968 
      2 C          34.8694  -48.0246  -57.3133 C.2       0 UNK         0.4852 
      3 O          34.0072  -48.8970  -57.4274 O.2       0 UNK        -0.5359 
      4 N          35.0459  -47.3288  -56.1824 N.am      1 UNK        -0.4300 
      5 CA         34.2268  -47.4373  -54.9675 C.3       1 UNK         0.0863 
      6 C6         34.2775  -46.1333  -54.1194 C.3       11 UNK        -0.0953 
      7 S7         33.9601  -44.5821  -55.0355 S.3       11 UNK        -0.2369 
      8 C8         32.3429  -44.9130  -55.7987 C.3       11 UNK         0.0226 
      9 C9         31.3744  -43.7480  -55.6597 C.ar      11 UNK        -0.0699 
     10 C10        30.9420  -43.3530  -54.3919 C.ar      11 UNK        -0.0804 
     11 C11        29.9248  -42.4049  -54.2479 C.ar      11 UNK        -0.0871 
     12 C12        29.4061  -41.7860  -55.3880 C.ar      11 UNK        -0.1008 
     13 C13        29.8488  -42.1461  -56.6668 C.ar      11 UNK        -0.0735 
     14 C14        30.8379  -43.1274  -56.7919 C.ar      11 UNK        -0.0945 
     15 C15        29.2901  -41.4764  -57.9215 C.3       11 UNK         0.0169 
     16 S16        27.5129  -41.0608  -57.8292 S.3       11 UNK        -0.2669 
     17 C17        26.6971  -42.6817  -58.0494 C.3       11 UNK        -0.0850 
     18 CA         26.2656  -43.3785  -56.7231 C.3       10 UNK         0.0855 
     19 C          25.0354  -42.7323  -56.0089 C.2       10 UNK         0.5543 
     20 N          24.2862  -43.4817  -55.2082 N.am      10 UNK        -0.7343 
     21 O          24.7571  -41.5454  -56.1562 O.2       10 UNK        -0.5027 
     22 N          26.1554  -44.8371  -56.8949 N.am      10 UNK        -0.4495 
     23 C          25.2867  -45.4741  -57.6952 C.2       10 UNK         0.4903 
     24 O          24.4310  -44.9078  -58.3773 O.2       10 UNK        -0.4860 
     25 CA         25.4319  -47.0078  -57.7500 C.3       9 UNK         0.0227 
     26 CB         24.5566  -47.6728  -58.8335 C.3       9 UNK        -0.1964 
     27 N          26.8390  -47.4022  -57.8780 N.am      9 UNK        -0.4231 
     28 C          27.6840  -47.1019  -58.8770 C.2       9 UNK         0.5014 
     29 O          27.3444  -46.5787  -59.9389 O.2       9 UNK        -0.5270 
     30 CA         29.1766  -47.3853  -58.6371 C.3       8 UNK         0.0284 
     31 CB         29.9233  -46.0697  -58.3748 C.3       8 UNK        -0.1977 
     32 N          29.4132  -48.2872  -57.5080 N.am      8 UNK        -0.4342 
     33 C          29.4300  -49.6224  -57.5980 C.2       8 UNK         0.5039 
     34 O          29.2863  -50.2457  -58.6502 O.2       8 UNK        -0.5547 
     35 CA         29.6219  -50.3898  -56.2808 C.3       7 UNK         0.0281 
     36 CB         31.1141  -50.4939  -55.9320 C.3       7 UNK        -0.1963 
     37 N          28.8799  -49.7918  -55.1637 N.am      7 UNK        -0.4444 
     38 C          27.5405  -49.8128  -55.0655 C.2       7 UNK         0.5104 
     39 O          26.8068  -50.3624  -55.8866 O.2       7 UNK        -0.5100 
     40 CA         26.8931  -49.0846  -53.8736 C.3       6 UNK         0.0396 
     41 CB         26.5811  -50.0786  -52.7443 C.3       6 UNK        -0.1801 
     42 N          27.6988  -47.9849  -53.3413 N.am      6 UNK        -0.4747 
     43 C          27.9822  -46.8483  -53.9944 C.2       6 UNK         0.5012 
     44 O          27.5794  -46.5962  -55.1305 O.2       6 UNK        -0.5003 
     45 CA         28.9097  -45.8420  -53.2884 C.3       5 UNK         0.0782 
     46 C46        28.1121  -44.6377  -52.7175 C.3       11 UNK        -0.0868 
     47 S47        29.1540  -43.4780  -51.7551 S.3       11 UNK        -0.2515 
     48 C48        29.3581  -42.0483  -52.8764 C.3       11 UNK         0.0199 
     49 N          29.7813  -46.4631  -52.2840 N.am      5 UNK        -0.4607 
     50 C          30.7501  -47.3486  -52.5419 C.2       4 UNK         0.5031 
     51 O          30.9827  -47.7887  -53.6712 O.2       4 UNK        -0.5119 
     52 CA         31.6067  -47.8138  -51.3470 C.3       4 UNK         0.0263 
     53 CB         30.9281  -47.6237  -49.9704 C.3       4 UNK        -0.1967 
     54 N          32.0630  -49.1953  -51.5189 N.am      4 UNK        -0.4237 
     55 C          31.2934  -50.2893  -51.6348 C.2       3 UNK         0.4908 
     56 O          30.0659  -50.2850  -51.5285 O.2       3 UNK        -0.5102 
     57 CA         32.0319  -51.5906  -51.9798 C.3       3 UNK         0.0241 
     58 CB         31.0864  -52.7316  -52.4041 C.3       3 UNK        -0.1971 
     59 N          32.9851  -51.3097  -53.0512 N.am      3 UNK        -0.4139 
     60 C          34.2617  -51.7005  -53.0919 C.2       2 UNK         0.5016 
     61 O          34.7821  -52.4476  -52.2627 O.2       2 UNK        -0.5319 
     62 CA         35.1112  -51.1453  -54.2499 C.3       2 UNK         0.0286 
     63 CB         35.1864  -52.1685  -55.3946 C.3       2 UNK        -0.1963 
     64 N          34.6521  -49.8590  -54.7945 N.am      2 UNK        -0.4790 
     65 C          34.5855  -48.6935  -54.1340 C.2       1 UNK         0.5024 
     66 O          34.8031  -48.5950  -52.9248 O.2       1 UNK        -0.4888 
     67 H67        36.5056  -46.9261  -58.2398 H         1 UNK         0.0892 
     68 H68        36.3605  -48.6086  -58.7541 H         1 UNK         0.0892 
     69 H69        35.2150  -47.4018  -59.3454 H         1 UNK         0.0892 
     70 H70        35.7841  -46.6405  -56.1388 H         1 UNK         0.3107 
     71 H71        33.1932  -47.5907  -55.2799 H         1 UNK         0.0773 
     72 H72        33.5544  -46.1861  -53.3048 H         1 UNK         0.0680 
     73 H73        35.2560  -46.0284  -53.6469 H         1 UNK         0.0680 
     74 H74        31.8744  -45.7815  -55.3372 H         1 UNK         0.0650 
     75 H75        32.5069  -45.1681  -56.8459 H         1 UNK         0.0650 
     76 H76        31.3567  -43.8362  -53.5177 H         1 UNK         0.1397 
     77 H77        28.6396  -41.0312  -55.2785 H         1 UNK         0.1363 
     78 H78        31.1751  -43.4249  -57.7754 H         1 UNK         0.1355 
     79 H79        29.8478  -40.5537  -58.0863 H         1 UNK         0.0707 
     80 H80        29.4621  -42.0986  -58.8012 H         1 UNK         0.0707 
     81 H81        27.3798  -43.3286  -58.6028 H         1 UNK         0.1034 
     82 H82        25.8329  -42.5473  -58.7020 H         1 UNK         0.1034 
     83 H83        27.0856  -43.2578  -56.0160 H         1 UNK         0.0482 
     84 H84        23.4943  -43.0676  -54.7424 H         1 UNK         0.3460 
     85 H85        24.4982  -44.4574  -55.0765 H         1 UNK         0.3460 
     86 H86        26.7847  -45.4019  -56.3296 H         1 UNK         0.2989 
     87 H87        25.0984  -47.3828  -56.7812 H         1 UNK         0.0559 
     88 H88        24.7901  -47.3022  -59.8319 H         1 UNK         0.0848 
     89 H89        23.4993  -47.4738  -58.6547 H         1 UNK         0.0848 
     90 H90        24.6865  -48.7550  -58.8380 H         1 UNK         0.0848 
     91 H91        27.2466  -47.7895  -57.0379 H         1 UNK         0.3144 
     92 H92        29.5789  -47.8295  -59.5503 H         1 UNK         0.0727 
     93 H93        30.9963  -46.2398  -58.2943 H         1 UNK         0.0790 
     94 H94        29.5801  -45.5926  -57.4560 H         1 UNK         0.0790 
     95 H95        29.7696  -45.3597  -59.1888 H         1 UNK         0.0790 
     96 H96        29.5446  -47.8643  -56.6001 H         1 UNK         0.3215 
     97 H97        29.2427  -51.4025  -56.4365 H         1 UNK         0.0863 
     98 H98        31.5387  -49.5283  -55.6568 H         1 UNK         0.0808 
     99 H99        31.6902  -50.8700  -56.7792 H         1 UNK         0.0808 
    100 H100       31.2674  -51.1893  -55.1109 H         1 UNK         0.0808 
    101 H101       29.4146  -49.3080  -54.4522 H         1 UNK         0.3118 
    102 H102       25.9487  -48.6626  -54.2241 H         1 UNK         0.0546 
    103 H103       26.0521  -49.5953  -51.9229 H         1 UNK         0.0828 
    104 H104       27.4883  -50.5302  -52.3411 H         1 UNK         0.0828 
    105 H105       25.9465  -50.8902  -53.1032 H         1 UNK         0.0828 
    106 H106       28.1035  -48.1215  -52.4253 H         1 UNK         0.3005 
    107 H107       29.5570  -45.4782  -54.0832 H         1 UNK         0.1257 
    108 H108       27.3194  -44.9889  -52.0541 H         1 UNK         0.0775 
    109 H109       27.6130  -44.0930  -53.5215 H         1 UNK         0.0775 
    110 H110       28.3885  -41.5583  -52.9800 H         1 UNK         0.0840 
    111 H111       30.0207  -41.3230  -52.4027 H         1 UNK         0.0840 
    112 H112       29.6597  -46.1365  -51.3362 H         1 UNK         0.2987 
    113 H113       32.5059  -47.1969  -51.3596 H         1 UNK         0.0785 
    114 H114       31.5482  -48.0278  -49.1700 H         1 UNK         0.0798 
    115 H115       30.7732  -46.5684  -49.7432 H         1 UNK         0.0798 
    116 H116       29.9591  -48.1217  -49.9179 H         1 UNK         0.0798 
    117 H117       33.0583  -49.2976  -51.6790 H         1 UNK         0.3079 
    118 H118       32.5624  -51.8983  -51.0761 H         1 UNK         0.0794 
    119 H119       30.4098  -52.9980  -51.5910 H         1 UNK         0.0786 
    120 H120       31.6439  -53.6303  -52.6683 H         1 UNK         0.0786 
    121 H121       30.4709  -52.4538  -53.2600 H         1 UNK         0.0786 
    122 H122       32.6711  -50.6698  -53.7669 H         1 UNK         0.3032 
    123 H123       36.1192  -50.9929  -53.8578 H         1 UNK         0.1094 
    124 H124       34.2094  -52.3359  -55.8502 H         1 UNK         0.0794 
    125 H125       35.8697  -51.8388  -56.1776 H         1 UNK         0.0794 
    126 H126       35.5492  -53.1327  -55.0354 H         1 UNK         0.0794 
    127 H127       34.4414  -49.8280  -55.7895 H         1 UNK         0.3016 
@<TRIPOS>BOND
     1    1    2 1    
     2    1   67 1    
     3    1   68 1    
     4    1   69 1    
     5    2    3 2    
     6    2    4 am   BACKBONE|DICT|INTERRES
     7    4    5 1    
     8    4   70 1    
     9    5    6 1    
    10    5   65 1    
    11    5   71 1    
    12    6    7 1    
    13    6   72 1    
    14    6   73 1    
    15    7    8 1    
    16    8    9 1    
    17    8   74 1    
    18    8   75 1    
    19    9   10 ar   
    20    9   14 ar   
    21   10   11 ar   
    22   10   76 1    
    23   11   12 ar   
    24   11   48 1    
    25   12   13 ar   
    26   12   77 1    
    27   13   14 ar   
    28   13   15 1    
    29   14   78 1    
    30   15   16 1    
    31   15   79 1    
    32   15   80 1    
    33   16   17 1    
    34   17   18 1    
    35   17   81 1    
    36   17   82 1    
    37   18   19 1    
    38   18   22 1    
    39   18   83 1    
    40   19   20 am   BACKBONE|DICT|INTERRES
    41   19   21 2    
    42   20   84 1    
    43   20   85 1    
    44   22   23 am   BACKBONE|DICT|INTERRES
    45   22   86 1    
    46   23   24 2    
    47   23   25 1    
    48   25   26 1    
    49   25   27 1    
    50   25   87 1    
    51   26   88 1    
    52   26   89 1    
    53   26   90 1    
    54   27   28 am   BACKBONE|DICT|INTERRES
    55   27   91 1    
    56   28   29 2    
    57   28   30 1    
    58   30   31 1    
    59   30   32 1    
    60   30   92 1    
    61   31   93 1    
    62   31   94 1    
    63   31   95 1    
    64   32   33 am   BACKBONE|DICT|INTERRES
    65   32   96 1    
    66   33   34 2    
    67   33   35 1    
    68   35   36 1    
    69   35   37 1    
    70   35   97 1    
    71   36   98 1    
    72   36   99 1    
    73   36  100 1    
    74   37   38 am   BACKBONE|DICT|INTERRES
    75   37  101 1    
    76   38   39 2    
    77   38   40 1    
    78   40   41 1    
    79   40   42 1    
    80   40  102 1    
    81   41  103 1    
    82   41  104 1    
    83   41  105 1    
    84   42   43 am   BACKBONE|DICT|INTERRES
    85   42  106 1    
    86   43   44 2    
    87   43   45 1    
    88   45   46 1    
    89   45   49 1    
    90   45  107 1    
    91   46   47 1    
    92   46  108 1    
    93   46  109 1    
    94   47   48 1    
    95   48  110 1    
    96   48  111 1    
    97   49   50 am   BACKBONE|DICT|INTERRES
    98   49  112 1    
    99   50   51 2    
   100   50   52 1    
   101   52   53 1    
   102   52   54 1    
   103   52  113 1    
   104   53  114 1    
   105   53  115 1    
   106   53  116 1    
   107   54   55 am   BACKBONE|DICT|INTERRES
   108   54  117 1    
   109   55   56 2    
   110   55   57 1    
   111   57   58 1    
   112   57   59 1    
   113   57  118 1    
   114   58  119 1    
   115   58  120 1    
   116   58  121 1    
   117   59   60 am   BACKBONE|DICT|INTERRES
   118   59  122 1    
   119   60   61 2    
   120   60   62 1    
   121   62   63 1    
   122   62   64 1    
   123   62  123 1    
   124   63  124 1    
   125   63  125 1    
   126   63  126 1    
   127   64   65 am   BACKBONE|DICT|INTERRES
   128   64  127 1    
   129   65   66 2    
@<TRIPOS>SUBSTRUCTURE
     1 UNK         1 GROUP             0       ****    0 ROOT    
