@<TRIPOS>MOLECULE
3R134
127   129    1
SMALL
USER_CHARGES


@<TRIPOS>ATOM
      1 CA         30.5367  -44.9400  -48.1745 C.3       0 UNK        -0.1968 
      2 C          31.9483  -44.8974  -48.7410 C.2       0 UNK         0.4852 
      3 O          32.7957  -45.6925  -48.3324 O.2       0 UNK        -0.5359 
      4 N          32.2075  -43.9732  -49.6758 N.am      1 UNK        -0.4300 
      5 CA         33.4969  -43.8093  -50.3588 C.3       1 UNK         0.0863 
      6 C6         33.6060  -42.4038  -51.0109 C.3       11 UNK        -0.0953 
      7 S7         32.4694  -42.1317  -52.4258 S.3       11 UNK        -0.2369 
      8 C8         33.6435  -42.0973  -53.8213 C.3       11 UNK         0.0226 
      9 C9         33.0942  -42.7726  -55.0719 C.ar      11 UNK        -0.0699 
     10 C10        33.7079  -43.9266  -55.5728 C.ar      11 UNK        -0.0804 
     11 C11        33.2592  -44.5149  -56.7594 C.ar      11 UNK        -0.0871 
     12 C12        32.1852  -43.9396  -57.4447 C.ar      11 UNK        -0.1008 
     13 C13        31.5505  -42.7984  -56.9478 C.ar      11 UNK        -0.0735 
     14 C14        32.0122  -42.2161  -55.7622 C.ar      11 UNK        -0.0945 
     15 C15        30.3939  -42.1764  -57.7196 C.3       11 UNK         0.0169 
     16 S16        28.9025  -43.2254  -57.7125 S.3       11 UNK        -0.2669 
     17 C17        28.4155  -43.1684  -55.9541 C.3       11 UNK        -0.0850 
     18 CA         28.3680  -44.5865  -55.3095 C.3       10 UNK         0.0855 
     19 C          28.2489  -44.5496  -53.7531 C.2       10 UNK         0.5543 
     20 N          29.0254  -43.7118  -53.0775 N.am      10 UNK        -0.7343 
     21 O          27.5007  -45.3053  -53.1363 O.2       10 UNK        -0.5027 
     22 N          27.3800  -45.4745  -55.9508 N.am      10 UNK        -0.4495 
     23 C          26.0489  -45.2978  -55.9687 C.2       10 UNK         0.4903 
     24 O          25.4725  -44.3105  -55.5104 O.2       10 UNK        -0.4860 
     25 CA         25.2047  -46.4178  -56.5973 C.3       9 UNK         0.0227 
     26 CB         24.9885  -46.1568  -58.0945 C.3       9 UNK        -0.1964 
     27 N          25.8207  -47.7315  -56.4010 N.am      9 UNK        -0.4231 
     28 C          25.6719  -48.4696  -55.2926 C.2       9 UNK         0.5014 
     29 O          24.9082  -48.1721  -54.3716 O.2       9 UNK        -0.5270 
     30 CA         26.5424  -49.7372  -55.1852 C.3       8 UNK         0.0284 
     31 CB         26.0669  -50.7152  -54.0900 C.3       8 UNK        -0.1977 
     32 N          26.7315  -50.4368  -56.4610 N.am      8 UNK        -0.4342 
     33 C          25.7900  -50.9677  -57.2541 C.2       8 UNK         0.5039 
     34 O          24.5841  -50.9681  -56.9991 O.2       8 UNK        -0.5547 
     35 CA         26.3105  -51.5923  -58.5634 C.3       7 UNK         0.0281 
     36 CB         25.1821  -52.0668  -59.5049 C.3       7 UNK        -0.1963 
     37 N          27.2471  -50.7007  -59.2622 N.am      7 UNK        -0.4444 
     38 C          26.9903  -49.4786  -59.7557 C.2       7 UNK         0.5104 
     39 O          25.8817  -48.9442  -59.7424 O.2       7 UNK        -0.5100 
     40 CA         28.2052  -48.7262  -60.3363 C.3       6 UNK         0.0396 
     41 CB         27.9032  -47.2634  -60.7234 C.3       6 UNK        -0.1801 
     42 N          29.3855  -48.7889  -59.4655 N.am      6 UNK        -0.4747 
     43 C          29.4660  -48.4020  -58.1823 C.2       6 UNK         0.5012 
     44 O          28.5326  -47.9148  -57.5352 O.2       6 UNK        -0.5003 
     45 CA         30.8415  -48.5839  -57.5109 C.3       5 UNK         0.0782 
     46 C46        31.5610  -47.2160  -57.4464 C.3       11 UNK        -0.0868 
     47 S47        33.2302  -47.3015  -56.7149 S.3       11 UNK        -0.2515 
     48 C48        33.9577  -45.7462  -57.3246 C.3       11 UNK         0.0199 
     49 N          30.7434  -49.2263  -56.1946 N.am      5 UNK        -0.4607 
     50 C          30.1565  -50.4004  -55.9220 C.2       4 UNK         0.5031 
     51 O          29.5430  -51.0667  -56.7590 O.2       4 UNK        -0.5119 
     52 CA         30.2513  -50.9010  -54.4634 C.3       4 UNK         0.0263 
     53 CB         30.0294  -52.4234  -54.3425 C.3       4 UNK        -0.1967 
     54 N          31.4860  -50.4909  -53.7782 N.am      4 UNK        -0.4237 
     55 C          32.7490  -50.7876  -54.1234 C.2       3 UNK         0.4908 
     56 O          33.0529  -51.5173  -55.0683 O.2       3 UNK        -0.5102 
     57 CA         33.8497  -50.0933  -53.2987 C.3       3 UNK         0.0241 
     58 CB         35.2699  -50.4827  -53.7512 C.3       3 UNK        -0.1971 
     59 N          33.7006  -48.6402  -53.4028 N.am      3 UNK        -0.4139 
     60 C          32.9246  -47.8895  -52.6122 C.2       2 UNK         0.5016 
     61 O          32.2992  -48.3293  -51.6450 O.2       2 UNK        -0.5319 
     62 CA         32.7210  -46.4375  -53.0526 C.3       2 UNK         0.0286 
     63 CB         31.3804  -46.2919  -53.7850 C.3       2 UNK        -0.1963 
     64 N          32.7043  -45.5181  -51.9247 N.am      2 UNK        -0.4790 
     65 C          33.7783  -44.9322  -51.3842 C.2       1 UNK         0.5024 
     66 O          34.9384  -45.2011  -51.6993 O.2       1 UNK        -0.4888 
     67 H67        30.5606  -44.7880  -47.0957 H         1 UNK         0.0892 
     68 H68        29.8978  -44.1722  -48.6104 H         1 UNK         0.0892 
     69 H69        30.0831  -45.9109  -48.3721 H         1 UNK         0.0892 
     70 H70        31.4804  -43.3342  -49.9657 H         1 UNK         0.3107 
     71 H71        34.2793  -43.8775  -49.5996 H         1 UNK         0.0773 
     72 H72        34.6363  -42.2159  -51.3169 H         1 UNK         0.0680 
     73 H73        33.3936  -41.6382  -50.2630 H         1 UNK         0.0680 
     74 H74        33.8909  -41.0596  -54.0487 H         1 UNK         0.0650 
     75 H75        34.5800  -42.5758  -53.5321 H         1 UNK         0.0650 
     76 H76        34.5515  -44.3563  -55.0502 H         1 UNK         0.1397 
     77 H77        31.8382  -44.3776  -58.3703 H         1 UNK         0.1363 
     78 H78        31.5434  -41.3189  -55.3818 H         1 UNK         0.1355 
     79 H79        30.7035  -42.0166  -58.7534 H         1 UNK         0.0707 
     80 H80        30.1430  -41.1915  -57.3225 H         1 UNK         0.0707 
     81 H81        27.4492  -42.6695  -55.8744 H         1 UNK         0.1034 
     82 H82        29.1152  -42.5213  -55.4261 H         1 UNK         0.1034 
     83 H83        29.3279  -45.0642  -55.5031 H         1 UNK         0.0482 
     84 H84        29.6883  -43.1102  -53.5388 H         1 UNK         0.3460 
     85 H85        28.9462  -43.6897  -52.0740 H         1 UNK         0.3460 
     86 H86        27.7576  -46.3169  -56.3682 H         1 UNK         0.2989 
     87 H87        24.2239  -46.4082  -56.1169 H         1 UNK         0.0559 
     88 H88        24.4824  -45.2040  -58.2546 H         1 UNK         0.0848 
     89 H89        24.3723  -46.9331  -58.5485 H         1 UNK         0.0848 
     90 H90        25.9319  -46.1175  -58.6355 H         1 UNK         0.0848 
     91 H91        26.5053  -48.0275  -57.0890 H         1 UNK         0.3144 
     92 H92        27.5273  -49.3743  -54.8928 H         1 UNK         0.0727 
     93 H93        26.7286  -51.5779  -54.0135 H         1 UNK         0.0790 
     94 H94        25.0588  -51.0814  -54.2870 H         1 UNK         0.0790 
     95 H95        26.0524  -50.2326  -53.1120 H         1 UNK         0.0790 
     96 H96        27.6974  -50.5247  -56.7683 H         1 UNK         0.3215 
     97 H97        26.8843  -52.4735  -58.2711 H         1 UNK         0.0863 
     98 H98        25.5847  -52.5184  -60.4114 H         1 UNK         0.0808 
     99 H99        24.5259  -51.2476  -59.8003 H         1 UNK         0.0808 
    100 H100       24.5601  -52.8183  -59.0173 H         1 UNK         0.0808 
    101 H101       28.2060  -51.0203  -59.2967 H         1 UNK         0.3118 
    102 H102       28.4669  -49.2551  -61.2540 H         1 UNK         0.0546 
    103 H103       27.7386  -46.6371  -59.8483 H         1 UNK         0.0828 
    104 H104       27.0160  -47.1919  -61.3539 H         1 UNK         0.0828 
    105 H105       28.7304  -46.8290  -61.2843 H         1 UNK         0.0828 
    106 H106       30.2115  -49.1811  -59.8973 H         1 UNK         0.3005 
    107 H107       31.4413  -49.2541  -58.1304 H         1 UNK         0.1257 
    108 H108       31.6556  -46.8029  -58.4526 H         1 UNK         0.0775 
    109 H109       30.9703  -46.4959  -56.8767 H         1 UNK         0.0775 
    110 H110       35.0152  -45.7265  -57.0570 H         1 UNK         0.0840 
    111 H111       33.9256  -45.7325  -58.4152 H         1 UNK         0.0840 
    112 H112       31.2323  -48.7579  -55.4493 H         1 UNK         0.2987 
    113 H113       29.4384  -50.4129  -53.9251 H         1 UNK         0.0785 
    114 H114       30.0790  -52.7509  -53.3042 H         1 UNK         0.0798 
    115 H115       30.7719  -52.9869  -54.9085 H         1 UNK         0.0798 
    116 H116       29.0477  -52.7083  -54.7233 H         1 UNK         0.0798 
    117 H117       31.3641  -49.8799  -52.9779 H         1 UNK         0.3079 
    118 H118       33.7318  -50.4064  -52.2589 H         1 UNK         0.0794 
    119 H119       35.4245  -51.5594  -53.6690 H         1 UNK         0.0786 
    120 H120       36.0279  -50.0000  -53.1339 H         1 UNK         0.0786 
    121 H121       35.4559  -50.2038  -54.7893 H         1 UNK         0.0786 
    122 H122       34.1322  -48.2106  -54.2098 H         1 UNK         0.3032 
    123 H123       33.5266  -46.1567  -53.7339 H         1 UNK         0.1094 
    124 H124       30.5344  -46.4303  -53.1107 H         1 UNK         0.0794 
    125 H125       31.2985  -45.3051  -54.2404 H         1 UNK         0.0794 
    126 H126       31.2748  -47.0261  -54.5786 H         1 UNK         0.0794 
    127 H127       31.7965  -45.2620  -51.5675 H         1 UNK         0.3016 
@<TRIPOS>BOND
     1    1    2 1    
     2    1   67 1    
     3    1   68 1    
     4    1   69 1    
     5    2    3 2    
     6    2    4 am   BACKBONE|DICT|INTERRES
     7    4    5 1    
     8    4   70 1    
     9    5    6 1    
    10    5   65 1    
    11    5   71 1    
    12    6    7 1    
    13    6   72 1    
    14    6   73 1    
    15    7    8 1    
    16    8    9 1    
    17    8   74 1    
    18    8   75 1    
    19    9   10 ar   
    20    9   14 ar   
    21   10   11 ar   
    22   10   76 1    
    23   11   12 ar   
    24   11   48 1    
    25   12   13 ar   
    26   12   77 1    
    27   13   14 ar   
    28   13   15 1    
    29   14   78 1    
    30   15   16 1    
    31   15   79 1    
    32   15   80 1    
    33   16   17 1    
    34   17   18 1    
    35   17   81 1    
    36   17   82 1    
    37   18   19 1    
    38   18   22 1    
    39   18   83 1    
    40   19   20 am   BACKBONE|DICT|INTERRES
    41   19   21 2    
    42   20   84 1    
    43   20   85 1    
    44   22   23 am   BACKBONE|DICT|INTERRES
    45   22   86 1    
    46   23   24 2    
    47   23   25 1    
    48   25   26 1    
    49   25   27 1    
    50   25   87 1    
    51   26   88 1    
    52   26   89 1    
    53   26   90 1    
    54   27   28 am   BACKBONE|DICT|INTERRES
    55   27   91 1    
    56   28   29 2    
    57   28   30 1    
    58   30   31 1    
    59   30   32 1    
    60   30   92 1    
    61   31   93 1    
    62   31   94 1    
    63   31   95 1    
    64   32   33 am   BACKBONE|DICT|INTERRES
    65   32   96 1    
    66   33   34 2    
    67   33   35 1    
    68   35   36 1    
    69   35   37 1    
    70   35   97 1    
    71   36   98 1    
    72   36   99 1    
    73   36  100 1    
    74   37   38 am   BACKBONE|DICT|INTERRES
    75   37  101 1    
    76   38   39 2    
    77   38   40 1    
    78   40   41 1    
    79   40   42 1    
    80   40  102 1    
    81   41  103 1    
    82   41  104 1    
    83   41  105 1    
    84   42   43 am   BACKBONE|DICT|INTERRES
    85   42  106 1    
    86   43   44 2    
    87   43   45 1    
    88   45   46 1    
    89   45   49 1    
    90   45  107 1    
    91   46   47 1    
    92   46  108 1    
    93   46  109 1    
    94   47   48 1    
    95   48  110 1    
    96   48  111 1    
    97   49   50 am   BACKBONE|DICT|INTERRES
    98   49  112 1    
    99   50   51 2    
   100   50   52 1    
   101   52   53 1    
   102   52   54 1    
   103   52  113 1    
   104   53  114 1    
   105   53  115 1    
   106   53  116 1    
   107   54   55 am   BACKBONE|DICT|INTERRES
   108   54  117 1    
   109   55   56 2    
   110   55   57 1    
   111   57   58 1    
   112   57   59 1    
   113   57  118 1    
   114   58  119 1    
   115   58  120 1    
   116   58  121 1    
   117   59   60 am   BACKBONE|DICT|INTERRES
   118   59  122 1    
   119   60   61 2    
   120   60   62 1    
   121   62   63 1    
   122   62   64 1    
   123   62  123 1    
   124   63  124 1    
   125   63  125 1    
   126   63  126 1    
   127   64   65 am   BACKBONE|DICT|INTERRES
   128   64  127 1    
   129   65   66 2    
@<TRIPOS>SUBSTRUCTURE
     1 UNK         1 GROUP             0       ****    0 ROOT    
