@<TRIPOS>MOLECULE
3R134
127   129    1
SMALL
USER_CHARGES


@<TRIPOS>ATOM
      1 CA         37.7328  -43.8024  -54.8738 C.3       0 UNK        -0.1968 
      2 C          36.4516  -44.2945  -55.5307 C.2       0 UNK         0.4852 
      3 O          36.3051  -44.1769  -56.7481 O.2       0 UNK        -0.5359 
      4 N          35.5244  -44.8438  -54.7340 N.am      1 UNK        -0.4300 
      5 CA         34.2219  -45.3570  -55.1862 C.3       1 UNK         0.0863 
      6 C6         33.2114  -45.5103  -54.0190 C.3       11 UNK        -0.0953 
      7 S7         33.0925  -44.0199  -52.9736 S.3       11 UNK        -0.2369 
      8 C8         31.8036  -43.0593  -53.8284 C.3       11 UNK         0.0226 
      9 C9         30.3945  -43.5701  -53.5549 C.ar      11 UNK        -0.0699 
     10 C10        29.9250  -43.6857  -52.2423 C.ar      11 UNK        -0.0804 
     11 C11        28.6169  -44.1074  -51.9882 C.ar      11 UNK        -0.0871 
     12 C12        27.7628  -44.3800  -53.0603 C.ar      11 UNK        -0.1008 
     13 C13        28.2228  -44.2815  -54.3754 C.ar      11 UNK        -0.0735 
     14 C14        29.5427  -43.8868  -54.6172 C.ar      11 UNK        -0.0945 
     15 C15        27.3005  -44.6414  -55.5288 C.3       11 UNK         0.0169 
     16 S16        26.2299  -43.2576  -56.0342 S.3       11 UNK        -0.2669 
     17 C17        27.3810  -42.1888  -56.9683 C.3       11 UNK        -0.0850 
     18 CA         27.1853  -42.2681  -58.5129 C.3       10 UNK         0.0855 
     19 C          27.9898  -41.1667  -59.2718 C.2       10 UNK         0.5543 
     20 N          28.4788  -41.4195  -60.4799 N.am      10 UNK        -0.7343 
     21 O          28.1463  -40.0532  -58.7764 O.2       10 UNK        -0.5027 
     22 N          27.3438  -43.6317  -59.0594 N.am      10 UNK        -0.4495 
     23 C          28.4571  -44.3745  -59.0177 C.2       10 UNK         0.4903 
     24 O          29.5174  -44.0112  -58.5040 O.2       10 UNK        -0.4860 
     25 CA         28.3797  -45.7566  -59.6821 C.3       9 UNK         0.0227 
     26 CB         29.0370  -45.7233  -61.0716 C.3       9 UNK        -0.1964 
     27 N          29.0614  -46.7464  -58.8480 N.am      9 UNK        -0.4231 
     28 C          28.4843  -47.4101  -57.8391 C.2       9 UNK         0.5014 
     29 O          27.2854  -47.3295  -57.5595 O.2       9 UNK        -0.5270 
     30 CA         29.4239  -48.2671  -56.9719 C.3       8 UNK         0.0284 
     31 CB         30.0755  -47.4023  -55.8787 C.3       8 UNK        -0.1977 
     32 N          28.7398  -49.3929  -56.3326 N.am      8 UNK        -0.4342 
     33 C          28.1722  -50.4251  -56.9706 C.2       8 UNK         0.5039 
     34 O          28.2056  -50.5746  -58.1934 O.2       8 UNK        -0.5547 
     35 CA         27.4589  -51.4834  -56.1133 C.3       7 UNK         0.0281 
     36 CB         28.4355  -52.6033  -55.7184 C.3       7 UNK        -0.1963 
     37 N          26.8726  -50.9230  -54.8925 N.am      7 UNK        -0.4444 
     38 C          25.5595  -50.8190  -54.6475 C.2       7 UNK         0.5104 
     39 O          24.6860  -51.1335  -55.4570 O.2       7 UNK        -0.5100 
     40 CA         25.1286  -50.3180  -53.2539 C.3       6 UNK         0.0396 
     41 CB         24.6661  -51.4999  -52.3861 C.3       6 UNK        -0.1801 
     42 N          26.1771  -49.5887  -52.5363 N.am      6 UNK        -0.4747 
     43 C          26.5231  -48.3176  -52.7836 C.2       6 UNK         0.5012 
     44 O          25.9536  -47.6079  -53.6119 O.2       6 UNK        -0.5003 
     45 CA         27.7080  -47.7362  -51.9798 C.3       5 UNK         0.0782 
     46 C46        27.1723  -46.9280  -50.7711 C.3       11 UNK        -0.0868 
     47 S47        28.4690  -45.9555  -49.9327 S.3       11 UNK        -0.2515 
     48 C48        28.1347  -44.2745  -50.5552 C.3       11 UNK         0.0199 
     49 N          28.7225  -48.7230  -51.5727 N.am      5 UNK        -0.4607 
     50 C          29.3750  -49.5557  -52.3933 C.2       4 UNK         0.5031 
     51 O          29.0982  -49.6907  -53.5866 O.2       4 UNK        -0.5119 
     52 CA         30.4782  -50.4265  -51.7683 C.3       4 UNK         0.0263 
     53 CB         29.8572  -51.6533  -51.0801 C.3       4 UNK        -0.1967 
     54 N          31.4366  -50.8850  -52.7789 N.am      4 UNK        -0.4237 
     55 C          32.2810  -50.0839  -53.4413 C.2       3 UNK         0.4908 
     56 O          32.4474  -48.8893  -53.1759 O.2       3 UNK        -0.5102 
     57 CA         33.0548  -50.7202  -54.6052 C.3       3 UNK         0.0241 
     58 CB         32.0988  -51.1920  -55.7212 C.3       3 UNK        -0.1971 
     59 N          33.9834  -49.7212  -55.1219 N.am      3 UNK        -0.4139 
     60 C          34.9936  -49.9166  -55.9741 C.2       2 UNK         0.5016 
     61 O          35.2851  -51.0202  -56.4384 O.2       2 UNK        -0.5319 
     62 CA         35.8546  -48.6945  -56.3558 C.3       2 UNK         0.0286 
     63 CB         35.9902  -48.5484  -57.8863 C.3       2 UNK        -0.1963 
     64 N          35.4505  -47.4200  -55.7373 N.am      2 UNK        -0.4790 
     65 C          34.3478  -46.6851  -55.9661 C.2       1 UNK         0.5024 
     66 O          33.4485  -47.0172  -56.7378 O.2       1 UNK        -0.4888 
     67 H67        37.7270  -43.9631  -53.7959 H         1 UNK         0.0892 
     68 H68        38.5930  -44.3259  -55.2902 H         1 UNK         0.0892 
     69 H69        37.8617  -42.7359  -55.0562 H         1 UNK         0.0892 
     70 H70        35.6840  -44.8839  -53.7370 H         1 UNK         0.3107 
     71 H71        33.8081  -44.6260  -55.8844 H         1 UNK         0.0773 
     72 H72        32.2180  -45.7609  -54.3959 H         1 UNK         0.0680 
     73 H73        33.5033  -46.3367  -53.3683 H         1 UNK         0.0680 
     74 H74        32.0179  -43.0452  -54.8981 H         1 UNK         0.0650 
     75 H75        31.8648  -42.0240  -53.4910 H         1 UNK         0.0650 
     76 H76        30.5842  -43.4542  -51.4167 H         1 UNK         0.1397 
     77 H77        26.7449  -44.6953  -52.8758 H         1 UNK         0.1363 
     78 H78        29.9038  -43.8173  -55.6344 H         1 UNK         0.1355 
     79 H79        27.8876  -44.9812  -56.3776 H         1 UNK         0.0707 
     80 H80        26.6713  -45.4863  -55.2448 H         1 UNK         0.0707 
     81 H81        27.2052  -41.1699  -56.6188 H         1 UNK         0.1034 
     82 H82        28.4129  -42.4099  -56.7008 H         1 UNK         0.1034 
     83 H83        26.1437  -42.0109  -58.7080 H         1 UNK         0.0482 
     84 H84        28.3480  -42.3230  -60.9043 H         1 UNK         0.3460 
     85 H85        28.9871  -40.6990  -60.9681 H         1 UNK         0.3460 
     86 H86        26.5245  -44.0115  -59.5118 H         1 UNK         0.2989 
     87 H87        27.3327  -46.0428  -59.8052 H         1 UNK         0.0559 
     88 H88        28.5283  -45.0157  -61.7276 H         1 UNK         0.0848 
     89 H89        28.9923  -46.6995  -61.5549 H         1 UNK         0.0848 
     90 H90        30.0844  -45.4229  -61.0185 H         1 UNK         0.0848 
     91 H91        30.0625  -46.8152  -58.9653 H         1 UNK         0.3144 
     92 H92        30.2096  -48.6748  -57.6114 H         1 UNK         0.0727 
     93 H93        29.3367  -47.0240  -55.1711 H         1 UNK         0.0790 
     94 H94        30.5885  -46.5405  -56.3081 H         1 UNK         0.0790 
     95 H95        30.8173  -47.9675  -55.3145 H         1 UNK         0.0790 
     96 H96        28.7247  -49.3868  -55.3152 H         1 UNK         0.3215 
     97 H97        26.6814  -51.9255  -56.7402 H         1 UNK         0.0863 
     98 H98        27.9081  -53.4396  -55.2593 H         1 UNK         0.0808 
     99 H99        29.1806  -52.2507  -55.0057 H         1 UNK         0.0808 
    100 H100       28.9656  -52.9925  -56.5889 H         1 UNK         0.0808 
    101 H101       27.5269  -50.5811  -54.1950 H         1 UNK         0.3118 
    102 H102       24.2756  -49.6508  -53.3960 H         1 UNK         0.0546 
    103 H103       25.4751  -52.2081  -52.2024 H         1 UNK         0.0828 
    104 H104       23.8581  -52.0487  -52.8721 H         1 UNK         0.0828 
    105 H105       24.2888  -51.1612  -51.4211 H         1 UNK         0.0828 
    106 H106       26.6945  -50.0986  -51.8346 H         1 UNK         0.3005 
    107 H107       28.2164  -47.0485  -52.6581 H         1 UNK         0.1257 
    108 H108       26.7281  -47.6013  -50.0355 H         1 UNK         0.0775 
    109 H109       26.3687  -46.2541  -51.0737 H         1 UNK         0.0775 
    110 H110       27.0702  -44.0482  -50.4766 H         1 UNK         0.0840 
    111 H111       28.6418  -43.5556  -49.9098 H         1 UNK         0.0840 
    112 H112       29.0005  -48.6806  -50.6026 H         1 UNK         0.2987 
    113 H113       31.0159  -49.8314  -51.0271 H         1 UNK         0.0785 
    114 H114       29.1662  -51.3550  -50.2905 H         1 UNK         0.0798 
    115 H115       30.6218  -52.2773  -50.6168 H         1 UNK         0.0798 
    116 H116       29.2996  -52.2729  -51.7841 H         1 UNK         0.0798 
    117 H117       31.3508  -51.8463  -53.0735 H         1 UNK         0.3079 
    118 H118       33.6274  -51.5667  -54.2211 H         1 UNK         0.0794 
    119 H119       31.4522  -51.9952  -55.3713 H         1 UNK         0.0786 
    120 H120       32.6402  -51.5821  -56.5827 H         1 UNK         0.0786 
    121 H121       31.4603  -50.3807  -56.0711 H         1 UNK         0.0786 
    122 H122       33.8219  -48.7926  -54.7513 H         1 UNK         0.3032 
    123 H123       36.8497  -48.9099  -55.9628 H         1 UNK         0.1094 
    124 H124       36.6246  -47.7020  -58.1499 H         1 UNK         0.0794 
    125 H125       36.4415  -49.4389  -58.3258 H         1 UNK         0.0794 
    126 H126       35.0229  -48.4071  -58.3691 H         1 UNK         0.0794 
    127 H127       36.1069  -47.0477  -55.0646 H         1 UNK         0.3016 
@<TRIPOS>BOND
     1    1    2 1    
     2    1   67 1    
     3    1   68 1    
     4    1   69 1    
     5    2    3 2    
     6    2    4 am   BACKBONE|DICT|INTERRES
     7    4    5 1    
     8    4   70 1    
     9    5    6 1    
    10    5   65 1    
    11    5   71 1    
    12    6    7 1    
    13    6   72 1    
    14    6   73 1    
    15    7    8 1    
    16    8    9 1    
    17    8   74 1    
    18    8   75 1    
    19    9   10 ar   
    20    9   14 ar   
    21   10   11 ar   
    22   10   76 1    
    23   11   12 ar   
    24   11   48 1    
    25   12   13 ar   
    26   12   77 1    
    27   13   14 ar   
    28   13   15 1    
    29   14   78 1    
    30   15   16 1    
    31   15   79 1    
    32   15   80 1    
    33   16   17 1    
    34   17   18 1    
    35   17   81 1    
    36   17   82 1    
    37   18   19 1    
    38   18   22 1    
    39   18   83 1    
    40   19   20 am   BACKBONE|DICT|INTERRES
    41   19   21 2    
    42   20   84 1    
    43   20   85 1    
    44   22   23 am   BACKBONE|DICT|INTERRES
    45   22   86 1    
    46   23   24 2    
    47   23   25 1    
    48   25   26 1    
    49   25   27 1    
    50   25   87 1    
    51   26   88 1    
    52   26   89 1    
    53   26   90 1    
    54   27   28 am   BACKBONE|DICT|INTERRES
    55   27   91 1    
    56   28   29 2    
    57   28   30 1    
    58   30   31 1    
    59   30   32 1    
    60   30   92 1    
    61   31   93 1    
    62   31   94 1    
    63   31   95 1    
    64   32   33 am   BACKBONE|DICT|INTERRES
    65   32   96 1    
    66   33   34 2    
    67   33   35 1    
    68   35   36 1    
    69   35   37 1    
    70   35   97 1    
    71   36   98 1    
    72   36   99 1    
    73   36  100 1    
    74   37   38 am   BACKBONE|DICT|INTERRES
    75   37  101 1    
    76   38   39 2    
    77   38   40 1    
    78   40   41 1    
    79   40   42 1    
    80   40  102 1    
    81   41  103 1    
    82   41  104 1    
    83   41  105 1    
    84   42   43 am   BACKBONE|DICT|INTERRES
    85   42  106 1    
    86   43   44 2    
    87   43   45 1    
    88   45   46 1    
    89   45   49 1    
    90   45  107 1    
    91   46   47 1    
    92   46  108 1    
    93   46  109 1    
    94   47   48 1    
    95   48  110 1    
    96   48  111 1    
    97   49   50 am   BACKBONE|DICT|INTERRES
    98   49  112 1    
    99   50   51 2    
   100   50   52 1    
   101   52   53 1    
   102   52   54 1    
   103   52  113 1    
   104   53  114 1    
   105   53  115 1    
   106   53  116 1    
   107   54   55 am   BACKBONE|DICT|INTERRES
   108   54  117 1    
   109   55   56 2    
   110   55   57 1    
   111   57   58 1    
   112   57   59 1    
   113   57  118 1    
   114   58  119 1    
   115   58  120 1    
   116   58  121 1    
   117   59   60 am   BACKBONE|DICT|INTERRES
   118   59  122 1    
   119   60   61 2    
   120   60   62 1    
   121   62   63 1    
   122   62   64 1    
   123   62  123 1    
   124   63  124 1    
   125   63  125 1    
   126   63  126 1    
   127   64   65 am   BACKBONE|DICT|INTERRES
   128   64  127 1    
   129   65   66 2    
@<TRIPOS>SUBSTRUCTURE
     1 UNK         1 GROUP             0       ****    0 ROOT    
