@<TRIPOS>MOLECULE
3R134
127   129    1
SMALL
USER_CHARGES


@<TRIPOS>ATOM
      1 CA         36.9491  -44.9709  -52.0740 C.3       0 UNK        -0.1968 
      2 C          35.5114  -45.4440  -52.2276 C.2       0 UNK         0.4852 
      3 O          35.1436  -45.9385  -53.2918 O.2       0 UNK        -0.5359 
      4 N          34.6981  -45.2967  -51.1727 N.am      1 UNK        -0.4300 
      5 CA         33.2894  -45.7127  -51.1363 C.3       1 UNK         0.0863 
      6 C6         32.4732  -44.8393  -50.1463 C.3       11 UNK        -0.0953 
      7 S7         30.7975  -44.4477  -50.7544 S.3       11 UNK        -0.2369 
      8 C8         31.0975  -42.9719  -51.7829 C.3       11 UNK         0.0226 
      9 C9         30.8982  -43.2632  -53.2647 C.ar      11 UNK        -0.0699 
     10 C10        31.9612  -43.7298  -54.0468 C.ar      11 UNK        -0.0804 
     11 C11        31.7822  -43.9884  -55.4092 C.ar      11 UNK        -0.0871 
     12 C12        30.5346  -43.7548  -55.9879 C.ar      11 UNK        -0.1008 
     13 C13        29.4663  -43.2715  -55.2280 C.ar      11 UNK        -0.0735 
     14 C14        29.6520  -43.0384  -53.8617 C.ar      11 UNK        -0.0945 
     15 C15        28.1119  -43.0292  -55.8847 C.3       11 UNK         0.0169 
     16 S16        28.2668  -42.1086  -57.4549 S.3       11 UNK        -0.2669 
     17 C17        26.6024  -42.2728  -58.1902 C.3       11 UNK        -0.0850 
     18 CA         26.3250  -43.6091  -58.9477 C.3       10 UNK         0.0855 
     19 C          27.3797  -43.9890  -60.0235 C.2       10 UNK         0.5543 
     20 N          27.6285  -43.1102  -60.9851 N.am      10 UNK        -0.7343 
     21 O          27.9636  -45.0713  -60.0097 O.2       10 UNK        -0.5027 
     22 N          26.0592  -44.7177  -58.0259 N.am      10 UNK        -0.4495 
     23 C          24.9228  -44.8760  -57.3389 C.2       10 UNK         0.4903 
     24 O          23.9545  -44.1199  -57.4380 O.2       10 UNK        -0.4860 
     25 CA         24.8728  -46.0590  -56.3580 C.3       9 UNK         0.0227 
     26 CB         23.4584  -46.3353  -55.8051 C.3       9 UNK        -0.1964 
     27 N          25.4681  -47.2807  -56.9019 N.am      9 UNK        -0.4231 
     28 C          25.0696  -47.9988  -57.9623 C.2       9 UNK         0.5014 
     29 O          24.1201  -47.6984  -58.6872 O.2       9 UNK        -0.5270 
     30 CA         25.8647  -49.2843  -58.2649 C.3       8 UNK         0.0284 
     31 CB         26.8317  -49.0465  -59.4364 C.3       8 UNK        -0.1977 
     32 N          26.6232  -49.7811  -57.1120 N.am      8 UNK        -0.4342 
     33 C          26.0894  -50.2948  -55.9939 C.2       8 UNK         0.5039 
     34 O          24.8896  -50.5318  -55.8516 O.2       8 UNK        -0.5547 
     35 CA         27.0532  -50.5295  -54.8173 C.3       7 UNK         0.0281 
     36 CB         27.7770  -51.8781  -54.9581 C.3       7 UNK        -0.1963 
     37 N          28.0297  -49.4419  -54.6811 N.am      7 UNK        -0.4444 
     38 C          27.7234  -48.1951  -54.2893 C.2       7 UNK         0.5104 
     39 O          26.5980  -47.8486  -53.9339 O.2       7 UNK        -0.5100 
     40 CA         28.8438  -47.1457  -54.3369 C.3       6 UNK         0.0396 
     41 CB         29.5965  -47.1032  -53.0048 C.3       6 UNK        -0.1801 
     42 N          29.7922  -47.4040  -55.4178 N.am      6 UNK        -0.4747 
     43 C          29.5679  -47.1046  -56.7051 C.2       6 UNK         0.5012 
     44 O          28.5383  -46.5589  -57.1072 O.2       6 UNK        -0.5003 
     45 CA         30.6481  -47.5497  -57.7173 C.3       5 UNK         0.0782 
     46 C46        31.7432  -46.4747  -57.9362 C.3       11 UNK        -0.0868 
     47 S47        32.8980  -46.2835  -56.5261 S.3       11 UNK        -0.2515 
     48 C48        32.9411  -44.4812  -56.2651 C.3       11 UNK         0.0199 
     49 N          31.2403  -48.8489  -57.3798 N.am      5 UNK        -0.4607 
     50 C          30.5718  -50.0040  -57.2896 C.2       4 UNK         0.5031 
     51 O          29.3745  -50.1134  -57.5455 O.2       4 UNK        -0.5119 
     52 CA         31.3453  -51.2404  -56.7986 C.3       4 UNK         0.0263 
     53 CB         31.7549  -52.1175  -57.9919 C.3       4 UNK        -0.1967 
     54 N          32.5291  -50.9488  -55.9814 N.am      4 UNK        -0.4237 
     55 C          32.5316  -50.2954  -54.8109 C.2       3 UNK         0.4908 
     56 O          31.5306  -49.7811  -54.3036 O.2       3 UNK        -0.5102 
     57 CA         33.8934  -50.1863  -54.1154 C.3       3 UNK         0.0241 
     58 CB         34.8040  -49.1717  -54.8328 C.3       3 UNK        -0.1971 
     59 N          33.7118  -49.7839  -52.7235 N.am      3 UNK        -0.4139 
     60 C          34.5849  -50.0021  -51.7332 C.2       2 UNK         0.5016 
     61 O          35.6410  -50.6212  -51.8809 O.2       2 UNK        -0.5319 
     62 CA         34.2417  -49.3821  -50.3640 C.3       2 UNK         0.0286 
     63 CB         35.2534  -49.7615  -49.2658 C.3       2 UNK        -0.1963 
     64 N          34.1893  -47.9222  -50.4735 N.am      2 UNK        -0.4790 
     65 C          33.1181  -47.2273  -50.8810 C.2       1 UNK         0.5024 
     66 O          32.0290  -47.7588  -51.0896 O.2       1 UNK        -0.4888 
     67 H67        37.1717  -44.2044  -52.8157 H         1 UNK         0.0892 
     68 H68        37.1391  -44.5519  -51.0860 H         1 UNK         0.0892 
     69 H69        37.6355  -45.8031  -52.2278 H         1 UNK         0.0892 
     70 H70        35.0566  -44.8815  -50.3238 H         1 UNK         0.3107 
     71 H71        32.8849  -45.5580  -52.1365 H         1 UNK         0.0773 
     72 H72        32.9800  -43.8934  -49.9488 H         1 UNK         0.0680 
     73 H73        32.3856  -45.3198  -49.1698 H         1 UNK         0.0680 
     74 H74        32.1011  -42.5793  -51.6148 H         1 UNK         0.0650 
     75 H75        30.4127  -42.1843  -51.4649 H         1 UNK         0.0650 
     76 H76        32.9330  -43.8840  -53.5997 H         1 UNK         0.1397 
     77 H77        30.3875  -43.9366  -57.0415 H         1 UNK         0.1363 
     78 H78        28.8289  -42.6755  -53.2614 H         1 UNK         0.1355 
     79 H79        27.6553  -44.0012  -56.0631 H         1 UNK         0.0707 
     80 H80        27.4444  -42.4826  -55.2170 H         1 UNK         0.0707 
     81 H81        25.8542  -42.1055  -57.4143 H         1 UNK         0.1034 
     82 H82        26.4758  -41.4385  -58.8814 H         1 UNK         0.1034 
     83 H83        25.4054  -43.4691  -59.5196 H         1 UNK         0.0482 
     84 H84        28.3070  -43.3422  -61.6933 H         1 UNK         0.3460 
     85 H85        27.1581  -42.2196  -61.0161 H         1 UNK         0.3460 
     86 H86        26.8160  -45.3881  -57.9287 H         1 UNK         0.2989 
     87 H87        25.5014  -45.7717  -55.5140 H         1 UNK         0.0559 
     88 H88        22.7532  -46.5825  -56.5992 H         1 UNK         0.0848 
     89 H89        23.0656  -45.4632  -55.2812 H         1 UNK         0.0848 
     90 H90        23.4675  -47.1618  -55.0942 H         1 UNK         0.0848 
     91 H91        26.2838  -47.6142  -56.4077 H         1 UNK         0.3144 
     92 H92        25.1489  -50.0553  -58.5567 H         1 UNK         0.0727 
     93 H93        27.5682  -48.2771  -59.2001 H         1 UNK         0.0790 
     94 H94        26.2940  -48.7191  -60.3272 H         1 UNK         0.0790 
     95 H95        27.3709  -49.9571  -59.6985 H         1 UNK         0.0790 
     96 H96        27.6391  -49.7263  -57.1808 H         1 UNK         0.3215 
     97 H97        26.4594  -50.5596  -53.9009 H         1 UNK         0.0863 
     98 H98        28.4909  -52.0361  -54.1495 H         1 UNK         0.0808 
     99 H99        28.3121  -51.9571  -55.9037 H         1 UNK         0.0808 
    100 H100       27.0629  -52.7019  -54.9256 H         1 UNK         0.0808 
    101 H101       28.9849  -49.6366  -54.9479 H         1 UNK         0.3118 
    102 H102       28.3892  -46.1657  -54.4983 H         1 UNK         0.0546 
    103 H103       30.4147  -46.3839  -53.0379 H         1 UNK         0.0828 
    104 H104       30.0153  -48.0770  -52.7501 H         1 UNK         0.0828 
    105 H105       28.9357  -46.8075  -52.1893 H         1 UNK         0.0828 
    106 H106       30.6489  -47.8846  -55.1700 H         1 UNK         0.3005 
    107 H107       30.1257  -47.6800  -58.6682 H         1 UNK         0.1257 
    108 H108       32.3442  -46.7545  -58.8028 H         1 UNK         0.0775 
    109 H109       31.2955  -45.5197  -58.2073 H         1 UNK         0.0775 
    110 H110       33.8877  -44.2307  -55.7834 H         1 UNK         0.0840 
    111 H111       32.9490  -43.9654  -57.2265 H         1 UNK         0.0840 
    112 H112       32.2196  -48.8356  -57.1357 H         1 UNK         0.2987 
    113 H113       30.6622  -51.8176  -56.1735 H         1 UNK         0.0785 
    114 H114       32.4698  -51.6093  -58.6404 H         1 UNK         0.0798 
    115 H115       30.8882  -52.3760  -58.6023 H         1 UNK         0.0798 
    116 H116       32.2050  -53.0541  -57.6620 H         1 UNK         0.0798 
    117 H117       33.4044  -51.3208  -56.3224 H         1 UNK         0.3079 
    118 H118       34.3585  -51.1742  -54.1407 H         1 UNK         0.0794 
    119 H119       34.3959  -48.1624  -54.7746 H         1 UNK         0.0786 
    120 H120       34.9298  -49.4157  -55.8880 H         1 UNK         0.0786 
    121 H121       35.7991  -49.1479  -54.3885 H         1 UNK         0.0786 
    122 H122       32.8457  -49.2909  -52.5290 H         1 UNK         0.3032 
    123 H123       33.2646  -49.7688  -50.0643 H         1 UNK         0.1094 
    124 H124       34.9654  -49.3437  -48.3009 H         1 UNK         0.0794 
    125 H125       35.3094  -50.8442  -49.1445 H         1 UNK         0.0794 
    126 H126       36.2582  -49.4065  -49.4985 H         1 UNK         0.0794 
    127 H127       35.0626  -47.4284  -50.3607 H         1 UNK         0.3016 
@<TRIPOS>BOND
     1    1    2 1    
     2    1   67 1    
     3    1   68 1    
     4    1   69 1    
     5    2    3 2    
     6    2    4 am   BACKBONE|DICT|INTERRES
     7    4    5 1    
     8    4   70 1    
     9    5    6 1    
    10    5   65 1    
    11    5   71 1    
    12    6    7 1    
    13    6   72 1    
    14    6   73 1    
    15    7    8 1    
    16    8    9 1    
    17    8   74 1    
    18    8   75 1    
    19    9   10 ar   
    20    9   14 ar   
    21   10   11 ar   
    22   10   76 1    
    23   11   12 ar   
    24   11   48 1    
    25   12   13 ar   
    26   12   77 1    
    27   13   14 ar   
    28   13   15 1    
    29   14   78 1    
    30   15   16 1    
    31   15   79 1    
    32   15   80 1    
    33   16   17 1    
    34   17   18 1    
    35   17   81 1    
    36   17   82 1    
    37   18   19 1    
    38   18   22 1    
    39   18   83 1    
    40   19   20 am   BACKBONE|DICT|INTERRES
    41   19   21 2    
    42   20   84 1    
    43   20   85 1    
    44   22   23 am   BACKBONE|DICT|INTERRES
    45   22   86 1    
    46   23   24 2    
    47   23   25 1    
    48   25   26 1    
    49   25   27 1    
    50   25   87 1    
    51   26   88 1    
    52   26   89 1    
    53   26   90 1    
    54   27   28 am   BACKBONE|DICT|INTERRES
    55   27   91 1    
    56   28   29 2    
    57   28   30 1    
    58   30   31 1    
    59   30   32 1    
    60   30   92 1    
    61   31   93 1    
    62   31   94 1    
    63   31   95 1    
    64   32   33 am   BACKBONE|DICT|INTERRES
    65   32   96 1    
    66   33   34 2    
    67   33   35 1    
    68   35   36 1    
    69   35   37 1    
    70   35   97 1    
    71   36   98 1    
    72   36   99 1    
    73   36  100 1    
    74   37   38 am   BACKBONE|DICT|INTERRES
    75   37  101 1    
    76   38   39 2    
    77   38   40 1    
    78   40   41 1    
    79   40   42 1    
    80   40  102 1    
    81   41  103 1    
    82   41  104 1    
    83   41  105 1    
    84   42   43 am   BACKBONE|DICT|INTERRES
    85   42  106 1    
    86   43   44 2    
    87   43   45 1    
    88   45   46 1    
    89   45   49 1    
    90   45  107 1    
    91   46   47 1    
    92   46  108 1    
    93   46  109 1    
    94   47   48 1    
    95   48  110 1    
    96   48  111 1    
    97   49   50 am   BACKBONE|DICT|INTERRES
    98   49  112 1    
    99   50   51 2    
   100   50   52 1    
   101   52   53 1    
   102   52   54 1    
   103   52  113 1    
   104   53  114 1    
   105   53  115 1    
   106   53  116 1    
   107   54   55 am   BACKBONE|DICT|INTERRES
   108   54  117 1    
   109   55   56 2    
   110   55   57 1    
   111   57   58 1    
   112   57   59 1    
   113   57  118 1    
   114   58  119 1    
   115   58  120 1    
   116   58  121 1    
   117   59   60 am   BACKBONE|DICT|INTERRES
   118   59  122 1    
   119   60   61 2    
   120   60   62 1    
   121   62   63 1    
   122   62   64 1    
   123   62  123 1    
   124   63  124 1    
   125   63  125 1    
   126   63  126 1    
   127   64   65 am   BACKBONE|DICT|INTERRES
   128   64  127 1    
   129   65   66 2    
@<TRIPOS>SUBSTRUCTURE
     1 UNK         1 GROUP             0       ****    0 ROOT    
