@<TRIPOS>MOLECULE
3R134
127   129    1
SMALL
USER_CHARGES


@<TRIPOS>ATOM
      1 CA         32.9394  -41.2927  -53.2044 C.3       0 UNK        -0.1968 
      2 C          33.9090  -42.3488  -53.7128 C.2       0 UNK         0.4852 
      3 O          34.9346  -42.0019  -54.3010 O.2       0 UNK        -0.5359 
      4 N          33.6015  -43.6281  -53.4787 N.am      1 UNK        -0.4300 
      5 CA         34.4404  -44.7767  -53.8110 C.3       1 UNK         0.0863 
      6 C6         34.3475  -45.1847  -55.3120 C.3       11 UNK        -0.0953 
      7 S7         32.9576  -46.2676  -55.7923 S.3       11 UNK        -0.2369 
      8 C8         31.7434  -45.0973  -56.4900 C.3       11 UNK         0.0226 
      9 C9         30.9725  -44.3121  -55.4335 C.ar      11 UNK        -0.0699 
     10 C10        30.5606  -44.9237  -54.2466 C.ar      11 UNK        -0.0804 
     11 C11        29.8393  -44.2170  -53.2830 C.ar      11 UNK        -0.0871 
     12 C12        29.5112  -42.8794  -53.5250 C.ar      11 UNK        -0.1008 
     13 C13        29.9275  -42.2458  -54.7006 C.ar      11 UNK        -0.0735 
     14 C14        30.6582  -42.9681  -55.6504 C.ar      11 UNK        -0.0945 
     15 C15        29.6374  -40.7656  -54.9107 C.3       11 UNK         0.0169 
     16 S16        28.0127  -40.4739  -55.6767 S.3       11 UNK        -0.2669 
     17 C17        28.3274  -40.9651  -57.4081 C.3       11 UNK        -0.0850 
     18 CA         27.4542  -42.1584  -57.8758 C.3       10 UNK         0.0855 
     19 C          27.7473  -42.5121  -59.3656 C.2       10 UNK         0.5543 
     20 N          28.1627  -43.7281  -59.7038 N.am      10 UNK        -0.7343 
     21 O          27.5897  -41.6599  -60.2364 O.2       10 UNK        -0.5027 
     22 N          27.5244  -43.3044  -56.9540 N.am      10 UNK        -0.4495 
     23 C          26.5876  -44.2537  -56.8806 C.2       10 UNK         0.4903 
     24 O          25.5217  -44.2226  -57.5008 O.2       10 UNK        -0.4860 
     25 CA         26.8963  -45.4625  -55.9826 C.3       9 UNK         0.0227 
     26 CB         25.9602  -45.4598  -54.7634 C.3       9 UNK        -0.1964 
     27 N          26.7300  -46.7110  -56.7352 N.am      9 UNK        -0.4231 
     28 C          27.4246  -47.0219  -57.8388 C.2       9 UNK         0.5014 
     29 O          28.4106  -46.3885  -58.2248 O.2       9 UNK        -0.5270 
     30 CA         26.9098  -48.2135  -58.6569 C.3       8 UNK         0.0284 
     31 CB         27.3892  -48.1656  -60.1236 C.3       8 UNK        -0.1977 
     32 N          27.3272  -49.4656  -58.0340 N.am      8 UNK        -0.4342 
     33 C          26.7348  -50.6504  -58.2312 C.2       8 UNK         0.5039 
     34 O          25.7156  -50.8036  -58.9064 O.2       8 UNK        -0.5547 
     35 CA         27.3859  -51.8754  -57.5743 C.3       7 UNK         0.0281 
     36 CB         28.6960  -52.2529  -58.2880 C.3       7 UNK        -0.1963 
     37 N          27.6464  -51.6405  -56.1557 N.am      7 UNK        -0.4444 
     38 C          26.7951  -51.9400  -55.1652 C.2       7 UNK         0.5104 
     39 O          25.7038  -52.4831  -55.3401 O.2       7 UNK        -0.5100 
     40 CA         27.2318  -51.5904  -53.7295 C.3       6 UNK         0.0396 
     41 CB         27.7657  -52.8406  -53.0130 C.3       6 UNK        -0.1801 
     42 N          28.2441  -50.5324  -53.6734 N.am      6 UNK        -0.4747 
     43 C          27.9911  -49.2375  -53.9250 C.2       6 UNK         0.5012 
     44 O          26.8684  -48.8115  -54.1931 O.2       6 UNK        -0.5003 
     45 CA         29.1992  -48.2710  -53.9260 C.3       5 UNK         0.0782 
     46 C46        29.4234  -47.6730  -52.5108 C.3       11 UNK        -0.0868 
     47 S47        28.3127  -46.2696  -52.1454 S.3       11 UNK        -0.2515 
     48 C48        29.4722  -44.8751  -51.9576 C.3       11 UNK         0.0199 
     49 N          30.4215  -48.9009  -54.4502 N.am      5 UNK        -0.4607 
     50 C          30.5282  -49.4735  -55.6612 C.2       4 UNK         0.5031 
     51 O          29.6481  -49.3938  -56.5164 O.2       4 UNK        -0.5119 
     52 CA         31.7495  -50.3678  -55.9612 C.3       4 UNK         0.0263 
     53 CB         32.6424  -49.7712  -57.0599 C.3       4 UNK        -0.1967 
     54 N          32.5627  -50.7062  -54.7918 N.am      4 UNK        -0.4237 
     55 C          32.1408  -51.4268  -53.7430 C.2       3 UNK         0.4908 
     56 O          31.0262  -51.9471  -53.6789 O.2       3 UNK        -0.5102 
     57 CA         33.0927  -51.5390  -52.5378 C.3       3 UNK         0.0241 
     58 CB         33.8628  -52.8683  -52.5899 C.3       3 UNK        -0.1971 
     59 N          34.0485  -50.4315  -52.3811 N.am      3 UNK        -0.4139 
     60 C          33.7459  -49.1260  -52.2964 C.2       2 UNK         0.5016 
     61 O          32.6021  -48.6944  -52.4422 O.2       2 UNK        -0.5319 
     62 CA         34.9006  -48.1478  -51.9878 C.3       2 UNK         0.0286 
     63 CB         36.2983  -48.8035  -51.9903 C.3       2 UNK        -0.1963 
     64 N          34.9210  -47.0049  -52.9056 N.am      2 UNK        -0.4790 
     65 C          34.1742  -45.8986  -52.7849 C.2       1 UNK         0.5024 
     66 O          33.3440  -45.7229  -51.8874 O.2       1 UNK        -0.4888 
     67 H67        32.5481  -40.7125  -54.0389 H         1 UNK         0.0892 
     68 H68        32.0986  -41.7356  -52.6712 H         1 UNK         0.0892 
     69 H69        33.4491  -40.6109  -52.5244 H         1 UNK         0.0892 
     70 H70        32.7695  -43.8741  -52.9568 H         1 UNK         0.3107 
     71 H71        35.4730  -44.4727  -53.6249 H         1 UNK         0.0773 
     72 H72        35.2580  -45.7200  -55.5847 H         1 UNK         0.0680 
     73 H73        34.3472  -44.2978  -55.9472 H         1 UNK         0.0680 
     74 H74        32.2518  -44.4258  -57.1833 H         1 UNK         0.0650 
     75 H75        31.0226  -45.6648  -57.0805 H         1 UNK         0.0650 
     76 H76        30.8275  -45.9523  -54.0670 H         1 UNK         0.1397 
     77 H77        28.9598  -42.3165  -52.7840 H         1 UNK         0.1363 
     78 H78        30.9970  -42.4821  -56.5545 H         1 UNK         0.1355 
     79 H79        29.6640  -40.2506  -53.9491 H         1 UNK         0.0707 
     80 H80        30.4178  -40.3033  -55.5171 H         1 UNK         0.0707 
     81 H81        29.3851  -41.1850  -57.5519 H         1 UNK         0.1034 
     82 H82        28.1271  -40.0921  -58.0324 H         1 UNK         0.1034 
     83 H83        26.4212  -41.8049  -57.8627 H         1 UNK         0.0482 
     84 H84        28.3445  -43.9291  -60.6738 H         1 UNK         0.3460 
     85 H85        28.2795  -44.4590  -59.0114 H         1 UNK         0.3460 
     86 H86        28.3670  -43.3867  -56.4022 H         1 UNK         0.2989 
     87 H87        27.9296  -45.4081  -55.6342 H         1 UNK         0.0559 
     88 H88        24.9097  -45.4655  -55.0568 H         1 UNK         0.0848 
     89 H89        26.1248  -44.5708  -54.1529 H         1 UNK         0.0848 
     90 H90        26.1287  -46.3235  -54.1233 H         1 UNK         0.0848 
     91 H91        25.9502  -47.2962  -56.4713 H         1 UNK         0.3144 
     92 H92        25.8189  -48.1591  -58.6546 H         1 UNK         0.0727 
     93 H93        28.4713  -48.2827  -60.1961 H         1 UNK         0.0790 
     94 H94        27.1309  -47.2127  -60.5876 H         1 UNK         0.0790 
     95 H95        26.9270  -48.9507  -60.7219 H         1 UNK         0.0790 
     96 H96        28.1712  -49.4143  -57.4592 H         1 UNK         0.3215 
     97 H97        26.6986  -52.7177  -57.6829 H         1 UNK         0.0863 
     98 H98        29.4371  -51.4547  -58.2412 H         1 UNK         0.0808 
     99 H99        28.5146  -52.4638  -59.3428 H         1 UNK         0.0808 
    100 H100       29.1403  -53.1475  -57.8515 H         1 UNK         0.0808 
    101 H101       28.4906  -51.1341  -55.9255 H         1 UNK         0.3118 
    102 H102       26.3467  -51.2452  -53.1909 H         1 UNK         0.0546 
    103 H103       28.0426  -52.6214  -51.9818 H         1 UNK         0.0828 
    104 H104       28.6419  -53.2515  -53.5160 H         1 UNK         0.0828 
    105 H105       27.0095  -53.6263  -52.9849 H         1 UNK         0.0828 
    106 H106       29.1999  -50.8265  -53.4998 H         1 UNK         0.3005 
    107 H107       28.9541  -47.4626  -54.6184 H         1 UNK         0.1257 
    108 H108       30.4505  -47.3290  -52.3980 H         1 UNK         0.0775 
    109 H109       29.3016  -48.4309  -51.7342 H         1 UNK         0.0775 
    110 H110       29.0094  -44.1442  -51.2929 H         1 UNK         0.0840 
    111 H111       30.3792  -45.2054  -51.4488 H         1 UNK         0.0840 
    112 H112       31.2007  -48.9733  -53.8006 H         1 UNK         0.2987 
    113 H113       31.3418  -51.3040  -56.3485 H         1 UNK         0.0785 
    114 H114       33.3387  -50.5159  -57.4455 H         1 UNK         0.0798 
    115 H115       32.0500  -49.4172  -57.9052 H         1 UNK         0.0798 
    116 H116       33.2293  -48.9306  -56.6952 H         1 UNK         0.0798 
    117 H117       33.4850  -50.2986  -54.7462 H         1 UNK         0.3079 
    118 H118       32.4656  -51.5446  -51.6439 H         1 UNK         0.0794 
    119 H119       34.4475  -53.0258  -51.6833 H         1 UNK         0.0786 
    120 H120       34.5435  -52.9074  -53.4414 H         1 UNK         0.0786 
    121 H121       33.1786  -53.7136  -52.6807 H         1 UNK         0.0786 
    122 H122       35.0156  -50.6950  -52.2584 H         1 UNK         0.3032 
    123 H123       34.7157  -47.7762  -50.9770 H         1 UNK         0.1094 
    124 H124       36.3715  -49.5959  -51.2439 H         1 UNK         0.0794 
    125 H125       36.5508  -49.2291  -52.9626 H         1 UNK         0.0794 
    126 H126       37.0703  -48.0745  -51.7421 H         1 UNK         0.0794 
    127 H127       35.5492  -47.0755  -53.6930 H         1 UNK         0.3016 
@<TRIPOS>BOND
     1    1    2 1    
     2    1   67 1    
     3    1   68 1    
     4    1   69 1    
     5    2    3 2    
     6    2    4 am   BACKBONE|DICT|INTERRES
     7    4    5 1    
     8    4   70 1    
     9    5    6 1    
    10    5   65 1    
    11    5   71 1    
    12    6    7 1    
    13    6   72 1    
    14    6   73 1    
    15    7    8 1    
    16    8    9 1    
    17    8   74 1    
    18    8   75 1    
    19    9   10 ar   
    20    9   14 ar   
    21   10   11 ar   
    22   10   76 1    
    23   11   12 ar   
    24   11   48 1    
    25   12   13 ar   
    26   12   77 1    
    27   13   14 ar   
    28   13   15 1    
    29   14   78 1    
    30   15   16 1    
    31   15   79 1    
    32   15   80 1    
    33   16   17 1    
    34   17   18 1    
    35   17   81 1    
    36   17   82 1    
    37   18   19 1    
    38   18   22 1    
    39   18   83 1    
    40   19   20 am   BACKBONE|DICT|INTERRES
    41   19   21 2    
    42   20   84 1    
    43   20   85 1    
    44   22   23 am   BACKBONE|DICT|INTERRES
    45   22   86 1    
    46   23   24 2    
    47   23   25 1    
    48   25   26 1    
    49   25   27 1    
    50   25   87 1    
    51   26   88 1    
    52   26   89 1    
    53   26   90 1    
    54   27   28 am   BACKBONE|DICT|INTERRES
    55   27   91 1    
    56   28   29 2    
    57   28   30 1    
    58   30   31 1    
    59   30   32 1    
    60   30   92 1    
    61   31   93 1    
    62   31   94 1    
    63   31   95 1    
    64   32   33 am   BACKBONE|DICT|INTERRES
    65   32   96 1    
    66   33   34 2    
    67   33   35 1    
    68   35   36 1    
    69   35   37 1    
    70   35   97 1    
    71   36   98 1    
    72   36   99 1    
    73   36  100 1    
    74   37   38 am   BACKBONE|DICT|INTERRES
    75   37  101 1    
    76   38   39 2    
    77   38   40 1    
    78   40   41 1    
    79   40   42 1    
    80   40  102 1    
    81   41  103 1    
    82   41  104 1    
    83   41  105 1    
    84   42   43 am   BACKBONE|DICT|INTERRES
    85   42  106 1    
    86   43   44 2    
    87   43   45 1    
    88   45   46 1    
    89   45   49 1    
    90   45  107 1    
    91   46   47 1    
    92   46  108 1    
    93   46  109 1    
    94   47   48 1    
    95   48  110 1    
    96   48  111 1    
    97   49   50 am   BACKBONE|DICT|INTERRES
    98   49  112 1    
    99   50   51 2    
   100   50   52 1    
   101   52   53 1    
   102   52   54 1    
   103   52  113 1    
   104   53  114 1    
   105   53  115 1    
   106   53  116 1    
   107   54   55 am   BACKBONE|DICT|INTERRES
   108   54  117 1    
   109   55   56 2    
   110   55   57 1    
   111   57   58 1    
   112   57   59 1    
   113   57  118 1    
   114   58  119 1    
   115   58  120 1    
   116   58  121 1    
   117   59   60 am   BACKBONE|DICT|INTERRES
   118   59  122 1    
   119   60   61 2    
   120   60   62 1    
   121   62   63 1    
   122   62   64 1    
   123   62  123 1    
   124   63  124 1    
   125   63  125 1    
   126   63  126 1    
   127   64   65 am   BACKBONE|DICT|INTERRES
   128   64  127 1    
   129   65   66 2    
@<TRIPOS>SUBSTRUCTURE
     1 UNK         1 GROUP             0       ****    0 ROOT    
