@<TRIPOS>MOLECULE
3R134
127   129    1
SMALL
USER_CHARGES


@<TRIPOS>ATOM
      1 CA         33.4285  -48.2731  -58.6158 C.3       0 UNK        -0.1968 
      2 C          33.3641  -47.8651  -57.1523 C.2       0 UNK         0.4852 
      3 O          32.7007  -48.5371  -56.3640 O.2       0 UNK        -0.5359 
      4 N          34.0566  -46.7782  -56.7823 N.am      1 UNK        -0.4300 
      5 CA         34.0872  -46.1686  -55.4419 C.3       1 UNK         0.0863 
      6 C6         35.0629  -44.9644  -55.3848 C.3       11 UNK        -0.0953 
      7 S7         34.7446  -43.7252  -56.6868 S.3       11 UNK        -0.2369 
      8 C8         34.0162  -42.3557  -55.7346 C.3       11 UNK         0.0226 
      9 C9         32.7140  -42.7549  -55.0558 C.ar      11 UNK        -0.0699 
     10 C10        32.6229  -42.7739  -53.6605 C.ar      11 UNK        -0.0804 
     11 C11        31.4240  -43.1217  -53.0312 C.ar      11 UNK        -0.0871 
     12 C12        30.3147  -43.4626  -53.8122 C.ar      11 UNK        -0.1008 
     13 C13        30.4007  -43.4694  -55.2070 C.ar      11 UNK        -0.0735 
     14 C14        31.5984  -43.1007  -55.8240 C.ar      11 UNK        -0.0945 
     15 C15        29.2121  -43.9143  -56.0427 C.3       11 UNK         0.0169 
     16 S16        27.9076  -42.6517  -56.1132 S.3       11 UNK        -0.2669 
     17 C17        26.6416  -43.5481  -57.0795 C.3       11 UNK        -0.0850 
     18 CA         25.8002  -44.5316  -56.2131 C.3       10 UNK         0.0855 
     19 C          24.6388  -43.8568  -55.4162 C.2       10 UNK         0.5543 
     20 N          23.5983  -44.5916  -55.0403 N.am      10 UNK        -0.7343 
     21 O          24.6766  -42.6658  -55.1177 O.2       10 UNK        -0.5027 
     22 N          25.4085  -45.7358  -56.9654 N.am      10 UNK        -0.4495 
     23 C          24.5318  -45.7919  -57.9760 C.2       10 UNK         0.4903 
     24 O          23.9823  -44.8046  -58.4679 O.2       10 UNK        -0.4860 
     25 CA         24.2167  -47.2050  -58.5042 C.3       9 UNK         0.0227 
     26 CB         23.0266  -47.2324  -59.4880 C.3       9 UNK        -0.1964 
     27 N          25.3943  -47.8676  -59.0783 N.am      9 UNK        -0.4231 
     28 C          26.1042  -47.4894  -60.1517 C.2       9 UNK         0.5014 
     29 O          25.8577  -46.4919  -60.8318 O.2       9 UNK        -0.5270 
     30 CA         27.3196  -48.3694  -60.4954 C.3       8 UNK         0.0284 
     31 CB         27.9807  -47.9824  -61.8323 C.3       8 UNK        -0.1977 
     32 N          28.3073  -48.2519  -59.4259 N.am      8 UNK        -0.4342 
     33 C          28.3950  -49.0568  -58.3605 C.2       8 UNK         0.5039 
     34 O          27.7411  -50.0953  -58.2389 O.2       8 UNK        -0.5547 
     35 CA         29.3513  -48.6138  -57.2318 C.3       7 UNK         0.0281 
     36 CB         29.7620  -47.1271  -57.3275 C.3       7 UNK        -0.1963 
     37 N          28.8234  -48.8769  -55.8870 N.am      7 UNK        -0.4444 
     38 C          27.6238  -48.5256  -55.3949 C.2       7 UNK         0.5104 
     39 O          26.7271  -47.9849  -56.0427 O.2       7 UNK        -0.5100 
     40 CA         27.4167  -48.7671  -53.8941 C.3       6 UNK         0.0396 
     41 CB         27.1198  -50.2468  -53.6040 C.3       6 UNK        -0.1801 
     42 N          28.5890  -48.3254  -53.1357 N.am      6 UNK        -0.4747 
     43 C          28.8680  -47.0395  -52.8652 C.2       6 UNK         0.5012 
     44 O          28.1085  -46.1201  -53.1746 O.2       6 UNK        -0.5003 
     45 CA         30.2165  -46.6989  -52.1786 C.3       5 UNK         0.0782 
     46 C46        30.0666  -45.5930  -51.0939 C.3       11 UNK        -0.0868 
     47 S47        31.6463  -44.7401  -50.7750 S.3       11 UNK        -0.2515 
     48 C48        31.3279  -43.1023  -51.5108 C.3       11 UNK         0.0199 
     49 N          30.9555  -47.8796  -51.7037 N.am      5 UNK        -0.4607 
     50 C          30.5740  -48.7306  -50.7383 C.2       4 UNK         0.5031 
     51 O          29.5670  -48.5692  -50.0475 O.2       4 UNK        -0.5119 
     52 CA         31.4330  -49.9976  -50.5361 C.3       4 UNK         0.0263 
     53 CB         30.6177  -51.1608  -49.9323 C.3       4 UNK        -0.1967 
     54 N          32.1357  -50.4632  -51.7404 N.am      4 UNK        -0.4237 
     55 C          31.6219  -50.7458  -52.9473 C.2       3 UNK         0.4908 
     56 O          30.4420  -50.5650  -53.2525 O.2       3 UNK        -0.5102 
     57 CA         32.6149  -51.2851  -53.9938 C.3       3 UNK         0.0241 
     58 CB         31.9413  -51.6119  -55.3400 C.3       3 UNK        -0.1971 
     59 N          33.7193  -50.3454  -54.2125 N.am      3 UNK        -0.4139 
     60 C          34.7824  -50.2193  -53.4021 C.2       2 UNK         0.5016 
     61 O          34.9380  -50.9046  -52.3896 O.2       2 UNK        -0.5319 
     62 CA         35.8383  -49.1501  -53.7344 C.3       2 UNK         0.0286 
     63 CB         37.0840  -49.8037  -54.3543 C.3       2 UNK        -0.1963 
     64 N          35.3662  -48.0894  -54.6247 N.am      2 UNK        -0.4790 
     65 C          34.4386  -47.1694  -54.3203 C.2       1 UNK         0.5024 
     66 O          33.8580  -47.1103  -53.2355 O.2       1 UNK        -0.4888 
     67 H67        34.0226  -47.5775  -59.2082 H         1 UNK         0.0892 
     68 H68        33.8718  -49.2642  -58.7076 H         1 UNK         0.0892 
     69 H69        32.4253  -48.3090  -59.0392 H         1 UNK         0.0892 
     70 H70        34.5732  -46.2663  -57.4838 H         1 UNK         0.3107 
     71 H71        33.0781  -45.8037  -55.2384 H         1 UNK         0.0773 
     72 H72        35.0177  -44.4805  -54.4072 H         1 UNK         0.0680 
     73 H73        36.0943  -45.3020  -55.5041 H         1 UNK         0.0680 
     74 H74        33.8243  -41.5207  -56.4096 H         1 UNK         0.0650 
     75 H75        34.7466  -42.0002  -55.0061 H         1 UNK         0.0650 
     76 H76        33.4840  -42.5092  -53.0619 H         1 UNK         0.1397 
     77 H77        29.3789  -43.7291  -53.3418 H         1 UNK         0.1363 
     78 H78        31.6722  -43.0983  -56.9030 H         1 UNK         0.1355 
     79 H79        29.5302  -44.1534  -57.0584 H         1 UNK         0.0707 
     80 H80        28.8060  -44.8316  -55.6149 H         1 UNK         0.0707 
     81 H81        25.9957  -42.8275  -57.5844 H         1 UNK         0.1034 
     82 H82        27.1527  -44.0860  -57.8797 H         1 UNK         0.1034 
     83 H83        26.4542  -44.9263  -55.4351 H         1 UNK         0.0482 
     84 H84        22.8494  -44.1596  -54.5224 H         1 UNK         0.3460 
     85 H85        23.5571  -45.5720  -55.2674 H         1 UNK         0.3460 
     86 H86        25.8259  -46.6065  -56.6339 H         1 UNK         0.2989 
     87 H87        23.9294  -47.8002  -57.6359 H         1 UNK         0.0559 
     88 H88        22.1290  -46.8240  -59.0221 H         1 UNK         0.0848 
     89 H89        22.7938  -48.2499  -59.8017 H         1 UNK         0.0848 
     90 H90        23.2212  -46.6417  -60.3837 H         1 UNK         0.0848 
     91 H91        25.7382  -48.6664  -58.5587 H         1 UNK         0.3144 
     92 H92        26.9717  -49.4012  -60.5814 H         1 UNK         0.0727 
     93 H93        28.3550  -46.9578  -61.8211 H         1 UNK         0.0790 
     94 H94        27.2692  -48.0611  -62.6554 H         1 UNK         0.0790 
     95 H95        28.8174  -48.6415  -62.0646 H         1 UNK         0.0790 
     96 H96        28.8597  -47.4066  -59.4264 H         1 UNK         0.3215 
     97 H97        30.2502  -49.2222  -57.3363 H         1 UNK         0.0863 
     98 H98        30.3741  -46.8332  -56.4741 H         1 UNK         0.0808 
     99 H99        28.8875  -46.4763  -57.3488 H         1 UNK         0.0808 
    100 H100       30.3554  -46.9274  -58.2201 H         1 UNK         0.0808 
    101 H101       29.4576  -49.3472  -55.2550 H         1 UNK         0.3118 
    102 H102       26.5509  -48.1845  -53.5715 H         1 UNK         0.0546 
    103 H103       27.9214  -50.9020  -53.9455 H         1 UNK         0.0828 
    104 H104       26.2068  -50.5634  -54.1098 H         1 UNK         0.0828 
    105 H105       26.9776  -50.4206  -52.5373 H         1 UNK         0.0828 
    106 H106       29.2725  -49.0403  -52.9012 H         1 UNK         0.3005 
    107 H107       30.8226  -46.2848  -52.9869 H         1 UNK         0.1257 
    108 H108       29.7024  -46.0070  -50.1537 H         1 UNK         0.0775 
    109 H109       29.3231  -44.8458  -51.3706 H         1 UNK         0.0775 
    110 H110       30.3504  -42.7329  -51.1966 H         1 UNK         0.0840 
    111 H111       32.0537  -42.3960  -51.1047 H         1 UNK         0.0840 
    112 H112       31.8122  -48.0791  -52.2033 H         1 UNK         0.2987 
    113 H113       32.2065  -49.7237  -49.8172 H         1 UNK         0.0785 
    114 H114       30.1928  -50.8867  -48.9659 H         1 UNK         0.0798 
    115 H115       31.2407  -52.0403  -49.7700 H         1 UNK         0.0798 
    116 H116       29.7912  -51.4506  -50.5825 H         1 UNK         0.0798 
    117 H117       33.1355  -50.6168  -51.6356 H         1 UNK         0.3079 
    118 H118       33.0199  -52.2196  -53.5995 H         1 UNK         0.0794 
    119 H119       32.6618  -51.9940  -56.0631 H         1 UNK         0.0786 
    120 H120       31.4604  -50.7374  -55.7767 H         1 UNK         0.0786 
    121 H121       31.1716  -52.3745  -55.2144 H         1 UNK         0.0786 
    122 H122       33.6049  -49.6954  -54.9853 H         1 UNK         0.3032 
    123 H123       36.1282  -48.6861  -52.7887 H         1 UNK         0.1094 
    124 H124       36.8599  -50.2702  -55.3145 H         1 UNK         0.0794 
    125 H125       37.8796  -49.0750  -54.5107 H         1 UNK         0.0794 
    126 H126       37.4842  -50.5803  -53.7007 H         1 UNK         0.0794 
    127 H127       35.7671  -48.0648  -55.5514 H         1 UNK         0.3016 
@<TRIPOS>BOND
     1    1    2 1    
     2    1   67 1    
     3    1   68 1    
     4    1   69 1    
     5    2    3 2    
     6    2    4 am   BACKBONE|DICT|INTERRES
     7    4    5 1    
     8    4   70 1    
     9    5    6 1    
    10    5   65 1    
    11    5   71 1    
    12    6    7 1    
    13    6   72 1    
    14    6   73 1    
    15    7    8 1    
    16    8    9 1    
    17    8   74 1    
    18    8   75 1    
    19    9   10 ar   
    20    9   14 ar   
    21   10   11 ar   
    22   10   76 1    
    23   11   12 ar   
    24   11   48 1    
    25   12   13 ar   
    26   12   77 1    
    27   13   14 ar   
    28   13   15 1    
    29   14   78 1    
    30   15   16 1    
    31   15   79 1    
    32   15   80 1    
    33   16   17 1    
    34   17   18 1    
    35   17   81 1    
    36   17   82 1    
    37   18   19 1    
    38   18   22 1    
    39   18   83 1    
    40   19   20 am   BACKBONE|DICT|INTERRES
    41   19   21 2    
    42   20   84 1    
    43   20   85 1    
    44   22   23 am   BACKBONE|DICT|INTERRES
    45   22   86 1    
    46   23   24 2    
    47   23   25 1    
    48   25   26 1    
    49   25   27 1    
    50   25   87 1    
    51   26   88 1    
    52   26   89 1    
    53   26   90 1    
    54   27   28 am   BACKBONE|DICT|INTERRES
    55   27   91 1    
    56   28   29 2    
    57   28   30 1    
    58   30   31 1    
    59   30   32 1    
    60   30   92 1    
    61   31   93 1    
    62   31   94 1    
    63   31   95 1    
    64   32   33 am   BACKBONE|DICT|INTERRES
    65   32   96 1    
    66   33   34 2    
    67   33   35 1    
    68   35   36 1    
    69   35   37 1    
    70   35   97 1    
    71   36   98 1    
    72   36   99 1    
    73   36  100 1    
    74   37   38 am   BACKBONE|DICT|INTERRES
    75   37  101 1    
    76   38   39 2    
    77   38   40 1    
    78   40   41 1    
    79   40   42 1    
    80   40  102 1    
    81   41  103 1    
    82   41  104 1    
    83   41  105 1    
    84   42   43 am   BACKBONE|DICT|INTERRES
    85   42  106 1    
    86   43   44 2    
    87   43   45 1    
    88   45   46 1    
    89   45   49 1    
    90   45  107 1    
    91   46   47 1    
    92   46  108 1    
    93   46  109 1    
    94   47   48 1    
    95   48  110 1    
    96   48  111 1    
    97   49   50 am   BACKBONE|DICT|INTERRES
    98   49  112 1    
    99   50   51 2    
   100   50   52 1    
   101   52   53 1    
   102   52   54 1    
   103   52  113 1    
   104   53  114 1    
   105   53  115 1    
   106   53  116 1    
   107   54   55 am   BACKBONE|DICT|INTERRES
   108   54  117 1    
   109   55   56 2    
   110   55   57 1    
   111   57   58 1    
   112   57   59 1    
   113   57  118 1    
   114   58  119 1    
   115   58  120 1    
   116   58  121 1    
   117   59   60 am   BACKBONE|DICT|INTERRES
   118   59  122 1    
   119   60   61 2    
   120   60   62 1    
   121   62   63 1    
   122   62   64 1    
   123   62  123 1    
   124   63  124 1    
   125   63  125 1    
   126   63  126 1    
   127   64   65 am   BACKBONE|DICT|INTERRES
   128   64  127 1    
   129   65   66 2    
@<TRIPOS>SUBSTRUCTURE
     1 UNK         1 GROUP             0       ****    0 ROOT    
