@<TRIPOS>MOLECULE
3R134
127   129    1
SMALL
USER_CHARGES


@<TRIPOS>ATOM
      1 CA         33.7550  -47.9991  -48.7253 C.3       0 UNK        -0.1968 
      2 C          33.6167  -47.5778  -50.1799 C.2       0 UNK         0.4852 
      3 O          33.7960  -48.4049  -51.0727 O.2       0 UNK        -0.5359 
      4 N          33.2835  -46.3039  -50.4279 N.am      1 UNK        -0.4300 
      5 CA         33.1161  -45.7063  -51.7592 C.3       1 UNK         0.0863 
      6 C6         32.8471  -44.1845  -51.6363 C.3       11 UNK        -0.0953 
      7 S7         32.9986  -43.2877  -53.2143 S.3       11 UNK        -0.2369 
      8 C8         31.2404  -43.0892  -53.6333 C.3       11 UNK         0.0226 
      9 C9         31.0506  -42.8745  -55.1230 C.ar      11 UNK        -0.0699 
     10 C10        31.2421  -43.9424  -56.0033 C.ar      11 UNK        -0.0804 
     11 C11        31.0771  -43.7714  -57.3830 C.ar      11 UNK        -0.0871 
     12 C12        30.6970  -42.5161  -57.8666 C.ar      11 UNK        -0.1008 
     13 C13        30.4777  -41.4463  -56.9932 C.ar      11 UNK        -0.0735 
     14 C14        30.6649  -41.6283  -55.6209 C.ar      11 UNK        -0.0945 
     15 C15        30.0372  -40.0927  -57.5292 C.3       11 UNK         0.0169 
     16 S16        28.2381  -39.8546  -57.3671 S.3       11 UNK        -0.2669 
     17 C17        27.5871  -41.0762  -58.5606 C.3       11 UNK        -0.0850 
     18 CA         26.7295  -42.1918  -57.9039 C.3       10 UNK         0.0855 
     19 C          26.1661  -43.1643  -58.9848 C.2       10 UNK         0.5543 
     20 N          26.4452  -44.4625  -58.9345 N.am      10 UNK        -0.7343 
     21 O          25.4561  -42.7284  -59.8877 O.2       10 UNK        -0.5027 
     22 N          27.4185  -42.8623  -56.7858 N.am      10 UNK        -0.4495 
     23 C          26.7809  -43.5384  -55.8240 C.2       10 UNK         0.4903 
     24 O          25.5536  -43.5806  -55.7098 O.2       10 UNK        -0.4860 
     25 CA         27.6510  -44.3092  -54.8183 C.3       9 UNK         0.0227 
     26 CB         27.7347  -43.5525  -53.4829 C.3       9 UNK        -0.1964 
     27 N          27.0888  -45.6405  -54.5909 N.am      9 UNK        -0.4231 
     28 C          27.0744  -46.6119  -55.5124 C.2       9 UNK         0.5014 
     29 O          27.6898  -46.5606  -56.5829 O.2       9 UNK        -0.5270 
     30 CA         26.1742  -47.8140  -55.2075 C.3       8 UNK         0.0284 
     31 CB         24.6901  -47.4065  -55.3456 C.3       8 UNK        -0.1977 
     32 N          26.5103  -48.8792  -56.1466 N.am      8 UNK        -0.4342 
     33 C          26.0207  -50.1231  -56.1584 C.2       8 UNK         0.5039 
     34 O          25.2184  -50.5613  -55.3326 O.2       8 UNK        -0.5547 
     35 CA         26.5167  -51.0341  -57.2903 C.3       7 UNK         0.0281 
     36 CB         26.1979  -50.4492  -58.6782 C.3       7 UNK        -0.1963 
     37 N          27.9510  -51.2911  -57.1811 N.am      7 UNK        -0.4444 
     38 C          28.5211  -52.0988  -56.2807 C.2       7 UNK         0.5104 
     39 O          27.8902  -52.7410  -55.4402 O.2       7 UNK        -0.5100 
     40 CA         30.0505  -52.2548  -56.3418 C.3       6 UNK         0.0396 
     41 CB         30.4650  -53.2153  -57.4729 C.3       6 UNK        -0.1801 
     42 N          30.8156  -51.0016  -56.4003 N.am      6 UNK        -0.4747 
     43 C          30.8633  -50.0689  -57.3636 C.2       6 UNK         0.5012 
     44 O          30.1714  -50.1160  -58.3823 O.2       6 UNK        -0.5003 
     45 CA         31.8608  -48.8997  -57.1930 C.3       5 UNK         0.0782 
     46 C46        31.1704  -47.5169  -57.2950 C.3       11 UNK        -0.0868 
     47 S47        32.3811  -46.2506  -57.8027 S.3       11 UNK        -0.2515 
     48 C48        31.2880  -44.9075  -58.3835 C.3       11 UNK         0.0199 
     49 N          32.6662  -49.0107  -55.9690 N.am      5 UNK        -0.4607 
     50 C          33.7843  -49.7402  -55.8577 C.2       4 UNK         0.5031 
     51 O          34.3053  -50.3435  -56.7957 O.2       4 UNK        -0.5119 
     52 CA         34.4002  -49.8552  -54.4520 C.3       4 UNK         0.0263 
     53 CB         35.3158  -48.6561  -54.1580 C.3       4 UNK        -0.1967 
     54 N          33.3916  -49.9792  -53.3945 N.am      4 UNK        -0.4237 
     55 C          32.5265  -50.9976  -53.2763 C.2       3 UNK         0.4908 
     56 O          32.5247  -51.9789  -54.0176 O.2       3 UNK        -0.5102 
     57 CA         31.4551  -50.8919  -52.1802 C.3       3 UNK         0.0241 
     58 CB         31.9900  -51.4072  -50.8343 C.3       3 UNK        -0.1971 
     59 N          30.9543  -49.5247  -52.0295 N.am      3 UNK        -0.4139 
     60 C          30.1186  -48.9213  -52.8879 C.2       2 UNK         0.5016 
     61 O          29.6351  -49.4683  -53.8775 O.2       2 UNK        -0.5319 
     62 CA         29.7793  -47.4471  -52.6059 C.3       2 UNK         0.0286 
     63 CB         28.5301  -47.3413  -51.7170 C.3       2 UNK        -0.1963 
     64 N          30.8834  -46.7112  -51.9827 N.am      2 UNK        -0.4790 
     65 C          32.0396  -46.4300  -52.6017 C.2       1 UNK         0.5024 
     66 O          32.2803  -46.7548  -53.7656 O.2       1 UNK        -0.4888 
     67 H67        34.7630  -48.3681  -48.5385 H         1 UNK         0.0892 
     68 H68        33.5631  -47.1736  -48.0401 H         1 UNK         0.0892 
     69 H69        33.0519  -48.8000  -48.4985 H         1 UNK         0.0892 
     70 H70        33.1501  -45.6754  -49.6482 H         1 UNK         0.3107 
     71 H71        34.0672  -45.8402  -52.2796 H         1 UNK         0.0773 
     72 H72        31.8723  -43.9903  -51.1846 H         1 UNK         0.0680 
     73 H73        33.5780  -43.7390  -50.9594 H         1 UNK         0.0680 
     74 H74        30.8246  -42.2605  -53.0582 H         1 UNK         0.0650 
     75 H75        30.6855  -43.9800  -53.3401 H         1 UNK         0.0650 
     76 H76        31.5278  -44.9032  -55.5986 H         1 UNK         0.1397 
     77 H77        30.5689  -42.3728  -58.9310 H         1 UNK         0.1363 
     78 H78        30.5015  -40.8015  -54.9429 H         1 UNK         0.1355 
     79 H79        30.5478  -39.2998  -56.9804 H         1 UNK         0.0707 
     80 H80        30.3296  -39.9746  -58.5738 H         1 UNK         0.0707 
     81 H81        26.9842  -40.5246  -59.2846 H         1 UNK         0.1034 
     82 H82        28.4025  -41.5101  -59.1389 H         1 UNK         0.1034 
     83 H83        25.8540  -41.6945  -57.4816 H         1 UNK         0.0482 
     84 H84        27.0066  -44.8450  -58.1876 H         1 UNK         0.3460 
     85 H85        26.0689  -45.0724  -59.6424 H         1 UNK         0.3460 
     86 H86        28.4292  -42.8460  -56.8068 H         1 UNK         0.2989 
     87 H87        28.6556  -44.4290  -55.2238 H         1 UNK         0.0559 
     88 H88        28.3448  -44.0882  -52.7563 H         1 UNK         0.0848 
     89 H89        28.1831  -42.5680  -53.6229 H         1 UNK         0.0848 
     90 H90        26.7486  -43.3988  -53.0427 H         1 UNK         0.0848 
     91 H91        26.5079  -45.7450  -53.7720 H         1 UNK         0.3144 
     92 H92        26.3778  -48.1636  -54.1940 H         1 UNK         0.0727 
     93 H93        24.0174  -48.2225  -55.0832 H         1 UNK         0.0790 
     94 H94        24.4551  -47.0947  -56.3642 H         1 UNK         0.0790 
     95 H95        24.4421  -46.5730  -54.6874 H         1 UNK         0.0790 
     96 H96        27.1880  -48.5936  -56.8443 H         1 UNK         0.3215 
     97 H97        25.9896  -51.9869  -57.2022 H         1 UNK         0.0863 
     98 H98        26.7560  -49.5339  -58.8791 H         1 UNK         0.0808 
     99 H99        25.1367  -50.2123  -58.7673 H         1 UNK         0.0808 
    100 H100       26.4363  -51.1616  -59.4682 H         1 UNK         0.0808 
    101 H101       28.5755  -50.7987  -57.8165 H         1 UNK         0.3118 
    102 H102       30.3440  -52.7239  -55.4018 H         1 UNK         0.0546 
    103 H103       30.2147  -52.8220  -58.4585 H         1 UNK         0.0828 
    104 H104       29.9596  -54.1765  -57.3709 H         1 UNK         0.0828 
    105 H105       31.5372  -53.4101  -57.4519 H         1 UNK         0.0828 
    106 H106       31.4093  -50.8511  -55.5946 H         1 UNK         0.3005 
    107 H107       32.5294  -48.9970  -58.0521 H         1 UNK         0.1257 
    108 H108       30.7062  -47.2312  -56.3489 H         1 UNK         0.0775 
    109 H109       30.3696  -47.5292  -58.0370 H         1 UNK         0.0775 
    110 H110       31.7332  -44.5015  -59.2932 H         1 UNK         0.0840 
    111 H111       30.3157  -45.3068  -58.6749 H         1 UNK         0.0840 
    112 H112       32.3393  -48.4930  -55.1615 H         1 UNK         0.2987 
    113 H113       35.0095  -50.7612  -54.4319 H         1 UNK         0.0785 
    114 H114       35.8018  -48.7572  -53.1874 H         1 UNK         0.0798 
    115 H115       36.1026  -48.5731  -54.9088 H         1 UNK         0.0798 
    116 H116       34.7644  -47.7156  -54.1585 H         1 UNK         0.0798 
    117 H117       33.3893  -49.2552  -52.6781 H         1 UNK         0.3079 
    118 H118       30.6179  -51.5290  -52.4751 H         1 UNK         0.0794 
    119 H119       31.2193  -51.3790  -50.0639 H         1 UNK         0.0786 
    120 H120       32.8401  -50.8234  -50.4808 H         1 UNK         0.0786 
    121 H121       32.3224  -52.4426  -50.9208 H         1 UNK         0.0786 
    122 H122       31.3359  -48.9808  -51.2696 H         1 UNK         0.3032 
    123 H123       29.5610  -46.9764  -53.5675 H         1 UNK         0.1094 
    124 H124       28.7026  -47.7620  -50.7256 H         1 UNK         0.0794 
    125 H125       28.2172  -46.3050  -51.5915 H         1 UNK         0.0794 
    126 H126       27.6909  -47.8823  -52.1552 H         1 UNK         0.0794 
    127 H127       30.7627  -46.4220  -51.0224 H         1 UNK         0.3016 
@<TRIPOS>BOND
     1    1    2 1    
     2    1   67 1    
     3    1   68 1    
     4    1   69 1    
     5    2    3 2    
     6    2    4 am   BACKBONE|DICT|INTERRES
     7    4    5 1    
     8    4   70 1    
     9    5    6 1    
    10    5   65 1    
    11    5   71 1    
    12    6    7 1    
    13    6   72 1    
    14    6   73 1    
    15    7    8 1    
    16    8    9 1    
    17    8   74 1    
    18    8   75 1    
    19    9   10 ar   
    20    9   14 ar   
    21   10   11 ar   
    22   10   76 1    
    23   11   12 ar   
    24   11   48 1    
    25   12   13 ar   
    26   12   77 1    
    27   13   14 ar   
    28   13   15 1    
    29   14   78 1    
    30   15   16 1    
    31   15   79 1    
    32   15   80 1    
    33   16   17 1    
    34   17   18 1    
    35   17   81 1    
    36   17   82 1    
    37   18   19 1    
    38   18   22 1    
    39   18   83 1    
    40   19   20 am   BACKBONE|DICT|INTERRES
    41   19   21 2    
    42   20   84 1    
    43   20   85 1    
    44   22   23 am   BACKBONE|DICT|INTERRES
    45   22   86 1    
    46   23   24 2    
    47   23   25 1    
    48   25   26 1    
    49   25   27 1    
    50   25   87 1    
    51   26   88 1    
    52   26   89 1    
    53   26   90 1    
    54   27   28 am   BACKBONE|DICT|INTERRES
    55   27   91 1    
    56   28   29 2    
    57   28   30 1    
    58   30   31 1    
    59   30   32 1    
    60   30   92 1    
    61   31   93 1    
    62   31   94 1    
    63   31   95 1    
    64   32   33 am   BACKBONE|DICT|INTERRES
    65   32   96 1    
    66   33   34 2    
    67   33   35 1    
    68   35   36 1    
    69   35   37 1    
    70   35   97 1    
    71   36   98 1    
    72   36   99 1    
    73   36  100 1    
    74   37   38 am   BACKBONE|DICT|INTERRES
    75   37  101 1    
    76   38   39 2    
    77   38   40 1    
    78   40   41 1    
    79   40   42 1    
    80   40  102 1    
    81   41  103 1    
    82   41  104 1    
    83   41  105 1    
    84   42   43 am   BACKBONE|DICT|INTERRES
    85   42  106 1    
    86   43   44 2    
    87   43   45 1    
    88   45   46 1    
    89   45   49 1    
    90   45  107 1    
    91   46   47 1    
    92   46  108 1    
    93   46  109 1    
    94   47   48 1    
    95   48  110 1    
    96   48  111 1    
    97   49   50 am   BACKBONE|DICT|INTERRES
    98   49  112 1    
    99   50   51 2    
   100   50   52 1    
   101   52   53 1    
   102   52   54 1    
   103   52  113 1    
   104   53  114 1    
   105   53  115 1    
   106   53  116 1    
   107   54   55 am   BACKBONE|DICT|INTERRES
   108   54  117 1    
   109   55   56 2    
   110   55   57 1    
   111   57   58 1    
   112   57   59 1    
   113   57  118 1    
   114   58  119 1    
   115   58  120 1    
   116   58  121 1    
   117   59   60 am   BACKBONE|DICT|INTERRES
   118   59  122 1    
   119   60   61 2    
   120   60   62 1    
   121   62   63 1    
   122   62   64 1    
   123   62  123 1    
   124   63  124 1    
   125   63  125 1    
   126   63  126 1    
   127   64   65 am   BACKBONE|DICT|INTERRES
   128   64  127 1    
   129   65   66 2    
@<TRIPOS>SUBSTRUCTURE
     1 UNK         1 GROUP             0       ****    0 ROOT    
