@<TRIPOS>MOLECULE
3R134
127   129    1
SMALL
USER_CHARGES


@<TRIPOS>ATOM
      1 CA         36.4211  -41.2397  -53.5937 C.3       0 UNK        -0.1968 
      2 C          36.6378  -42.5462  -54.3435 C.2       0 UNK         0.4852 
      3 O          37.7704  -42.8547  -54.7189 O.2       0 UNK        -0.5359 
      4 N          35.5603  -43.3087  -54.5703 N.am      1 UNK        -0.4300 
      5 CA         35.5852  -44.6285  -55.2071 C.3       1 UNK         0.0863 
      6 C6         34.2028  -44.9853  -55.8228 C.3       11 UNK        -0.0953 
      7 S7         32.9137  -45.5676  -54.6646 S.3       11 UNK        -0.2369 
      8 C8         32.2184  -44.0071  -54.0450 C.3       11 UNK         0.0226 
      9 C9         30.8979  -44.2564  -53.3356 C.ar      11 UNK        -0.0699 
     10 C10        30.8759  -44.8869  -52.0882 C.ar      11 UNK        -0.0804 
     11 C11        29.6609  -45.1600  -51.4521 C.ar      11 UNK        -0.0871 
     12 C12        28.4625  -44.7781  -52.0617 C.ar      11 UNK        -0.1008 
     13 C13        28.4744  -44.1506  -53.3103 C.ar      11 UNK        -0.0735 
     14 C14        29.6945  -43.8800  -53.9368 C.ar      11 UNK        -0.0945 
     15 C15        27.1678  -43.7966  -54.0028 C.3       11 UNK         0.0169 
     16 S16        26.3435  -45.2631  -54.7068 S.3       11 UNK        -0.2669 
     17 C17        27.6354  -45.9720  -55.7897 C.3       11 UNK        -0.0850 
     18 CA         27.8133  -45.1938  -57.1187 C.3       10 UNK         0.0855 
     19 C          29.0498  -45.6862  -57.9257 C.2       10 UNK         0.5543 
     20 N          30.2449  -45.5741  -57.3600 N.am      10 UNK        -0.7343 
     21 O          28.9506  -46.1683  -59.0518 O.2       10 UNK        -0.5027 
     22 N          26.5676  -45.1925  -57.8993 N.am      10 UNK        -0.4495 
     23 C          26.2518  -44.2912  -58.8384 C.2       10 UNK         0.4903 
     24 O          26.9701  -43.3333  -59.1309 O.2       10 UNK        -0.4860 
     25 CA         24.8835  -44.4573  -59.5355 C.3       9 UNK         0.0227 
     26 CB         24.8219  -43.7673  -60.9160 C.3       9 UNK        -0.1964 
     27 N          24.4286  -45.8520  -59.6123 N.am      9 UNK        -0.4231 
     28 C          25.0033  -46.8547  -60.2913 C.2       9 UNK         0.5014 
     29 O          25.9762  -46.7322  -61.0382 O.2       9 UNK        -0.5270 
     30 CA         24.3926  -48.2495  -60.0768 C.3       8 UNK         0.0284 
     31 CB         23.9008  -48.8530  -61.4035 C.3       8 UNK        -0.1977 
     32 N          25.3644  -49.1525  -59.4579 N.am      8 UNK        -0.4342 
     33 C          25.8668  -49.0003  -58.2256 C.2       8 UNK         0.5039 
     34 O          25.5299  -48.0951  -57.4574 O.2       8 UNK        -0.5547 
     35 CA         26.9448  -50.0145  -57.8062 C.3       7 UNK         0.0281 
     36 CB         28.3312  -49.5650  -58.2918 C.3       7 UNK        -0.1963 
     37 N          26.9843  -50.2213  -56.3557 N.am      7 UNK        -0.4444 
     38 C          26.0610  -50.9182  -55.6758 C.2       7 UNK         0.5104 
     39 O          25.0843  -51.4455  -56.2116 O.2       7 UNK        -0.5100 
     40 CA         26.2592  -51.1153  -54.1597 C.3       6 UNK         0.0396 
     41 CB         26.5363  -52.5954  -53.8452 C.3       6 UNK        -0.1801 
     42 N          27.3482  -50.3120  -53.6023 N.am      6 UNK        -0.4747 
     43 C          27.2231  -49.0634  -53.1324 C.2       6 UNK         0.5012 
     44 O          26.1505  -48.4627  -53.0778 O.2       6 UNK        -0.5003 
     45 CA         28.5067  -48.3735  -52.6190 C.3       5 UNK         0.0782 
     46 C46        28.5010  -48.3168  -51.0675 C.3       11 UNK        -0.0868 
     47 S47        30.0386  -47.6569  -50.3295 S.3       11 UNK        -0.2515 
     48 C48        29.6487  -45.8911  -50.1193 C.3       11 UNK         0.0199 
     49 N          29.7478  -48.9558  -53.1461 N.am      5 UNK        -0.4607 
     50 C          30.1294  -48.9583  -54.4283 C.2       4 UNK         0.5031 
     51 O          29.3875  -48.6149  -55.3466 O.2       4 UNK        -0.5119 
     52 CA         31.5689  -49.4197  -54.7315 C.3       4 UNK         0.0263 
     53 CB         32.0023  -49.0745  -56.1689 C.3       4 UNK        -0.1967 
     54 N          32.5432  -48.8488  -53.7962 N.am      4 UNK        -0.4237 
     55 C          32.8038  -49.3093  -52.5654 C.2       3 UNK         0.4908 
     56 O          32.2173  -50.2741  -52.0711 O.2       3 UNK        -0.5102 
     57 CA         33.8684  -48.5482  -51.7491 C.3       3 UNK         0.0241 
     58 CB         34.3595  -49.3442  -50.5217 C.3       3 UNK        -0.1971 
     59 N          35.0097  -48.0858  -52.5505 N.am      3 UNK        -0.4139 
     60 C          35.8385  -48.8179  -53.3105 C.2       2 UNK         0.5016 
     61 O          35.7385  -50.0377  -53.4552 O.2       2 UNK        -0.5319 
     62 CA         36.9636  -48.0478  -54.0396 C.3       2 UNK         0.0286 
     63 CB         37.7652  -48.9433  -55.0037 C.3       2 UNK        -0.1963 
     64 N          36.4736  -46.8796  -54.7829 N.am      2 UNK        -0.4790 
     65 C          36.1208  -45.7073  -54.2393 C.2       1 UNK         0.5024 
     66 O          36.1570  -45.4937  -53.0237 O.2       1 UNK        -0.4888 
     67 H67        37.0006  -41.2371  -52.6709 H         1 UNK         0.0892 
     68 H68        35.3735  -41.0851  -53.3361 H         1 UNK         0.0892 
     69 H69        36.7476  -40.3980  -54.2039 H         1 UNK         0.0892 
     70 H70        34.6656  -43.0178  -54.2082 H         1 UNK         0.3107 
     71 H71        36.2968  -44.5706  -56.0341 H         1 UNK         0.0773 
     72 H72        33.8146  -44.1416  -56.3957 H         1 UNK         0.0680 
     73 H73        34.3379  -45.7813  -56.5569 H         1 UNK         0.0680 
     74 H74        32.9209  -43.5441  -53.3515 H         1 UNK         0.0650 
     75 H75        32.0833  -43.3100  -54.8735 H         1 UNK         0.0650 
     76 H76        31.8047  -45.1920  -51.6257 H         1 UNK         0.1397 
     77 H77        27.5173  -44.9976  -51.5837 H         1 UNK         0.1363 
     78 H78        29.7046  -43.3961  -54.9037 H         1 UNK         0.1355 
     79 H79        27.3337  -43.0628  -54.7928 H         1 UNK         0.0707 
     80 H80        26.4942  -43.3235  -53.2869 H         1 UNK         0.0707 
     81 H81        27.3652  -47.0077  -55.9978 H         1 UNK         0.1034 
     82 H82        28.5705  -46.0350  -55.2342 H         1 UNK         0.1034 
     83 H83        28.0305  -44.1553  -56.8633 H         1 UNK         0.0482 
     84 H84        31.0507  -45.8908  -57.8741 H         1 UNK         0.3460 
     85 H85        30.3594  -45.2108  -56.4285 H         1 UNK         0.3460 
     86 H86        25.9583  -45.9881  -57.7470 H         1 UNK         0.2989 
     87 H87        24.1645  -43.9495  -58.8910 H         1 UNK         0.0559 
     88 H88        25.5751  -44.1593  -61.6000 H         1 UNK         0.0848 
     89 H89        24.9968  -42.6946  -60.8250 H         1 UNK         0.0848 
     90 H90        23.8450  -43.8953  -61.3821 H         1 UNK         0.0848 
     91 H91        23.6468  -46.0816  -59.0132 H         1 UNK         0.3144 
     92 H92        23.5353  -48.1681  -59.4048 H         1 UNK         0.0727 
     93 H93        23.4212  -49.8196  -61.2475 H         1 UNK         0.0790 
     94 H94        24.7177  -48.9931  -62.1129 H         1 UNK         0.0790 
     95 H95        23.1666  -48.2008  -61.8783 H         1 UNK         0.0790 
     96 H96        25.7233  -49.8939  -60.0420 H         1 UNK         0.3215 
     97 H97        26.7148  -50.9734  -58.2764 H         1 UNK         0.0863 
     98 H98        29.0982  -50.2976  -58.0412 H         1 UNK         0.0808 
     99 H99        28.6206  -48.6138  -57.8469 H         1 UNK         0.0808 
    100 H100       28.3480  -49.4321  -59.3742 H         1 UNK         0.0808 
    101 H101       27.7300  -49.7551  -55.8501 H         1 UNK         0.3118 
    102 H102       25.3215  -50.8396  -53.6726 H         1 UNK         0.0546 
    103 H103       25.7248  -53.2308  -54.2029 H         1 UNK         0.0828 
    104 H104       26.6252  -52.7637  -52.7719 H         1 UNK         0.0828 
    105 H105       27.4549  -52.9447  -54.3183 H         1 UNK         0.0828 
    106 H106       28.2697  -50.7258  -53.6049 H         1 UNK         0.3005 
    107 H107       28.4649  -47.3510  -52.9973 H         1 UNK         0.1257 
    108 H108       28.3594  -49.3186  -50.6571 H         1 UNK         0.0775 
    109 H109       27.6540  -47.7268  -50.7121 H         1 UNK         0.0775 
    110 H110       28.6870  -45.7804  -49.6158 H         1 UNK         0.0840 
    111 H111       30.3912  -45.4430  -49.4573 H         1 UNK         0.0840 
    112 H112       30.4126  -49.2848  -52.4551 H         1 UNK         0.2987 
    113 H113       31.5827  -50.5070  -54.6327 H         1 UNK         0.0785 
    114 H114       31.9616  -48.0006  -56.3546 H         1 UNK         0.0798 
    115 H115       31.3510  -49.5544  -56.9004 H         1 UNK         0.0798 
    116 H116       33.0185  -49.4134  -56.3707 H         1 UNK         0.0798 
    117 H117       33.0189  -48.0117  -54.1044 H         1 UNK         0.3079 
    118 H118       33.3719  -47.6492  -51.3802 H         1 UNK         0.0794 
    119 H119       34.8276  -50.2853  -50.8126 H         1 UNK         0.0786 
    120 H120       33.5314  -49.5842  -49.8533 H         1 UNK         0.0786 
    121 H121       35.0850  -48.7730  -49.9426 H         1 UNK         0.0786 
    122 H122       35.1999  -47.0875  -52.5174 H         1 UNK         0.3032 
    123 H123       37.6525  -47.7013  -53.2654 H         1 UNK         0.1094 
    124 H124       38.5865  -48.3950  -55.4657 H         1 UNK         0.0794 
    125 H125       38.2040  -49.7922  -54.4774 H         1 UNK         0.0794 
    126 H126       37.1365  -49.3429  -55.8004 H         1 UNK         0.0794 
    127 H127       36.3762  -46.9979  -55.7816 H         1 UNK         0.3016 
@<TRIPOS>BOND
     1    1    2 1    
     2    1   67 1    
     3    1   68 1    
     4    1   69 1    
     5    2    3 2    
     6    2    4 am   BACKBONE|DICT|INTERRES
     7    4    5 1    
     8    4   70 1    
     9    5    6 1    
    10    5   65 1    
    11    5   71 1    
    12    6    7 1    
    13    6   72 1    
    14    6   73 1    
    15    7    8 1    
    16    8    9 1    
    17    8   74 1    
    18    8   75 1    
    19    9   10 ar   
    20    9   14 ar   
    21   10   11 ar   
    22   10   76 1    
    23   11   12 ar   
    24   11   48 1    
    25   12   13 ar   
    26   12   77 1    
    27   13   14 ar   
    28   13   15 1    
    29   14   78 1    
    30   15   16 1    
    31   15   79 1    
    32   15   80 1    
    33   16   17 1    
    34   17   18 1    
    35   17   81 1    
    36   17   82 1    
    37   18   19 1    
    38   18   22 1    
    39   18   83 1    
    40   19   20 am   BACKBONE|DICT|INTERRES
    41   19   21 2    
    42   20   84 1    
    43   20   85 1    
    44   22   23 am   BACKBONE|DICT|INTERRES
    45   22   86 1    
    46   23   24 2    
    47   23   25 1    
    48   25   26 1    
    49   25   27 1    
    50   25   87 1    
    51   26   88 1    
    52   26   89 1    
    53   26   90 1    
    54   27   28 am   BACKBONE|DICT|INTERRES
    55   27   91 1    
    56   28   29 2    
    57   28   30 1    
    58   30   31 1    
    59   30   32 1    
    60   30   92 1    
    61   31   93 1    
    62   31   94 1    
    63   31   95 1    
    64   32   33 am   BACKBONE|DICT|INTERRES
    65   32   96 1    
    66   33   34 2    
    67   33   35 1    
    68   35   36 1    
    69   35   37 1    
    70   35   97 1    
    71   36   98 1    
    72   36   99 1    
    73   36  100 1    
    74   37   38 am   BACKBONE|DICT|INTERRES
    75   37  101 1    
    76   38   39 2    
    77   38   40 1    
    78   40   41 1    
    79   40   42 1    
    80   40  102 1    
    81   41  103 1    
    82   41  104 1    
    83   41  105 1    
    84   42   43 am   BACKBONE|DICT|INTERRES
    85   42  106 1    
    86   43   44 2    
    87   43   45 1    
    88   45   46 1    
    89   45   49 1    
    90   45  107 1    
    91   46   47 1    
    92   46  108 1    
    93   46  109 1    
    94   47   48 1    
    95   48  110 1    
    96   48  111 1    
    97   49   50 am   BACKBONE|DICT|INTERRES
    98   49  112 1    
    99   50   51 2    
   100   50   52 1    
   101   52   53 1    
   102   52   54 1    
   103   52  113 1    
   104   53  114 1    
   105   53  115 1    
   106   53  116 1    
   107   54   55 am   BACKBONE|DICT|INTERRES
   108   54  117 1    
   109   55   56 2    
   110   55   57 1    
   111   57   58 1    
   112   57   59 1    
   113   57  118 1    
   114   58  119 1    
   115   58  120 1    
   116   58  121 1    
   117   59   60 am   BACKBONE|DICT|INTERRES
   118   59  122 1    
   119   60   61 2    
   120   60   62 1    
   121   62   63 1    
   122   62   64 1    
   123   62  123 1    
   124   63  124 1    
   125   63  125 1    
   126   63  126 1    
   127   64   65 am   BACKBONE|DICT|INTERRES
   128   64  127 1    
   129   65   66 2    
@<TRIPOS>SUBSTRUCTURE
     1 UNK         1 GROUP             0       ****    0 ROOT    
