@<TRIPOS>MOLECULE
3R134
127   129    1
SMALL
USER_CHARGES


@<TRIPOS>ATOM
      1 CA         33.8742  -44.7563  -47.2725 C.3       0 UNK        -0.1968 
      2 C          34.4058  -45.0191  -48.6738 C.2       0 UNK         0.4852 
      3 O          35.6208  -45.0979  -48.8607 O.2       0 UNK        -0.5359 
      4 N          33.5050  -45.1516  -49.6574 N.am      1 UNK        -0.4300 
      5 CA         33.8268  -45.4077  -51.0688 C.3       1 UNK         0.0863 
      6 C6         32.6103  -45.1657  -51.9952 C.3       11 UNK        -0.0953 
      7 S7         31.9215  -43.4861  -51.8272 S.3       11 UNK        -0.2369 
      8 C8         32.6117  -42.6475  -53.2879 C.3       11 UNK         0.0226 
      9 C9         31.8907  -43.0208  -54.5773 C.ar      11 UNK        -0.0699 
     10 C10        32.5867  -43.6288  -55.6283 C.ar      11 UNK        -0.0804 
     11 C11        31.9444  -43.9070  -56.8399 C.ar      11 UNK        -0.0871 
     12 C12        30.5922  -43.5837  -56.9841 C.ar      11 UNK        -0.1008 
     13 C13        29.8750  -43.0076  -55.9341 C.ar      11 UNK        -0.0735 
     14 C14        30.5352  -42.7127  -54.7378 C.ar      11 UNK        -0.0945 
     15 C15        28.3935  -42.6991  -56.1023 C.3       11 UNK         0.0169 
     16 S16        27.3826  -43.7288  -54.9963 S.3       11 UNK        -0.2669 
     17 C17        25.7241  -43.5845  -55.7432 C.3       11 UNK        -0.0850 
     18 CA         25.2411  -44.9435  -56.3266 C.3       10 UNK         0.0855 
     19 C          23.7162  -44.9924  -56.6379 C.2       10 UNK         0.5543 
     20 N          23.2205  -46.0909  -57.1947 N.am      10 UNK        -0.7343 
     21 O          22.9756  -44.0476  -56.3737 O.2       10 UNK        -0.5027 
     22 N          26.0752  -45.4223  -57.4418 N.am      10 UNK        -0.4495 
     23 C          26.1141  -44.9086  -58.6801 C.2       10 UNK         0.4903 
     24 O          25.5207  -43.8845  -59.0195 O.2       10 UNK        -0.4860 
     25 CA         26.9300  -45.6722  -59.7367 C.3       9 UNK         0.0227 
     26 CB         28.3057  -45.0264  -59.9488 C.3       9 UNK        -0.1964 
     27 N          27.1098  -47.0775  -59.3660 N.am      9 UNK        -0.4231 
     28 C          26.4149  -48.0934  -59.8926 C.2       9 UNK         0.5014 
     29 O          25.6125  -47.9742  -60.8199 O.2       9 UNK        -0.5270 
     30 CA         26.6414  -49.4846  -59.2790 C.3       8 UNK         0.0284 
     31 CB         27.8925  -50.1466  -59.8795 C.3       8 UNK        -0.1977 
     32 N          26.7371  -49.4942  -57.8162 N.am      8 UNK        -0.4342 
     33 C          25.7616  -49.1221  -56.9730 C.2       8 UNK         0.5039 
     34 O          24.7024  -48.6047  -57.3291 O.2       8 UNK        -0.5547 
     35 CA         26.0107  -49.3600  -55.4784 C.3       7 UNK         0.0281 
     36 CB         25.9580  -50.8607  -55.1453 C.3       7 UNK        -0.1963 
     37 N          27.3105  -48.8190  -55.0914 N.am      7 UNK        -0.4444 
     38 C          27.4936  -47.7297  -54.3348 C.2       7 UNK         0.5104 
     39 O          26.5815  -47.1327  -53.7635 O.2       7 UNK        -0.5100 
     40 CA         28.9390  -47.2215  -54.1646 C.3       6 UNK         0.0396 
     41 CB         29.4787  -47.6735  -52.7993 C.3       6 UNK        -0.1801 
     42 N          29.8743  -47.6617  -55.2046 N.am      6 UNK        -0.4747 
     43 C          29.7629  -47.4362  -56.5250 C.2       6 UNK         0.5012 
     44 O          28.8217  -46.8367  -57.0461 O.2       6 UNK        -0.5003 
     45 CA         30.8266  -48.1039  -57.4267 C.3       5 UNK         0.0782 
     46 C46        32.0883  -47.2146  -57.5726 C.3       11 UNK        -0.0868 
     47 S47        31.8881  -45.9027  -58.8180 S.3       11 UNK        -0.2515 
     48 C48        32.7271  -44.4974  -58.0095 C.3       11 UNK         0.0199 
     49 N          31.2037  -49.4431  -56.9611 N.am      5 UNK        -0.4607 
     50 C          30.3886  -50.4448  -56.6004 C.2       4 UNK         0.5031 
     51 O          29.1666  -50.4241  -56.7542 O.2       4 UNK        -0.5119 
     52 CA         31.0386  -51.6423  -55.8805 C.3       4 UNK         0.0263 
     53 CB         31.1209  -52.8495  -56.8277 C.3       4 UNK        -0.1967 
     54 N          32.3725  -51.3695  -55.3198 N.am      4 UNK        -0.4237 
     55 C          32.6647  -50.4268  -54.4094 C.2       3 UNK         0.4908 
     56 O          31.8325  -49.6528  -53.9296 O.2       3 UNK        -0.5102 
     57 CA         34.1543  -50.2644  -54.0671 C.3       3 UNK         0.0241 
     58 CB         34.8641  -49.4554  -55.1669 C.3       3 UNK        -0.1971 
     59 N          34.3615  -49.5846  -52.7891 N.am      3 UNK        -0.4139 
     60 C          34.1124  -50.0973  -51.5805 C.2       2 UNK         0.5016 
     61 O          33.7005  -51.2443  -51.3989 O.2       2 UNK        -0.5319 
     62 CA         34.3855  -49.1988  -50.3579 C.3       2 UNK         0.0286 
     63 CB         35.8651  -49.2887  -49.9359 C.3       2 UNK        -0.1963 
     64 N          33.9579  -47.7932  -50.4732 N.am      2 UNK        -0.4790 
     65 C          34.4010  -46.8239  -51.2922 C.2       1 UNK         0.5024 
     66 O          35.2276  -47.0026  -52.1876 O.2       1 UNK        -0.4888 
     67 H67        32.7859  -44.7023  -47.2519 H         1 UNK         0.0892 
     68 H68        34.1870  -45.5523  -46.5974 H         1 UNK         0.0892 
     69 H69        34.2671  -43.8133  -46.8933 H         1 UNK         0.0892 
     70 H70        32.5226  -45.0411  -49.4490 H         1 UNK         0.3107 
     71 H71        34.6100  -44.7031  -51.3576 H         1 UNK         0.0773 
     72 H72        32.8684  -45.3493  -53.0401 H         1 UNK         0.0680 
     73 H73        31.8122  -45.8643  -51.7484 H         1 UNK         0.0680 
     74 H74        33.6795  -42.8623  -53.3543 H         1 UNK         0.0650 
     75 H75        32.5258  -41.5701  -53.1411 H         1 UNK         0.0650 
     76 H76        33.6374  -43.8576  -55.5128 H         1 UNK         0.1397 
     77 H77        30.0985  -43.7770  -57.9228 H         1 UNK         0.1363 
     78 H78        29.9903  -42.2490  -53.9268 H         1 UNK         0.1355 
     79 H79        28.2084  -41.6454  -55.8897 H         1 UNK         0.0707 
     80 H80        28.0838  -42.8714  -57.1345 H         1 UNK         0.0707 
     81 H81        25.0498  -43.2478  -54.9539 H         1 UNK         0.1034 
     82 H82        25.7074  -42.8036  -56.5048 H         1 UNK         0.1034 
     83 H83        25.3636  -45.6827  -55.5365 H         1 UNK         0.0482 
     84 H84        22.2361  -46.1367  -57.4027 H         1 UNK         0.3460 
     85 H85        23.8093  -46.9034  -57.3618 H         1 UNK         0.3460 
     86 H86        26.6506  -46.2271  -57.2393 H         1 UNK         0.2989 
     87 H87        26.3822  -45.5932  -60.6779 H         1 UNK         0.0559 
     88 H88        28.2212  -43.9524  -60.1201 H         1 UNK         0.0848 
     89 H89        28.8138  -45.4558  -60.8122 H         1 UNK         0.0848 
     90 H90        28.9458  -45.1770  -59.0834 H         1 UNK         0.0848 
     91 H91        27.7434  -47.2551  -58.5919 H         1 UNK         0.3144 
     92 H92        25.7781  -50.0982  -59.5449 H         1 UNK         0.0727 
     93 H93        28.8012  -49.6007  -59.6267 H         1 UNK         0.0790 
     94 H94        27.8285  -50.1877  -60.9678 H         1 UNK         0.0790 
     95 H95        28.0091  -51.1705  -59.5236 H         1 UNK         0.0790 
     96 H96        27.5858  -49.9040  -57.4284 H         1 UNK         0.3215 
     97 H97        25.2078  -48.8650  -54.9275 H         1 UNK         0.0863 
     98 H98        26.0673  -51.0290  -54.0739 H         1 UNK         0.0808 
     99 H99        26.7444  -51.4219  -55.6517 H         1 UNK         0.0808 
    100 H100       25.0024  -51.2931  -55.4450 H         1 UNK         0.0808 
    101 H101       28.1242  -49.2455  -55.5212 H         1 UNK         0.3118 
    102 H102       28.9207  -46.1309  -54.1885 H         1 UNK         0.0546 
    103 H103       29.4119  -48.7559  -52.6795 H         1 UNK         0.0828 
    104 H104       28.9153  -47.2170  -51.9846 H         1 UNK         0.0828 
    105 H105       30.5235  -47.3990  -52.6735 H         1 UNK         0.0828 
    106 H106       30.6489  -48.2331  -54.8808 H         1 UNK         0.3005 
    107 H107       30.3762  -48.2399  -58.4114 H         1 UNK         0.1257 
    108 H108       32.9379  -47.8137  -57.9047 H         1 UNK         0.0775 
    109 H109       32.3876  -46.7897  -56.6119 H         1 UNK         0.0775 
    110 H110       33.7224  -44.8148  -57.6942 H         1 UNK         0.0840 
    111 H111       32.8782  -43.7122  -58.7514 H         1 UNK         0.0840 
    112 H112       32.1884  -49.5827  -56.7957 H         1 UNK         0.2987 
    113 H113       30.3825  -51.9030  -55.0475 H         1 UNK         0.0785 
    114 H114       30.1392  -53.0922  -57.2376 H         1 UNK         0.0798 
    115 H115       31.4801  -53.7385  -56.3090 H         1 UNK         0.0798 
    116 H116       31.7868  -52.6578  -57.6701 H         1 UNK         0.0798 
    117 H117       33.1254  -51.9455  -55.6697 H         1 UNK         0.3079 
    118 H118       34.6079  -51.2558  -54.0033 H         1 UNK         0.0794 
    119 H119       35.9274  -49.3452  -54.9520 H         1 UNK         0.0786 
    120 H120       34.4404  -48.4549  -55.2681 H         1 UNK         0.0786 
    121 H121       34.7838  -49.9459  -56.1378 H         1 UNK         0.0786 
    122 H122       34.6963  -48.6250  -52.8198 H         1 UNK         0.3032 
    123 H123       33.7923  -49.6161  -49.5419 H         1 UNK         0.1094 
    124 H124       36.0484  -48.7355  -49.0146 H         1 UNK         0.0794 
    125 H125       36.1568  -50.3243  -49.7555 H         1 UNK         0.0794 
    126 H126       36.5330  -48.8933  -50.7018 H         1 UNK         0.0794 
    127 H127       33.2521  -47.5181  -49.8041 H         1 UNK         0.3016 
@<TRIPOS>BOND
     1    1    2 1    
     2    1   67 1    
     3    1   68 1    
     4    1   69 1    
     5    2    3 2    
     6    2    4 am   BACKBONE|DICT|INTERRES
     7    4    5 1    
     8    4   70 1    
     9    5    6 1    
    10    5   65 1    
    11    5   71 1    
    12    6    7 1    
    13    6   72 1    
    14    6   73 1    
    15    7    8 1    
    16    8    9 1    
    17    8   74 1    
    18    8   75 1    
    19    9   10 ar   
    20    9   14 ar   
    21   10   11 ar   
    22   10   76 1    
    23   11   12 ar   
    24   11   48 1    
    25   12   13 ar   
    26   12   77 1    
    27   13   14 ar   
    28   13   15 1    
    29   14   78 1    
    30   15   16 1    
    31   15   79 1    
    32   15   80 1    
    33   16   17 1    
    34   17   18 1    
    35   17   81 1    
    36   17   82 1    
    37   18   19 1    
    38   18   22 1    
    39   18   83 1    
    40   19   20 am   BACKBONE|DICT|INTERRES
    41   19   21 2    
    42   20   84 1    
    43   20   85 1    
    44   22   23 am   BACKBONE|DICT|INTERRES
    45   22   86 1    
    46   23   24 2    
    47   23   25 1    
    48   25   26 1    
    49   25   27 1    
    50   25   87 1    
    51   26   88 1    
    52   26   89 1    
    53   26   90 1    
    54   27   28 am   BACKBONE|DICT|INTERRES
    55   27   91 1    
    56   28   29 2    
    57   28   30 1    
    58   30   31 1    
    59   30   32 1    
    60   30   92 1    
    61   31   93 1    
    62   31   94 1    
    63   31   95 1    
    64   32   33 am   BACKBONE|DICT|INTERRES
    65   32   96 1    
    66   33   34 2    
    67   33   35 1    
    68   35   36 1    
    69   35   37 1    
    70   35   97 1    
    71   36   98 1    
    72   36   99 1    
    73   36  100 1    
    74   37   38 am   BACKBONE|DICT|INTERRES
    75   37  101 1    
    76   38   39 2    
    77   38   40 1    
    78   40   41 1    
    79   40   42 1    
    80   40  102 1    
    81   41  103 1    
    82   41  104 1    
    83   41  105 1    
    84   42   43 am   BACKBONE|DICT|INTERRES
    85   42  106 1    
    86   43   44 2    
    87   43   45 1    
    88   45   46 1    
    89   45   49 1    
    90   45  107 1    
    91   46   47 1    
    92   46  108 1    
    93   46  109 1    
    94   47   48 1    
    95   48  110 1    
    96   48  111 1    
    97   49   50 am   BACKBONE|DICT|INTERRES
    98   49  112 1    
    99   50   51 2    
   100   50   52 1    
   101   52   53 1    
   102   52   54 1    
   103   52  113 1    
   104   53  114 1    
   105   53  115 1    
   106   53  116 1    
   107   54   55 am   BACKBONE|DICT|INTERRES
   108   54  117 1    
   109   55   56 2    
   110   55   57 1    
   111   57   58 1    
   112   57   59 1    
   113   57  118 1    
   114   58  119 1    
   115   58  120 1    
   116   58  121 1    
   117   59   60 am   BACKBONE|DICT|INTERRES
   118   59  122 1    
   119   60   61 2    
   120   60   62 1    
   121   62   63 1    
   122   62   64 1    
   123   62  123 1    
   124   63  124 1    
   125   63  125 1    
   126   63  126 1    
   127   64   65 am   BACKBONE|DICT|INTERRES
   128   64  127 1    
   129   65   66 2    
@<TRIPOS>SUBSTRUCTURE
     1 UNK         1 GROUP             0       ****    0 ROOT    
