@<TRIPOS>MOLECULE
3R134
127   129    1
SMALL
USER_CHARGES


@<TRIPOS>ATOM
      1 CA         38.5734  -43.7649  -54.3180 C.3       0 UNK        -0.1968 
      2 C          37.3251  -44.6121  -54.1208 C.2       0 UNK         0.4852 
      3 O          37.4272  -45.7442  -53.6482 O.2       0 UNK        -0.5359 
      4 N          36.1556  -44.0804  -54.5036 N.am      1 UNK        -0.4300 
      5 CA         34.7996  -44.6427  -54.3704 C.3       1 UNK         0.0863 
      6 C6         34.3676  -44.8981  -52.9006 C.3       11 UNK        -0.0953 
      7 S7         34.1598  -43.3509  -51.9620 S.3       11 UNK        -0.2369 
      8 C8         32.5629  -43.6558  -51.1233 C.3       11 UNK         0.0226 
      9 C9         31.2954  -43.4824  -51.9685 C.ar      11 UNK        -0.0699 
     10 C10        30.0664  -43.4519  -51.3027 C.ar      11 UNK        -0.0804 
     11 C11        28.8737  -43.2547  -52.0026 C.ar      11 UNK        -0.0871 
     12 C12        28.9110  -43.0977  -53.3914 C.ar      11 UNK        -0.1008 
     13 C13        30.1235  -43.1625  -54.0851 C.ar      11 UNK        -0.0735 
     14 C14        31.3075  -43.3433  -53.3639 C.ar      11 UNK        -0.0945 
     15 C15        30.1825  -42.9649  -55.6002 C.3       11 UNK         0.0169 
     16 S16        28.8586  -43.8231  -56.5209 S.3       11 UNK        -0.2669 
     17 C17        29.4436  -45.5527  -56.5468 C.3       11 UNK        -0.0850 
     18 CA         29.6763  -46.1031  -57.9772 C.3       10 UNK         0.0855 
     19 C          30.3196  -47.5251  -57.9475 C.2       10 UNK         0.5543 
     20 N          29.7450  -48.5431  -58.5779 N.am      10 UNK        -0.7343 
     21 O          31.3782  -47.7095  -57.3539 O.2       10 UNK        -0.5027 
     22 N          28.4460  -46.0190  -58.7789 N.am      10 UNK        -0.4495 
     23 C          28.3925  -45.9680  -60.1145 C.2       10 UNK         0.4903 
     24 O          29.3877  -45.8854  -60.8364 O.2       10 UNK        -0.4860 
     25 CA         26.9824  -46.0283  -60.7429 C.3       9 UNK         0.0227 
     26 CB         27.0122  -46.4785  -62.2194 C.3       9 UNK        -0.1964 
     27 N          26.0232  -46.8433  -59.9777 N.am      9 UNK        -0.4231 
     28 C          26.1562  -48.1349  -59.6397 C.2       9 UNK         0.5014 
     29 O          27.1347  -48.8287  -59.9288 O.2       9 UNK        -0.5270 
     30 CA         24.9882  -48.7601  -58.8597 C.3       8 UNK         0.0284 
     31 CB         23.9802  -49.4031  -59.8263 C.3       8 UNK        -0.1977 
     32 N          25.4716  -49.7761  -57.9232 N.am      8 UNK        -0.4342 
     33 C          26.0996  -49.5027  -56.7737 C.2       8 UNK         0.5039 
     34 O          26.2498  -48.3597  -56.3320 O.2       8 UNK        -0.5547 
     35 CA         26.6720  -50.7115  -56.0175 C.3       7 UNK         0.0281 
     36 CB         28.0297  -51.1108  -56.6146 C.3       7 UNK        -0.1963 
     37 N          26.8737  -50.3617  -54.6150 N.am      7 UNK        -0.4444 
     38 C          26.2180  -50.8886  -53.5718 C.2       7 UNK         0.5104 
     39 O          25.4249  -51.8265  -53.6632 O.2       7 UNK        -0.5100 
     40 CA         26.4736  -50.2585  -52.1848 C.3       6 UNK         0.0396 
     41 CB         27.5163  -51.0777  -51.4081 C.3       6 UNK        -0.1801 
     42 N          26.9287  -48.8698  -52.2723 N.am      6 UNK        -0.4747 
     43 C          26.1925  -47.8555  -52.7487 C.2       6 UNK         0.5012 
     44 O          24.9726  -47.9326  -52.9060 O.2       6 UNK        -0.5003 
     45 CA         26.9326  -46.5678  -53.1855 C.3       5 UNK         0.0782 
     46 C46        26.2708  -45.2835  -52.6189 C.3       11 UNK        -0.0868 
     47 S47        26.8353  -44.8222  -50.9435 S.3       11 UNK        -0.2515 
     48 C48        27.5536  -43.1755  -51.2476 C.3       11 UNK         0.0199 
     49 N          28.3950  -46.5847  -52.9973 N.am      5 UNK        -0.4607 
     50 C          29.2584  -47.3844  -53.6364 C.2       4 UNK         0.5031 
     51 O          28.8960  -48.2341  -54.4510 O.2       4 UNK        -0.5119 
     52 CA         30.7543  -47.1838  -53.3221 C.3       4 UNK         0.0263 
     53 CB         31.0507  -47.2691  -51.8089 C.3       4 UNK        -0.1967 
     54 N          31.6192  -48.0919  -54.0894 N.am      4 UNK        -0.4237 
     55 C          31.6905  -49.4317  -54.0004 C.2       3 UNK         0.4908 
     56 O          31.1019  -50.0989  -53.1475 O.2       3 UNK        -0.5102 
     57 CA         32.5606  -50.1732  -55.0332 C.3       3 UNK         0.0241 
     58 CB         31.6860  -50.9744  -56.0106 C.3       3 UNK        -0.1971 
     59 N          33.4257  -49.2733  -55.8000 N.am      3 UNK        -0.4139 
     60 C          34.6870  -48.9801  -55.4592 C.2       2 UNK         0.5016 
     61 O          35.2651  -49.4736  -54.4893 O.2       2 UNK        -0.5319 
     62 CA         35.4432  -47.9482  -56.3156 C.3       2 UNK         0.0286 
     63 CB         34.9031  -47.7825  -57.7541 C.3       2 UNK        -0.1963 
     64 N          35.5217  -46.6612  -55.6180 N.am      2 UNK        -0.4790 
     65 C          34.4985  -45.8874  -55.2307 C.2       1 UNK         0.5024 
     66 O          33.3232  -46.1217  -55.5135 O.2       1 UNK        -0.4888 
     67 H67        39.2725  -44.2746  -54.9805 H         1 UNK         0.0892 
     68 H68        38.3433  -42.7917  -54.7513 H         1 UNK         0.0892 
     69 H69        39.0684  -43.6006  -53.3613 H         1 UNK         0.0892 
     70 H70        36.1739  -43.1577  -54.9157 H         1 UNK         0.3107 
     71 H71        34.1543  -43.8694  -54.7861 H         1 UNK         0.0773 
     72 H72        35.0875  -45.5319  -52.3811 H         1 UNK         0.0680 
     73 H73        33.4214  -45.4412  -52.8665 H         1 UNK         0.0680 
     74 H74        32.5724  -44.6588  -50.6947 H         1 UNK         0.0650 
     75 H75        32.5090  -42.9666  -50.2793 H         1 UNK         0.0650 
     76 H76        30.0385  -43.5622  -50.2268 H         1 UNK         0.1397 
     77 H77        27.9962  -42.9154  -53.9372 H         1 UNK         0.1363 
     78 H78        32.2383  -43.3534  -53.9035 H         1 UNK         0.1355 
     79 H79        30.1034  -41.8964  -55.8042 H         1 UNK         0.0707 
     80 H80        31.1485  -43.2815  -55.9976 H         1 UNK         0.0707 
     81 H81        30.3547  -45.6341  -55.9515 H         1 UNK         0.1034 
     82 H82        28.6858  -46.1577  -56.0508 H         1 UNK         0.1034 
     83 H83        30.4219  -45.4604  -58.4488 H         1 UNK         0.0482 
     84 H84        30.1961  -49.4414  -58.5627 H         1 UNK         0.3460 
     85 H85        28.8652  -48.4330  -59.0712 H         1 UNK         0.3460 
     86 H86        27.5811  -46.0983  -58.2650 H         1 UNK         0.2989 
     87 H87        26.6007  -45.0066  -60.7188 H         1 UNK         0.0559 
     88 H88        27.6156  -45.8012  -62.8251 H         1 UNK         0.0848 
     89 H89        26.0118  -46.4909  -62.6518 H         1 UNK         0.0848 
     90 H90        27.4369  -47.4771  -62.3281 H         1 UNK         0.0848 
     91 H91        25.1833  -46.3618  -59.6854 H         1 UNK         0.3144 
     92 H92        24.4785  -47.9783  -58.2920 H         1 UNK         0.0727 
     93 H93        24.4394  -50.1925  -60.4231 H         1 UNK         0.0790 
     94 H94        23.5776  -48.6640  -60.5203 H         1 UNK         0.0790 
     95 H95        23.1352  -49.8353  -59.2898 H         1 UNK         0.0790 
     96 H96        25.4379  -50.7331  -58.2438 H         1 UNK         0.3215 
     97 H97        25.9760  -51.5477  -56.1126 H         1 UNK         0.0863 
     98 H98        28.4531  -51.9725  -56.0986 H         1 UNK         0.0808 
     99 H99        28.7431  -50.2900  -56.5390 H         1 UNK         0.0808 
    100 H100       27.9406  -51.3716  -57.6699 H         1 UNK         0.0808 
    101 H101       27.4786  -49.5564  -54.4649 H         1 UNK         0.3118 
    102 H102       25.5338  -50.2774  -51.6292 H         1 UNK         0.0546 
    103 H103       28.4841  -51.0804  -51.9124 H         1 UNK         0.0828 
    104 H104       27.1989  -52.1164  -51.3064 H         1 UNK         0.0828 
    105 H105       27.6621  -50.6846  -50.4019 H         1 UNK         0.0828 
    106 H106       27.9232  -48.7183  -52.1851 H         1 UNK         0.3005 
    107 H107       26.7738  -46.5415  -54.2667 H         1 UNK         0.1257 
    108 H108       25.1823  -45.3646  -52.6015 H         1 UNK         0.0775 
    109 H109       26.4639  -44.4598  -53.3040 H         1 UNK         0.0775 
    110 H110       26.8369  -42.5551  -51.7882 H         1 UNK         0.0840 
    111 H111       27.7110  -42.6808  -50.2879 H         1 UNK         0.0840 
    112 H112       28.7469  -45.8971  -52.3453 H         1 UNK         0.2987 
    113 H113       31.0124  -46.1797  -53.6587 H         1 UNK         0.0785 
    114 H114       30.6936  -48.2031  -51.3743 H         1 UNK         0.0798 
    115 H115       32.1199  -47.1978  -51.6107 H         1 UNK         0.0798 
    116 H116       30.5710  -46.4562  -51.2636 H         1 UNK         0.0798 
    117 H117       32.1345  -47.6446  -54.8420 H         1 UNK         0.3079 
    118 H118       33.1709  -50.8887  -54.4779 H         1 UNK         0.0794 
    119 H119       32.2948  -51.5798  -56.6821 H         1 UNK         0.0786 
    120 H120       31.0671  -50.3182  -56.6199 H         1 UNK         0.0786 
    121 H121       31.0188  -51.6522  -55.4765 H         1 UNK         0.0786 
    122 H122       32.9839  -48.7585  -56.5568 H         1 UNK         0.3032 
    123 H123       36.4660  -48.3206  -56.3966 H         1 UNK         0.1094 
    124 H124       34.8230  -48.7470  -58.2574 H         1 UNK         0.0794 
    125 H125       33.9214  -47.3121  -57.7856 H         1 UNK         0.0794 
    126 H126       35.5757  -47.1663  -58.3507 H         1 UNK         0.0794 
    127 H127       36.4266  -46.4298  -55.2192 H         1 UNK         0.3016 
@<TRIPOS>BOND
     1    1    2 1    
     2    1   67 1    
     3    1   68 1    
     4    1   69 1    
     5    2    3 2    
     6    2    4 am   BACKBONE|DICT|INTERRES
     7    4    5 1    
     8    4   70 1    
     9    5    6 1    
    10    5   65 1    
    11    5   71 1    
    12    6    7 1    
    13    6   72 1    
    14    6   73 1    
    15    7    8 1    
    16    8    9 1    
    17    8   74 1    
    18    8   75 1    
    19    9   10 ar   
    20    9   14 ar   
    21   10   11 ar   
    22   10   76 1    
    23   11   12 ar   
    24   11   48 1    
    25   12   13 ar   
    26   12   77 1    
    27   13   14 ar   
    28   13   15 1    
    29   14   78 1    
    30   15   16 1    
    31   15   79 1    
    32   15   80 1    
    33   16   17 1    
    34   17   18 1    
    35   17   81 1    
    36   17   82 1    
    37   18   19 1    
    38   18   22 1    
    39   18   83 1    
    40   19   20 am   BACKBONE|DICT|INTERRES
    41   19   21 2    
    42   20   84 1    
    43   20   85 1    
    44   22   23 am   BACKBONE|DICT|INTERRES
    45   22   86 1    
    46   23   24 2    
    47   23   25 1    
    48   25   26 1    
    49   25   27 1    
    50   25   87 1    
    51   26   88 1    
    52   26   89 1    
    53   26   90 1    
    54   27   28 am   BACKBONE|DICT|INTERRES
    55   27   91 1    
    56   28   29 2    
    57   28   30 1    
    58   30   31 1    
    59   30   32 1    
    60   30   92 1    
    61   31   93 1    
    62   31   94 1    
    63   31   95 1    
    64   32   33 am   BACKBONE|DICT|INTERRES
    65   32   96 1    
    66   33   34 2    
    67   33   35 1    
    68   35   36 1    
    69   35   37 1    
    70   35   97 1    
    71   36   98 1    
    72   36   99 1    
    73   36  100 1    
    74   37   38 am   BACKBONE|DICT|INTERRES
    75   37  101 1    
    76   38   39 2    
    77   38   40 1    
    78   40   41 1    
    79   40   42 1    
    80   40  102 1    
    81   41  103 1    
    82   41  104 1    
    83   41  105 1    
    84   42   43 am   BACKBONE|DICT|INTERRES
    85   42  106 1    
    86   43   44 2    
    87   43   45 1    
    88   45   46 1    
    89   45   49 1    
    90   45  107 1    
    91   46   47 1    
    92   46  108 1    
    93   46  109 1    
    94   47   48 1    
    95   48  110 1    
    96   48  111 1    
    97   49   50 am   BACKBONE|DICT|INTERRES
    98   49  112 1    
    99   50   51 2    
   100   50   52 1    
   101   52   53 1    
   102   52   54 1    
   103   52  113 1    
   104   53  114 1    
   105   53  115 1    
   106   53  116 1    
   107   54   55 am   BACKBONE|DICT|INTERRES
   108   54  117 1    
   109   55   56 2    
   110   55   57 1    
   111   57   58 1    
   112   57   59 1    
   113   57  118 1    
   114   58  119 1    
   115   58  120 1    
   116   58  121 1    
   117   59   60 am   BACKBONE|DICT|INTERRES
   118   59  122 1    
   119   60   61 2    
   120   60   62 1    
   121   62   63 1    
   122   62   64 1    
   123   62  123 1    
   124   63  124 1    
   125   63  125 1    
   126   63  126 1    
   127   64   65 am   BACKBONE|DICT|INTERRES
   128   64  127 1    
   129   65   66 2    
@<TRIPOS>SUBSTRUCTURE
     1 UNK         1 GROUP             0       ****    0 ROOT    
