@<TRIPOS>MOLECULE
3R134
127   129    1
SMALL
USER_CHARGES


@<TRIPOS>ATOM
      1 CA         37.1718  -44.2609  -47.9154 C.3       0 UNK        -0.1968 
      2 C          36.4483  -44.5404  -49.2248 C.2       0 UNK         0.4852 
      3 O          36.9837  -44.2432  -50.2941 O.2       0 UNK        -0.5359 
      4 N          35.2341  -45.1012  -49.1493 N.am      1 UNK        -0.4300 
      5 CA         34.4245  -45.5011  -50.3022 C.3       1 UNK         0.0863 
      6 C6         32.9466  -45.7210  -49.8859 C.3       11 UNK        -0.0953 
      7 S7         31.8251  -45.9453  -51.3057 S.3       11 UNK        -0.2369 
      8 C8         31.2747  -44.2372  -51.6242 C.3       11 UNK         0.0226 
      9 C9         30.9237  -44.0421  -53.0928 C.ar      11 UNK        -0.0699 
     10 C10        31.9329  -44.1445  -54.0524 C.ar      11 UNK        -0.0804 
     11 C11        31.6383  -43.9971  -55.4066 C.ar      11 UNK        -0.0871 
     12 C12        30.3351  -43.6992  -55.7989 C.ar      11 UNK        -0.1008 
     13 C13        29.3019  -43.6119  -54.8607 C.ar      11 UNK        -0.0735 
     14 C14        29.6090  -43.7811  -53.5025 C.ar      11 UNK        -0.0945 
     15 C15        27.8463  -43.4184  -55.2952 C.3       11 UNK         0.0169 
     16 S16        27.5873  -42.2333  -56.6619 S.3       11 UNK        -0.2669 
     17 C17        27.8131  -43.2514  -58.1682 C.3       11 UNK        -0.0850 
     18 CA         26.4794  -43.7568  -58.7701 C.3       10 UNK         0.0855 
     19 C          26.6750  -44.2158  -60.2390 C.2       10 UNK         0.5543 
     20 N          26.1939  -43.4432  -61.2028 N.am      10 UNK        -0.7343 
     21 O          27.2995  -45.2393  -60.5099 O.2       10 UNK        -0.5027 
     22 N          25.9250  -44.8548  -57.9709 N.am      10 UNK        -0.4495 
     23 C          24.6296  -45.1876  -57.9461 C.2       10 UNK         0.4903 
     24 O          23.7447  -44.5423  -58.5117 O.2       10 UNK        -0.4860 
     25 CA         24.2738  -46.4550  -57.1485 C.3       9 UNK         0.0227 
     26 CB         22.7797  -46.8339  -57.2356 C.3       9 UNK        -0.1964 
     27 N          25.1280  -47.5959  -57.4970 N.am      9 UNK        -0.4231 
     28 C          25.2397  -48.2072  -58.6885 C.2       9 UNK         0.5014 
     29 O          24.5891  -47.8888  -59.6849 O.2       9 UNK        -0.5270 
     30 CA         26.2442  -49.3742  -58.8113 C.3       8 UNK         0.0284 
     31 CB         27.4130  -48.9735  -59.7263 C.3       8 UNK        -0.1977 
     32 N          26.7788  -49.8439  -57.5291 N.am      8 UNK        -0.4342 
     33 C          26.0855  -50.5300  -56.6096 C.2       8 UNK         0.5039 
     34 O          24.9381  -50.9416  -56.7830 O.2       8 UNK        -0.5547 
     35 CA         26.7661  -50.7416  -55.2448 C.3       7 UNK         0.0281 
     36 CB         27.5817  -52.0442  -55.2337 C.3       7 UNK        -0.1963 
     37 N          27.6232  -49.6174  -54.8507 N.am      7 UNK        -0.4444 
     38 C          27.1933  -48.3657  -54.6338 C.2       7 UNK         0.5104 
     39 O          26.0125  -48.0282  -54.6995 O.2       7 UNK        -0.5100 
     40 CA         28.2606  -47.2969  -54.3614 C.3       6 UNK         0.0396 
     41 CB         28.7327  -47.3508  -52.9034 C.3       6 UNK        -0.1801 
     42 N          29.3924  -47.4092  -55.2874 N.am      6 UNK        -0.4747 
     43 C          29.3280  -47.0765  -56.5873 C.2       6 UNK         0.5012 
     44 O          28.3405  -46.5412  -57.0952 O.2       6 UNK        -0.5003 
     45 CA         30.5124  -47.4787  -57.4973 C.3       5 UNK         0.0782 
     46 C46        31.4270  -46.2965  -57.9237 C.3       11 UNK        -0.0868 
     47 S47        32.8694  -45.9864  -56.8392 S.3       11 UNK        -0.2515 
     48 C48        32.7167  -44.2157  -56.4503 C.3       11 UNK         0.0199 
     49 N          31.2704  -48.6174  -56.9716 N.am      5 UNK        -0.4607 
     50 C          30.8338  -49.8810  -56.9657 C.2       4 UNK         0.5031 
     51 O          29.7458  -50.2272  -57.4253 O.2       4 UNK        -0.5119 
     52 CA         31.7481  -50.9143  -56.2873 C.3       4 UNK         0.0263 
     53 CB         32.9424  -51.2643  -57.1891 C.3       4 UNK        -0.1967 
     54 N          32.2335  -50.4753  -54.9735 N.am      4 UNK        -0.4237 
     55 C          31.4513  -50.2072  -53.9210 C.2       3 UNK         0.4908 
     56 O          30.2242  -50.2775  -53.9619 O.2       3 UNK        -0.5102 
     57 CA         32.1180  -49.7739  -52.6037 C.3       3 UNK         0.0241 
     58 CB         32.5047  -50.9998  -51.7546 C.3       3 UNK        -0.1971 
     59 N          33.2409  -48.8347  -52.7360 N.am      3 UNK        -0.4139 
     60 C          34.4579  -49.0337  -53.2641 C.2       2 UNK         0.5016 
     61 O          34.7917  -50.0723  -53.8360 O.2       2 UNK        -0.5319 
     62 CA         35.4746  -47.8790  -53.1585 C.3       2 UNK         0.0286 
     63 CB         35.8329  -47.3405  -54.5529 C.3       2 UNK        -0.1963 
     64 N          35.0171  -46.7619  -52.3232 N.am      2 UNK        -0.4790 
     65 C          35.0321  -46.7484  -50.9828 C.2       1 UNK         0.5024 
     66 O          35.4621  -47.6765  -50.2938 O.2       1 UNK        -0.4888 
     67 H67        36.5804  -44.5599  -47.0501 H         1 UNK         0.0892 
     68 H68        38.1154  -44.8051  -47.8851 H         1 UNK         0.0892 
     69 H69        37.3886  -43.1968  -47.8261 H         1 UNK         0.0892 
     70 H70        34.8613  -45.3517  -48.2446 H         1 UNK         0.3107 
     71 H71        34.4523  -44.6737  -51.0152 H         1 UNK         0.0773 
     72 H72        32.5898  -44.8734  -49.2982 H         1 UNK         0.0680 
     73 H73        32.8555  -46.5935  -49.2359 H         1 UNK         0.0680 
     74 H74        32.0669  -43.5361  -51.3579 H         1 UNK         0.0650 
     75 H75        30.4238  -44.0085  -50.9809 H         1 UNK         0.0650 
     76 H76        32.9440  -44.3721  -53.7459 H         1 UNK         0.1397 
     77 H77        30.1371  -43.5676  -56.8477 H         1 UNK         0.1363 
     78 H78        28.8212  -43.7287  -52.7638 H         1 UNK         0.1355 
     79 H79        27.4244  -44.3806  -55.5808 H         1 UNK         0.0707 
     80 H80        27.2565  -43.0694  -54.4464 H         1 UNK         0.0707 
     81 H81        28.3430  -42.6236  -58.8876 H         1 UNK         0.1034 
     82 H82        28.4649  -44.1022  -57.9802 H         1 UNK         0.1034 
     83 H83        25.7716  -42.9249  -58.7618 H         1 UNK         0.0482 
     84 H84        25.6862  -42.5986  -60.9892 H         1 UNK         0.3460 
     85 H85        26.3270  -43.7183  -62.1634 H         1 UNK         0.3460 
     86 H86        26.6053  -45.4801  -57.5517 H         1 UNK         0.2989 
     87 H87        24.4887  -46.2233  -56.1045 H         1 UNK         0.0559 
     88 H88        22.4698  -47.0379  -58.2609 H         1 UNK         0.0848 
     89 H89        22.1504  -46.0252  -56.8622 H         1 UNK         0.0848 
     90 H90        22.5602  -47.7176  -56.6365 H         1 UNK         0.0848 
     91 H91        25.6957  -47.9416  -56.7313 H         1 UNK         0.3144 
     92 H92        25.7175  -50.2088  -59.2786 H         1 UNK         0.0727 
     93 H93        28.1562  -49.7674  -59.8038 H         1 UNK         0.0790 
     94 H94        27.9103  -48.0727  -59.3674 H         1 UNK         0.0790 
     95 H95        27.0590  -48.7599  -60.7357 H         1 UNK         0.0790 
     96 H96        27.7541  -49.6411  -57.3345 H         1 UNK         0.3215 
     97 H97        25.9759  -50.8286  -54.4960 H         1 UNK         0.0863 
     98 H98        28.0097  -52.2351  -54.2494 H         1 UNK         0.0808 
     99 H99        28.4005  -52.0162  -55.9528 H         1 UNK         0.0808 
    100 H100       26.9539  -52.8995  -55.4868 H         1 UNK         0.0808 
    101 H101       28.6112  -49.8232  -54.7100 H         1 UNK         0.3118 
    102 H102       27.7942  -46.3233  -54.5098 H         1 UNK         0.0546 
    103 H103       27.8949  -47.2090  -52.2198 H         1 UNK         0.0828 
    104 H104       29.4475  -46.5581  -52.7006 H         1 UNK         0.0828 
    105 H105       29.1976  -48.3014  -52.6495 H         1 UNK         0.0828 
    106 H106       30.2218  -47.8729  -54.9485 H         1 UNK         0.3005 
    107 H107       30.0367  -47.8257  -58.4170 H         1 UNK         0.1257 
    108 H108       30.8484  -45.3844  -58.0701 H         1 UNK         0.0775 
    109 H109       31.8394  -46.5205  -58.9087 H         1 UNK         0.0775 
    110 H110       33.6740  -43.8509  -56.0750 H         1 UNK         0.0840 
    111 H111       32.5084  -43.6482  -57.3587 H         1 UNK         0.0840 
    112 H112       32.1746  -48.4006  -56.5769 H         1 UNK         0.2987 
    113 H113       31.1589  -51.8211  -56.1349 H         1 UNK         0.0785 
    114 H114       32.6054  -51.5992  -58.1712 H         1 UNK         0.0798 
    115 H115       33.5382  -52.0703  -56.7602 H         1 UNK         0.0798 
    116 H116       33.6005  -50.4082  -57.3430 H         1 UNK         0.0798 
    117 H117       33.2395  -50.4154  -54.8311 H         1 UNK         0.3079 
    118 H118       31.3585  -49.2269  -52.0433 H         1 UNK         0.0794 
    119 H119       33.2593  -51.6159  -52.2443 H         1 UNK         0.0786 
    120 H120       31.6371  -51.6356  -51.5726 H         1 UNK         0.0786 
    121 H121       32.8960  -50.7000  -50.7823 H         1 UNK         0.0786 
    122 H122       33.0726  -47.9210  -52.3362 H         1 UNK         0.3032 
    123 H123       36.3803  -48.2985  -52.7140 H         1 UNK         0.1094 
    124 H124       34.9702  -46.8927  -55.0442 H         1 UNK         0.0794 
    125 H125       36.6169  -46.5851  -54.4972 H         1 UNK         0.0794 
    126 H126       36.2003  -48.1373  -55.2013 H         1 UNK         0.0794 
    127 H127       34.6497  -45.9584  -52.8120 H         1 UNK         0.3016 
@<TRIPOS>BOND
     1    1    2 1    
     2    1   67 1    
     3    1   68 1    
     4    1   69 1    
     5    2    3 2    
     6    2    4 am   BACKBONE|DICT|INTERRES
     7    4    5 1    
     8    4   70 1    
     9    5    6 1    
    10    5   65 1    
    11    5   71 1    
    12    6    7 1    
    13    6   72 1    
    14    6   73 1    
    15    7    8 1    
    16    8    9 1    
    17    8   74 1    
    18    8   75 1    
    19    9   10 ar   
    20    9   14 ar   
    21   10   11 ar   
    22   10   76 1    
    23   11   12 ar   
    24   11   48 1    
    25   12   13 ar   
    26   12   77 1    
    27   13   14 ar   
    28   13   15 1    
    29   14   78 1    
    30   15   16 1    
    31   15   79 1    
    32   15   80 1    
    33   16   17 1    
    34   17   18 1    
    35   17   81 1    
    36   17   82 1    
    37   18   19 1    
    38   18   22 1    
    39   18   83 1    
    40   19   20 am   BACKBONE|DICT|INTERRES
    41   19   21 2    
    42   20   84 1    
    43   20   85 1    
    44   22   23 am   BACKBONE|DICT|INTERRES
    45   22   86 1    
    46   23   24 2    
    47   23   25 1    
    48   25   26 1    
    49   25   27 1    
    50   25   87 1    
    51   26   88 1    
    52   26   89 1    
    53   26   90 1    
    54   27   28 am   BACKBONE|DICT|INTERRES
    55   27   91 1    
    56   28   29 2    
    57   28   30 1    
    58   30   31 1    
    59   30   32 1    
    60   30   92 1    
    61   31   93 1    
    62   31   94 1    
    63   31   95 1    
    64   32   33 am   BACKBONE|DICT|INTERRES
    65   32   96 1    
    66   33   34 2    
    67   33   35 1    
    68   35   36 1    
    69   35   37 1    
    70   35   97 1    
    71   36   98 1    
    72   36   99 1    
    73   36  100 1    
    74   37   38 am   BACKBONE|DICT|INTERRES
    75   37  101 1    
    76   38   39 2    
    77   38   40 1    
    78   40   41 1    
    79   40   42 1    
    80   40  102 1    
    81   41  103 1    
    82   41  104 1    
    83   41  105 1    
    84   42   43 am   BACKBONE|DICT|INTERRES
    85   42  106 1    
    86   43   44 2    
    87   43   45 1    
    88   45   46 1    
    89   45   49 1    
    90   45  107 1    
    91   46   47 1    
    92   46  108 1    
    93   46  109 1    
    94   47   48 1    
    95   48  110 1    
    96   48  111 1    
    97   49   50 am   BACKBONE|DICT|INTERRES
    98   49  112 1    
    99   50   51 2    
   100   50   52 1    
   101   52   53 1    
   102   52   54 1    
   103   52  113 1    
   104   53  114 1    
   105   53  115 1    
   106   53  116 1    
   107   54   55 am   BACKBONE|DICT|INTERRES
   108   54  117 1    
   109   55   56 2    
   110   55   57 1    
   111   57   58 1    
   112   57   59 1    
   113   57  118 1    
   114   58  119 1    
   115   58  120 1    
   116   58  121 1    
   117   59   60 am   BACKBONE|DICT|INTERRES
   118   59  122 1    
   119   60   61 2    
   120   60   62 1    
   121   62   63 1    
   122   62   64 1    
   123   62  123 1    
   124   63  124 1    
   125   63  125 1    
   126   63  126 1    
   127   64   65 am   BACKBONE|DICT|INTERRES
   128   64  127 1    
   129   65   66 2    
@<TRIPOS>SUBSTRUCTURE
     1 UNK         1 GROUP             0       ****    0 ROOT    
