@<TRIPOS>MOLECULE
3R134
127   129    1
SMALL
USER_CHARGES


@<TRIPOS>ATOM
      1 CA         37.0834  -46.4142  -53.6194 C.3       0 UNK        -0.1968 
      2 C          35.6622  -46.5903  -53.1077 C.2       0 UNK         0.4852 
      3 O          35.2054  -47.7247  -52.9630 O.2       0 UNK        -0.5359 
      4 N          34.9758  -45.4786  -52.8057 N.am      1 UNK        -0.4300 
      5 CA         33.5678  -45.3717  -52.3813 C.3       1 UNK         0.0863 
      6 C6         33.1948  -43.8968  -52.0877 C.3       11 UNK        -0.0953 
      7 S7         33.3248  -42.8303  -53.5618 S.3       11 UNK        -0.2369 
      8 C8         31.5773  -42.4294  -53.8826 C.3       11 UNK         0.0226 
      9 C9         30.8419  -43.5764  -54.5607 C.ar      11 UNK        -0.0699 
     10 C10        30.1959  -44.5573  -53.8017 C.ar      11 UNK        -0.0804 
     11 C11        29.5068  -45.6004  -54.4272 C.ar      11 UNK        -0.0871 
     12 C12        29.4471  -45.6430  -55.8233 C.ar      11 UNK        -0.1008 
     13 C13        30.1007  -44.6787  -56.5936 C.ar      11 UNK        -0.0735 
     14 C14        30.7967  -43.6480  -55.9558 C.ar      11 UNK        -0.0945 
     15 C15        30.0982  -44.7656  -58.1120 C.3       11 UNK         0.0169 
     16 S16        29.0120  -43.5184  -58.8684 S.3       11 UNK        -0.2669 
     17 C17        27.4469  -44.4224  -59.1230 C.3       11 UNK        -0.0850 
     18 CA         26.2851  -43.8177  -58.2913 C.3       10 UNK         0.0855 
     19 C          24.9185  -44.0195  -59.0012 C.2       10 UNK         0.5543 
     20 N          24.5108  -43.0731  -59.8353 N.am      10 UNK        -0.7343 
     21 O          24.2521  -45.0392  -58.8445 O.2       10 UNK        -0.5027 
     22 N          26.2661  -44.3616  -56.9281 N.am      10 UNK        -0.4495 
     23 C          25.6554  -43.7743  -55.8914 C.2       10 UNK         0.4903 
     24 O          25.1603  -42.6463  -55.9364 O.2       10 UNK        -0.4860 
     25 CA         25.5870  -44.5956  -54.5886 C.3       9 UNK         0.0227 
     26 CB         24.6363  -43.9906  -53.5336 C.3       9 UNK        -0.1964 
     27 N          25.2732  -46.0076  -54.8386 N.am      9 UNK        -0.4231 
     28 C          24.1677  -46.5208  -55.3978 C.2       9 UNK         0.5014 
     29 O          23.1694  -45.8679  -55.7075 O.2       9 UNK        -0.5270 
     30 CA         24.2041  -48.0394  -55.6610 C.3       8 UNK         0.0284 
     31 CB         22.8211  -48.6852  -55.4583 C.3       8 UNK        -0.1977 
     32 N          24.6998  -48.3851  -56.9986 N.am      8 UNK        -0.4342 
     33 C          25.9005  -48.0727  -57.5025 C.2       8 UNK         0.5039 
     34 O          26.7418  -47.3823  -56.9167 O.2       8 UNK        -0.5547 
     35 CA         26.2430  -48.6505  -58.8820 C.3       7 UNK         0.0281 
     36 CB         25.5541  -47.8778  -60.0211 C.3       7 UNK        -0.1963 
     37 N          27.6919  -48.5811  -59.0215 N.am      7 UNK        -0.4444 
     38 C          28.4610  -49.2661  -59.8725 C.2       7 UNK         0.5104 
     39 O          28.0243  -50.0300  -60.7338 O.2       7 UNK        -0.5100 
     40 CA         29.9835  -49.0706  -59.7308 C.3       6 UNK         0.0396 
     41 CB         30.4782  -48.0034  -60.7207 C.3       6 UNK        -0.1801 
     42 N          30.3980  -48.7017  -58.3704 N.am      6 UNK        -0.4747 
     43 C          30.3688  -49.5341  -57.3194 C.2       6 UNK         0.5012 
     44 O          30.0431  -50.7206  -57.3955 O.2       6 UNK        -0.5003 
     45 CA         30.7480  -48.9445  -55.9486 C.3       5 UNK         0.0782 
     46 C46        29.5575  -49.0409  -54.9645 C.3       11 UNK        -0.0868 
     47 S47        29.8745  -48.1550  -53.4015 S.3       11 UNK        -0.2515 
     48 C48        28.8285  -46.6751  -53.5891 C.3       11 UNK         0.0199 
     49 N          31.9357  -49.6221  -55.4354 N.am      5 UNK        -0.4607 
     50 C          33.1820  -49.4004  -55.8630 C.2       4 UNK         0.5031 
     51 O          33.4653  -48.5621  -56.7207 O.2       4 UNK        -0.5119 
     52 CA         34.2867  -50.2498  -55.2102 C.3       4 UNK         0.0263 
     53 CB         35.6984  -49.8500  -55.6795 C.3       4 UNK        -0.1967 
     54 N          34.2319  -50.1725  -53.7475 N.am      4 UNK        -0.4237 
     55 C          33.4821  -50.9597  -52.9659 C.2       3 UNK         0.4908 
     56 O          32.6861  -51.7853  -53.4157 O.2       3 UNK        -0.5102 
     57 CA         33.6386  -50.8417  -51.4432 C.3       3 UNK         0.0241 
     58 CB         34.7509  -51.7881  -50.9505 C.3       3 UNK        -0.1971 
     59 N          33.8834  -49.4775  -50.9576 N.am      3 UNK        -0.4139 
     60 C          33.5732  -49.0779  -49.7126 C.2       2 UNK         0.5016 
     61 O          33.0160  -49.8030  -48.8861 O.2       2 UNK        -0.5319 
     62 CA         33.9559  -47.6489  -49.2793 C.3       2 UNK         0.0286 
     63 CB         35.2370  -47.6740  -48.4291 C.3       2 UNK        -0.1963 
     64 N          34.1461  -46.7194  -50.3911 N.am      2 UNK        -0.4790 
     65 C          33.1658  -46.2519  -51.1750 C.2       1 UNK         0.5024 
     66 O          31.9744  -46.4863  -50.9734 O.2       1 UNK        -0.4888 
     67 H67        37.7739  -47.0063  -53.0194 H         1 UNK         0.0892 
     68 H68        37.4060  -45.3740  -53.5794 H         1 UNK         0.0892 
     69 H69        37.1536  -46.7521  -54.6526 H         1 UNK         0.0892 
     70 H70        35.4288  -44.5865  -52.9459 H         1 UNK         0.3107 
     71 H71        32.9619  -45.7205  -53.2206 H         1 UNK         0.0773 
     72 H72        33.8510  -43.4879  -51.3170 H         1 UNK         0.0680 
     73 H73        32.1854  -43.8170  -51.6816 H         1 UNK         0.0680 
     74 H74        31.0800  -42.1514  -52.9522 H         1 UNK         0.0650 
     75 H75        31.5379  -41.5433  -54.5179 H         1 UNK         0.0650 
     76 H76        30.2330  -44.5150  -52.7221 H         1 UNK         0.1397 
     77 H77        28.9146  -46.4426  -56.3121 H         1 UNK         0.1363 
     78 H78        31.3032  -42.8988  -56.5491 H         1 UNK         0.1355 
     79 H79        29.8162  -45.7630  -58.4474 H         1 UNK         0.0707 
     80 H80        31.1141  -44.6038  -58.4757 H         1 UNK         0.0707 
     81 H81        27.5687  -45.4848  -58.9094 H         1 UNK         0.1034 
     82 H82        27.2366  -44.3625  -60.1931 H         1 UNK         0.1034 
     83 H83        26.4450  -42.7396  -58.2160 H         1 UNK         0.0482 
     84 H84        23.6349  -43.1927  -60.3197 H         1 UNK         0.3460 
     85 H85        25.0547  -42.2370  -59.9830 H         1 UNK         0.3460 
     86 H86        26.5739  -45.3224  -56.8268 H         1 UNK         0.2989 
     87 H87        26.5938  -44.5757  -54.1693 H         1 UNK         0.0559 
     88 H88        23.6127  -43.9190  -53.9024 H         1 UNK         0.0848 
     89 H89        24.9514  -42.9838  -53.2568 H         1 UNK         0.0848 
     90 H90        24.6238  -44.5870  -52.6215 H         1 UNK         0.0848 
     91 H91        26.0451  -46.6480  -54.7188 H         1 UNK         0.3144 
     92 H92        24.8833  -48.4906  -54.9344 H         1 UNK         0.0727 
     93 H93        22.8748  -49.7718  -55.5278 H         1 UNK         0.0790 
     94 H94        22.0987  -48.3361  -56.1975 H         1 UNK         0.0790 
     95 H95        22.4197  -48.4449  -54.4728 H         1 UNK         0.0790 
     96 H96        24.0697  -48.9252  -57.5739 H         1 UNK         0.3215 
     97 H97        25.9342  -49.6978  -58.9045 H         1 UNK         0.0863 
     98 H98        25.7409  -48.3458  -60.9875 H         1 UNK         0.0808 
     99 H99        25.9044  -46.8482  -60.0792 H         1 UNK         0.0808 
    100 H100       24.4728  -47.8464  -59.8820 H         1 UNK         0.0808 
    101 H101       28.1257  -48.0155  -58.3029 H         1 UNK         0.3118 
    102 H102       30.4633  -50.0178  -59.9865 H         1 UNK         0.0546 
    103 H103       30.2366  -48.2854  -61.7465 H         1 UNK         0.0828 
    104 H104       31.5602  -47.8814  -60.6680 H         1 UNK         0.0828 
    105 H105       30.0187  -47.0317  -60.5373 H         1 UNK         0.0828 
    106 H106       30.7462  -47.7629  -58.2425 H         1 UNK         0.3005 
    107 H107       31.0000  -47.8903  -56.0782 H         1 UNK         0.1257 
    108 H108       29.3461  -50.0844  -54.7228 H         1 UNK         0.0775 
    109 H109       28.6435  -48.6551  -55.4184 H         1 UNK         0.0775 
    110 H110       27.8694  -46.9509  -54.0258 H         1 UNK         0.0840 
    111 H111       28.6037  -46.2842  -52.5955 H         1 UNK         0.0840 
    112 H112       31.7872  -50.3447  -54.7417 H         1 UNK         0.2987 
    113 H113       34.1206  -51.2831  -55.5226 H         1 UNK         0.0785 
    114 H114       35.7979  -49.9629  -56.7599 H         1 UNK         0.0798 
    115 H115       36.4625  -50.4752  -55.2175 H         1 UNK         0.0798 
    116 H116       35.9238  -48.8112  -55.4384 H         1 UNK         0.0798 
    117 H117       34.7762  -49.4162  -53.3364 H         1 UNK         0.3079 
    118 H118       32.6908  -51.1877  -51.0240 H         1 UNK         0.0794 
    119 H119       35.7342  -51.4617  -51.2909 H         1 UNK         0.0786 
    120 H120       34.5961  -52.8029  -51.3200 H         1 UNK         0.0786 
    121 H121       34.7752  -51.8445  -49.8621 H         1 UNK         0.0786 
    122 H122       34.3143  -48.8144  -51.5961 H         1 UNK         0.3032 
    123 H123       33.1396  -47.2724  -48.6583 H         1 UNK         0.1094 
    124 H124       35.4784  -46.6830  -48.0440 H         1 UNK         0.0794 
    125 H125       35.1214  -48.3341  -47.5681 H         1 UNK         0.0794 
    126 H126       36.0941  -48.0322  -49.0009 H         1 UNK         0.0794 
    127 H127       35.0977  -46.4863  -50.6357 H         1 UNK         0.3016 
@<TRIPOS>BOND
     1    1    2 1    
     2    1   67 1    
     3    1   68 1    
     4    1   69 1    
     5    2    3 2    
     6    2    4 am   BACKBONE|DICT|INTERRES
     7    4    5 1    
     8    4   70 1    
     9    5    6 1    
    10    5   65 1    
    11    5   71 1    
    12    6    7 1    
    13    6   72 1    
    14    6   73 1    
    15    7    8 1    
    16    8    9 1    
    17    8   74 1    
    18    8   75 1    
    19    9   10 ar   
    20    9   14 ar   
    21   10   11 ar   
    22   10   76 1    
    23   11   12 ar   
    24   11   48 1    
    25   12   13 ar   
    26   12   77 1    
    27   13   14 ar   
    28   13   15 1    
    29   14   78 1    
    30   15   16 1    
    31   15   79 1    
    32   15   80 1    
    33   16   17 1    
    34   17   18 1    
    35   17   81 1    
    36   17   82 1    
    37   18   19 1    
    38   18   22 1    
    39   18   83 1    
    40   19   20 am   BACKBONE|DICT|INTERRES
    41   19   21 2    
    42   20   84 1    
    43   20   85 1    
    44   22   23 am   BACKBONE|DICT|INTERRES
    45   22   86 1    
    46   23   24 2    
    47   23   25 1    
    48   25   26 1    
    49   25   27 1    
    50   25   87 1    
    51   26   88 1    
    52   26   89 1    
    53   26   90 1    
    54   27   28 am   BACKBONE|DICT|INTERRES
    55   27   91 1    
    56   28   29 2    
    57   28   30 1    
    58   30   31 1    
    59   30   32 1    
    60   30   92 1    
    61   31   93 1    
    62   31   94 1    
    63   31   95 1    
    64   32   33 am   BACKBONE|DICT|INTERRES
    65   32   96 1    
    66   33   34 2    
    67   33   35 1    
    68   35   36 1    
    69   35   37 1    
    70   35   97 1    
    71   36   98 1    
    72   36   99 1    
    73   36  100 1    
    74   37   38 am   BACKBONE|DICT|INTERRES
    75   37  101 1    
    76   38   39 2    
    77   38   40 1    
    78   40   41 1    
    79   40   42 1    
    80   40  102 1    
    81   41  103 1    
    82   41  104 1    
    83   41  105 1    
    84   42   43 am   BACKBONE|DICT|INTERRES
    85   42  106 1    
    86   43   44 2    
    87   43   45 1    
    88   45   46 1    
    89   45   49 1    
    90   45  107 1    
    91   46   47 1    
    92   46  108 1    
    93   46  109 1    
    94   47   48 1    
    95   48  110 1    
    96   48  111 1    
    97   49   50 am   BACKBONE|DICT|INTERRES
    98   49  112 1    
    99   50   51 2    
   100   50   52 1    
   101   52   53 1    
   102   52   54 1    
   103   52  113 1    
   104   53  114 1    
   105   53  115 1    
   106   53  116 1    
   107   54   55 am   BACKBONE|DICT|INTERRES
   108   54  117 1    
   109   55   56 2    
   110   55   57 1    
   111   57   58 1    
   112   57   59 1    
   113   57  118 1    
   114   58  119 1    
   115   58  120 1    
   116   58  121 1    
   117   59   60 am   BACKBONE|DICT|INTERRES
   118   59  122 1    
   119   60   61 2    
   120   60   62 1    
   121   62   63 1    
   122   62   64 1    
   123   62  123 1    
   124   63  124 1    
   125   63  125 1    
   126   63  126 1    
   127   64   65 am   BACKBONE|DICT|INTERRES
   128   64  127 1    
   129   65   66 2    
@<TRIPOS>SUBSTRUCTURE
     1 UNK         1 GROUP             0       ****    0 ROOT    
