@<TRIPOS>MOLECULE
3R134
127   129    1
SMALL
USER_CHARGES


@<TRIPOS>ATOM
      1 CA         37.6930  -44.3375  -55.6533 C.3       0 UNK        -0.1968 
      2 C          36.4430  -44.6106  -54.8305 C.2       0 UNK         0.4852 
      3 O          35.7569  -45.6057  -55.0724 O.2       0 UNK        -0.5359 
      4 N          36.1471  -43.7438  -53.8522 N.am      1 UNK        -0.4300 
      5 CA         34.9835  -43.8142  -52.9593 C.3       1 UNK         0.0863 
      6 C6         34.6647  -42.4272  -52.3293 C.3       11 UNK        -0.0953 
      7 S7         34.0134  -41.2348  -53.5487 S.3       11 UNK        -0.2369 
      8 C8         32.2123  -41.4040  -53.2945 C.3       11 UNK         0.0226 
      9 C9         31.7611  -42.8307  -53.5653 C.ar      11 UNK        -0.0699 
     10 C10        31.5490  -43.7197  -52.5062 C.ar      11 UNK        -0.0804 
     11 C11        31.2960  -45.0737  -52.7461 C.ar      11 UNK        -0.0871 
     12 C12        31.2328  -45.5204  -54.0723 C.ar      11 UNK        -0.1008 
     13 C13        31.3619  -44.6276  -55.1381 C.ar      11 UNK        -0.0735 
     14 C14        31.6348  -43.2831  -54.8799 C.ar      11 UNK        -0.0945 
     15 C15        31.2031  -45.1188  -56.5691 C.3       11 UNK         0.0169 
     16 S16        29.4781  -45.5766  -56.9367 S.3       11 UNK        -0.2669 
     17 C17        28.5730  -44.0671  -56.4351 C.3       11 UNK        -0.0850 
     18 CA         27.2122  -43.8802  -57.1549 C.3       10 UNK         0.0855 
     19 C          27.3868  -43.3951  -58.6263 C.2       10 UNK         0.5543 
     20 N          26.8918  -44.0985  -59.6381 N.am      10 UNK        -0.7343 
     21 O          27.9746  -42.3402  -58.8529 O.2       10 UNK        -0.5027 
     22 N          26.3540  -45.0583  -56.9732 N.am      10 UNK        -0.4495 
     23 C          25.0269  -45.0953  -57.1363 C.2       10 UNK         0.4903 
     24 O          24.3320  -44.0971  -57.3336 O.2       10 UNK        -0.4860 
     25 CA         24.3843  -46.4978  -57.0981 C.3       9 UNK         0.0227 
     26 CB         22.9677  -46.5267  -57.7092 C.3       9 UNK        -0.1964 
     27 N          25.2358  -47.5274  -57.7132 N.am      9 UNK        -0.4231 
     28 C          25.7097  -47.5453  -58.9705 C.2       9 UNK         0.5014 
     29 O          25.4564  -46.6790  -59.8086 O.2       9 UNK        -0.5270 
     30 CA         26.6559  -48.6932  -59.3609 C.3       8 UNK         0.0284 
     31 CB         28.0787  -48.1625  -59.6036 C.3       8 UNK        -0.1977 
     32 N          26.7110  -49.7463  -58.3461 N.am      8 UNK        -0.4342 
     33 C          25.8919  -50.8043  -58.3074 C.2       8 UNK         0.5039 
     34 O          25.0161  -51.0294  -59.1437 O.2       8 UNK        -0.5547 
     35 CA         26.0728  -51.7657  -57.1242 C.3       7 UNK         0.0281 
     36 CB         27.3330  -52.6284  -57.3068 C.3       7 UNK        -0.1963 
     37 N          26.1323  -51.0658  -55.8388 N.am      7 UNK        -0.4444 
     38 C          25.0848  -50.4871  -55.2344 C.2       7 UNK         0.5104 
     39 O          23.9533  -50.4449  -55.7161 O.2       7 UNK        -0.5100 
     40 CA         25.3319  -49.8620  -53.8508 C.3       6 UNK         0.0396 
     41 CB         24.9515  -50.8564  -52.7423 C.3       6 UNK        -0.1801 
     42 N          26.7210  -49.4377  -53.6596 N.am      6 UNK        -0.4747 
     43 C          27.2118  -48.2637  -54.0796 C.2       6 UNK         0.5012 
     44 O          26.5459  -47.4092  -54.6647 O.2       6 UNK        -0.5003 
     45 CA         28.7149  -48.0314  -53.8401 C.3       5 UNK         0.0782 
     46 C46        29.0067  -47.7353  -52.3417 C.3       11 UNK        -0.0868 
     47 S47        30.7853  -47.7557  -51.9022 S.3       11 UNK        -0.2515 
     48 C48        31.1387  -46.0008  -51.5385 C.3       11 UNK         0.0199 
     49 N          29.5602  -49.1083  -54.3705 N.am      5 UNK        -0.4607 
     50 C          29.5769  -49.5683  -55.6281 C.2       4 UNK         0.5031 
     51 O          28.7255  -49.2840  -56.4702 O.2       4 UNK        -0.5119 
     52 CA         30.7133  -50.5369  -56.0127 C.3       4 UNK         0.0263 
     53 CB         31.1607  -50.3392  -57.4770 C.3       4 UNK        -0.1967 
     54 N          31.8740  -50.5281  -55.1068 N.am      4 UNK        -0.4237 
     55 C          32.7208  -49.5164  -54.8572 C.2       3 UNK         0.4908 
     56 O          32.6275  -48.3851  -55.3346 O.2       3 UNK        -0.5102 
     57 CA         33.8941  -49.8524  -53.9324 C.3       3 UNK         0.0241 
     58 CB         35.0448  -50.4980  -54.7282 C.3       3 UNK        -0.1971 
     59 N          34.3753  -48.6480  -53.2539 N.am      3 UNK        -0.4139 
     60 C          35.0050  -48.6631  -52.0703 C.2       2 UNK         0.5016 
     61 O          35.2032  -49.6993  -51.4326 O.2       2 UNK        -0.5319 
     62 CA         35.5217  -47.3395  -51.4789 C.3       2 UNK         0.0286 
     63 CB         37.0214  -47.4311  -51.1301 C.3       2 UNK        -0.1963 
     64 N          35.2970  -46.1752  -52.3385 N.am      2 UNK        -0.4790 
     65 C          35.1347  -44.9238  -51.8921 C.2       1 UNK         0.5024 
     66 O          35.1212  -44.6347  -50.6938 O.2       1 UNK        -0.4888 
     67 H67        38.2011  -43.4274  -55.3348 H         1 UNK         0.0892 
     68 H68        38.3924  -45.1677  -55.5589 H         1 UNK         0.0892 
     69 H69        37.4318  -44.2294  -56.7056 H         1 UNK         0.0892 
     70 H70        36.7597  -42.9565  -53.6944 H         1 UNK         0.3107 
     71 H71        34.1318  -44.1158  -53.5694 H         1 UNK         0.0773 
     72 H72        35.5591  -42.0022  -51.8708 H         1 UNK         0.0680 
     73 H73        33.9353  -42.5103  -51.5222 H         1 UNK         0.0680 
     74 H74        31.9569  -41.1008  -52.2780 H         1 UNK         0.0650 
     75 H75        31.6901  -40.7180  -53.9629 H         1 UNK         0.0650 
     76 H76        31.6362  -43.3668  -51.4875 H         1 UNK         0.1397 
     77 H77        31.0779  -46.5629  -54.3000 H         1 UNK         0.1363 
     78 H78        31.7821  -42.5936  -55.6999 H         1 UNK         0.1355 
     79 H79        31.5304  -44.3596  -57.2810 H         1 UNK         0.0707 
     80 H80        31.8432  -45.9884  -56.7271 H         1 UNK         0.0707 
     81 H81        28.4079  -44.1234  -55.3578 H         1 UNK         0.1034 
     82 H82        29.2074  -43.1916  -56.5857 H         1 UNK         0.1034 
     83 H83        26.7083  -43.0541  -56.6498 H         1 UNK         0.0482 
     84 H84        26.3857  -44.9643  -59.4857 H         1 UNK         0.3460 
     85 H85        27.0151  -43.7551  -60.5767 H         1 UNK         0.3460 
     86 H86        26.8406  -45.9260  -56.7948 H         1 UNK         0.2989 
     87 H87        24.2925  -46.7641  -56.0444 H         1 UNK         0.0559 
     88 H88        22.9714  -46.2181  -58.7551 H         1 UNK         0.0848 
     89 H89        22.2968  -45.8535  -57.1742 H         1 UNK         0.0848 
     90 H90        22.5336  -47.5251  -57.6550 H         1 UNK         0.0848 
     91 H91        25.5328  -48.2706  -57.0969 H         1 UNK         0.3144 
     92 H92        26.2885  -49.1105  -60.3009 H         1 UNK         0.0727 
     93 H93        28.5074  -47.7324  -58.6988 H         1 UNK         0.0790 
     94 H94        28.0848  -47.3847  -60.3684 H         1 UNK         0.0790 
     95 H95        28.7451  -48.9559  -59.9422 H         1 UNK         0.0790 
     96 H96        27.4215  -49.6354  -57.6201 H         1 UNK         0.3215 
     97 H97        25.2084  -52.4335  -57.1044 H         1 UNK         0.0863 
     98 H98        27.4396  -53.3530  -56.4994 H         1 UNK         0.0808 
     99 H99        28.2401  -52.0248  -57.3402 H         1 UNK         0.0808 
    100 H100       27.2849  -53.1910  -58.2402 H         1 UNK         0.0808 
    101 H101       27.0312  -51.0127  -55.3845 H         1 UNK         0.3118 
    102 H102       24.6773  -48.9922  -53.7595 H         1 UNK         0.0546 
    103 H103       25.5679  -51.7557  -52.7735 H         1 UNK         0.0828 
    104 H104       23.9117  -51.1714  -52.8414 H         1 UNK         0.0828 
    105 H105       25.0589  -50.4091  -51.7541 H         1 UNK         0.0828 
    106 H106       27.3420  -50.0831  -53.1918 H         1 UNK         0.3005 
    107 H107       28.9598  -47.1379  -54.4148 H         1 UNK         0.1257 
    108 H108       28.5247  -48.4772  -51.7022 H         1 UNK         0.0775 
    109 H109       28.5721  -46.7743  -52.0606 H         1 UNK         0.0775 
    110 H110       30.3608  -45.6115  -50.8801 H         1 UNK         0.0840 
    111 H111       32.0667  -45.9668  -50.9655 H         1 UNK         0.0840 
    112 H112       30.3002  -49.4069  -53.7522 H         1 UNK         0.2987 
    113 H113       30.2849  -51.5369  -55.9352 H         1 UNK         0.0785 
    114 H114       30.3332  -50.5029  -58.1686 H         1 UNK         0.0798 
    115 H115       31.9507  -51.0385  -57.7499 H         1 UNK         0.0798 
    116 H116       31.5308  -49.3282  -57.6515 H         1 UNK         0.0798 
    117 H117       32.0568  -51.4107  -54.6483 H         1 UNK         0.3079 
    118 H118       33.5322  -50.5617  -53.1844 H         1 UNK         0.0794 
    119 H119       34.7086  -51.3912  -55.2564 H         1 UNK         0.0786 
    120 H120       35.8618  -50.8007  -54.0730 H         1 UNK         0.0786 
    121 H121       35.4503  -49.8111  -55.4724 H         1 UNK         0.0786 
    122 H122       34.1584  -47.7777  -53.7225 H         1 UNK         0.3032 
    123 H123       34.9617  -47.2029  -50.5507 H         1 UNK         0.1094 
    124 H124       37.3681  -46.5330  -50.6188 H         1 UNK         0.0794 
    125 H125       37.2244  -48.2725  -50.4662 H         1 UNK         0.0794 
    126 H126       37.6315  -47.5647  -52.0240 H         1 UNK         0.0794 
    127 H127       35.3714  -46.3041  -53.3456 H         1 UNK         0.3016 
@<TRIPOS>BOND
     1    1    2 1    
     2    1   67 1    
     3    1   68 1    
     4    1   69 1    
     5    2    3 2    
     6    2    4 am   BACKBONE|DICT|INTERRES
     7    4    5 1    
     8    4   70 1    
     9    5    6 1    
    10    5   65 1    
    11    5   71 1    
    12    6    7 1    
    13    6   72 1    
    14    6   73 1    
    15    7    8 1    
    16    8    9 1    
    17    8   74 1    
    18    8   75 1    
    19    9   10 ar   
    20    9   14 ar   
    21   10   11 ar   
    22   10   76 1    
    23   11   12 ar   
    24   11   48 1    
    25   12   13 ar   
    26   12   77 1    
    27   13   14 ar   
    28   13   15 1    
    29   14   78 1    
    30   15   16 1    
    31   15   79 1    
    32   15   80 1    
    33   16   17 1    
    34   17   18 1    
    35   17   81 1    
    36   17   82 1    
    37   18   19 1    
    38   18   22 1    
    39   18   83 1    
    40   19   20 am   BACKBONE|DICT|INTERRES
    41   19   21 2    
    42   20   84 1    
    43   20   85 1    
    44   22   23 am   BACKBONE|DICT|INTERRES
    45   22   86 1    
    46   23   24 2    
    47   23   25 1    
    48   25   26 1    
    49   25   27 1    
    50   25   87 1    
    51   26   88 1    
    52   26   89 1    
    53   26   90 1    
    54   27   28 am   BACKBONE|DICT|INTERRES
    55   27   91 1    
    56   28   29 2    
    57   28   30 1    
    58   30   31 1    
    59   30   32 1    
    60   30   92 1    
    61   31   93 1    
    62   31   94 1    
    63   31   95 1    
    64   32   33 am   BACKBONE|DICT|INTERRES
    65   32   96 1    
    66   33   34 2    
    67   33   35 1    
    68   35   36 1    
    69   35   37 1    
    70   35   97 1    
    71   36   98 1    
    72   36   99 1    
    73   36  100 1    
    74   37   38 am   BACKBONE|DICT|INTERRES
    75   37  101 1    
    76   38   39 2    
    77   38   40 1    
    78   40   41 1    
    79   40   42 1    
    80   40  102 1    
    81   41  103 1    
    82   41  104 1    
    83   41  105 1    
    84   42   43 am   BACKBONE|DICT|INTERRES
    85   42  106 1    
    86   43   44 2    
    87   43   45 1    
    88   45   46 1    
    89   45   49 1    
    90   45  107 1    
    91   46   47 1    
    92   46  108 1    
    93   46  109 1    
    94   47   48 1    
    95   48  110 1    
    96   48  111 1    
    97   49   50 am   BACKBONE|DICT|INTERRES
    98   49  112 1    
    99   50   51 2    
   100   50   52 1    
   101   52   53 1    
   102   52   54 1    
   103   52  113 1    
   104   53  114 1    
   105   53  115 1    
   106   53  116 1    
   107   54   55 am   BACKBONE|DICT|INTERRES
   108   54  117 1    
   109   55   56 2    
   110   55   57 1    
   111   57   58 1    
   112   57   59 1    
   113   57  118 1    
   114   58  119 1    
   115   58  120 1    
   116   58  121 1    
   117   59   60 am   BACKBONE|DICT|INTERRES
   118   59  122 1    
   119   60   61 2    
   120   60   62 1    
   121   62   63 1    
   122   62   64 1    
   123   62  123 1    
   124   63  124 1    
   125   63  125 1    
   126   63  126 1    
   127   64   65 am   BACKBONE|DICT|INTERRES
   128   64  127 1    
   129   65   66 2    
@<TRIPOS>SUBSTRUCTURE
     1 UNK         1 GROUP             0       ****    0 ROOT    
