@<TRIPOS>MOLECULE
3R134
127   129    1
SMALL
USER_CHARGES


@<TRIPOS>ATOM
      1 CA         30.4246  -49.7900  -57.5139 C.3       0 UNK        -0.1968 
      2 C          30.8970  -48.7132  -56.5513 C.2       0 UNK         0.4852 
      3 O          30.2000  -48.4142  -55.5796 O.2       0 UNK        -0.5359 
      4 N          32.0874  -48.1642  -56.8093 N.am      1 UNK        -0.4300 
      5 CA         32.7756  -47.1605  -55.9923 C.3       1 UNK         0.0863 
      6 C6         33.3989  -46.0510  -56.8849 C.3       11 UNK        -0.0953 
      7 S7         32.1619  -45.1906  -57.9129 S.3       11 UNK        -0.2369 
      8 C8         31.9092  -43.6466  -56.9860 C.3       11 UNK         0.0226 
      9 C9         31.2258  -43.8888  -55.6487 C.ar      11 UNK        -0.0699 
     10 C10        31.9626  -43.8691  -54.4610 C.ar      11 UNK        -0.0804 
     11 C11        31.3299  -44.0788  -53.2320 C.ar      11 UNK        -0.0871 
     12 C12        29.9436  -44.2603  -53.1906 C.ar      11 UNK        -0.1008 
     13 C13        29.2038  -44.3111  -54.3735 C.ar      11 UNK        -0.0735 
     14 C14        29.8512  -44.1328  -55.5989 C.ar      11 UNK        -0.0945 
     15 C15        27.7106  -44.5848  -54.3436 C.3       11 UNK         0.0169 
     16 S16        26.7741  -43.0653  -54.7019 S.3       11 UNK        -0.2669 
     17 C17        25.1376  -43.6922  -55.2314 C.3       11 UNK        -0.0850 
     18 CA         25.1534  -44.7368  -56.3929 C.3       10 UNK         0.0855 
     19 C          23.7422  -45.1336  -56.9234 C.2       10 UNK         0.5543 
     20 N          22.6918  -45.0139  -56.1211 N.am      10 UNK        -0.7343 
     21 O          23.5946  -45.6131  -58.0459 O.2       10 UNK        -0.5027 
     22 N          26.1003  -44.3986  -57.4670 N.am      10 UNK        -0.4495 
     23 C          26.0267  -43.3583  -58.3090 C.2       10 UNK         0.4903 
     24 O          25.1335  -42.5107  -58.2825 O.2       10 UNK        -0.4860 
     25 CA         27.1493  -43.2268  -59.3587 C.3       9 UNK         0.0227 
     26 CB         28.1949  -42.1958  -58.9022 C.3       9 UNK        -0.1964 
     27 N          27.8151  -44.5026  -59.6383 N.am      9 UNK        -0.4231 
     28 C          27.2850  -45.4836  -60.3804 C.2       9 UNK         0.5014 
     29 O          26.2430  -45.3703  -61.0274 O.2       9 UNK        -0.5270 
     30 CA         28.0091  -46.8417  -60.3680 C.3       8 UNK         0.0284 
     31 CB         29.5452  -46.7341  -60.2416 C.3       8 UNK        -0.1977 
     32 N          27.4437  -47.7222  -59.3383 N.am      8 UNK        -0.4342 
     33 C          27.4324  -47.5156  -58.0133 C.2       8 UNK         0.5039 
     34 O          27.9804  -46.5574  -57.4640 O.2       8 UNK        -0.5547 
     35 CA         26.6449  -48.5154  -57.1569 C.3       7 UNK         0.0281 
     36 CB         26.6101  -49.9508  -57.7271 C.3       7 UNK        -0.1963 
     37 N          27.1745  -48.5217  -55.7918 N.am      7 UNK        -0.4444 
     38 C          26.4359  -48.7931  -54.7084 C.2       7 UNK         0.5104 
     39 O          25.2292  -49.0357  -54.7640 O.2       7 UNK        -0.5100 
     40 CA         27.1144  -48.8188  -53.3291 C.3       6 UNK         0.0396 
     41 CB         27.0573  -50.2317  -52.7178 C.3       6 UNK        -0.1801 
     42 N          28.5038  -48.3570  -53.3315 N.am      6 UNK        -0.4747 
     43 C          29.0883  -47.7271  -52.3042 C.2       6 UNK         0.5012 
     44 O          28.4852  -47.3801  -51.2863 O.2       6 UNK        -0.5003 
     45 CA         30.6102  -47.4925  -52.4321 C.3       5 UNK         0.0782 
     46 C46        31.2175  -46.7182  -51.2249 C.3       11 UNK        -0.0868 
     47 S47        32.7571  -45.8480  -51.6677 S.3       11 UNK        -0.2515 
     48 C48        32.1520  -44.1514  -51.9551 C.3       11 UNK         0.0199 
     49 N          31.3061  -48.7515  -52.7413 N.am      5 UNK        -0.4607 
     50 C          31.3189  -49.8642  -51.9920 C.2       4 UNK         0.5031 
     51 O          30.8341  -49.9504  -50.8640 O.2       4 UNK        -0.5119 
     52 CA         31.9774  -51.0999  -52.6193 C.3       4 UNK         0.0263 
     53 CB         31.3720  -51.4529  -53.9895 C.3       4 UNK        -0.1967 
     54 N          33.4187  -50.8999  -52.7501 N.am      4 UNK        -0.4237 
     55 C          34.3128  -51.2319  -51.8080 C.2       3 UNK         0.4908 
     56 O          34.0214  -51.7938  -50.7512 O.2       3 UNK        -0.5102 
     57 CA         35.7893  -50.8983  -52.0861 C.3       3 UNK         0.0241 
     58 CB         36.5118  -52.1147  -52.6881 C.3       3 UNK        -0.1971 
     59 N          35.9670  -49.7465  -52.9715 N.am      3 UNK        -0.4139 
     60 C          35.6967  -48.4777  -52.6370 C.2       2 UNK         0.5016 
     61 O          35.3114  -48.1344  -51.5199 O.2       2 UNK        -0.5319 
     62 CA         35.9108  -47.4082  -53.7245 C.3       2 UNK         0.0286 
     63 CB         37.0269  -47.7752  -54.7289 C.3       2 UNK        -0.1963 
     64 N          34.6850  -47.0430  -54.4480 N.am      2 UNK        -0.4790 
     65 C          33.8521  -47.8513  -55.1218 C.2       1 UNK         0.5024 
     66 O          33.9237  -49.0836  -55.0894 O.2       1 UNK        -0.4888 
     67 H67        29.7952  -49.3529  -58.2871 H         1 UNK         0.0892 
     68 H68        31.2638  -50.2886  -57.9986 H         1 UNK         0.0892 
     69 H69        29.8505  -50.5470  -56.9806 H         1 UNK         0.0892 
     70 H70        32.6165  -48.4973  -57.6019 H         1 UNK         0.3107 
     71 H71        32.0629  -46.6930  -55.3112 H         1 UNK         0.0773 
     72 H72        33.9247  -45.3036  -56.2899 H         1 UNK         0.0680 
     73 H73        34.1471  -46.4781  -57.5555 H         1 UNK         0.0680 
     74 H74        31.2952  -42.9749  -57.5876 H         1 UNK         0.0650 
     75 H75        32.8668  -43.1418  -56.8494 H         1 UNK         0.0650 
     76 H76        33.0310  -43.7067  -54.4930 H         1 UNK         0.1397 
     77 H77        29.4453  -44.4066  -52.2421 H         1 UNK         0.1363 
     78 H78        29.2796  -44.1857  -56.5144 H         1 UNK         0.1355 
     79 H79        27.4008  -44.9830  -53.3761 H         1 UNK         0.0707 
     80 H80        27.5012  -45.3611  -55.0770 H         1 UNK         0.0707 
     81 H81        24.5432  -42.8247  -55.5241 H         1 UNK         0.1034 
     82 H82        24.6471  -44.1124  -54.3521 H         1 UNK         0.1034 
     83 H83        25.5276  -45.6727  -55.9802 H         1 UNK         0.0482 
     84 H84        21.7860  -45.2945  -56.4634 H         1 UNK         0.3460 
     85 H85        22.7787  -44.6503  -55.1858 H         1 UNK         0.3460 
     86 H86        26.8674  -45.0570  -57.5755 H         1 UNK         0.2989 
     87 H87        26.6974  -42.8620  -60.2836 H         1 UNK         0.0559 
     88 H88        27.7348  -41.2176  -58.7562 H         1 UNK         0.0848 
     89 H89        28.9853  -42.0735  -59.6429 H         1 UNK         0.0848 
     90 H90        28.6583  -42.4762  -57.9567 H         1 UNK         0.0848 
     91 H91        28.6444  -44.7191  -59.1026 H         1 UNK         0.3144 
     92 H92        27.7972  -47.3113  -61.3301 H         1 UNK         0.0727 
     93 H93        30.0174  -47.7030  -60.4029 H         1 UNK         0.0790 
     94 H94        29.8613  -46.3797  -59.2617 H         1 UNK         0.0790 
     95 H95        29.9542  -46.0502  -60.9865 H         1 UNK         0.0790 
     96 H96        26.9323  -48.5189  -59.6918 H         1 UNK         0.3215 
     97 H97        25.6219  -48.1328  -57.1349 H         1 UNK         0.0863 
     98 H98        26.0722  -50.6262  -57.0616 H         1 UNK         0.0808 
     99 H99        27.6092  -50.3598  -57.8690 H         1 UNK         0.0808 
    100 H100       26.0947  -49.9906  -58.6870 H         1 UNK         0.0808 
    101 H101       28.1481  -48.2452  -55.7052 H         1 UNK         0.3118 
    102 H102       26.5189  -48.1512  -52.7028 H         1 UNK         0.0546 
    103 H103       26.0328  -50.6040  -52.6768 H         1 UNK         0.0828 
    104 H104       27.4424  -50.2398  -51.6979 H         1 UNK         0.0828 
    105 H105       27.6415  -50.9438  -53.3015 H         1 UNK         0.0828 
    106 H106       29.0757  -48.5754  -54.1463 H         1 UNK         0.3005 
    107 H107       30.7168  -46.8700  -53.3202 H         1 UNK         0.1257 
    108 H108       31.4238  -47.3916  -50.3923 H         1 UNK         0.0775 
    109 H109       30.5246  -45.9759  -50.8273 H         1 UNK         0.0775 
    110 H110       31.5689  -43.8111  -51.0979 H         1 UNK         0.0840 
    111 H111       33.0075  -43.4779  -52.0254 H         1 UNK         0.0840 
    112 H112       31.6880  -48.8108  -53.6740 H         1 UNK         0.2987 
    113 H113       31.7798  -51.9445  -51.9551 H         1 UNK         0.0785 
    114 H114       31.6743  -52.4527  -54.3013 H         1 UNK         0.0798 
    115 H115       31.6909  -50.7613  -54.7666 H         1 UNK         0.0798 
    116 H116       30.2815  -51.4395  -53.9581 H         1 UNK         0.0798 
    117 H117       33.7406  -50.3994  -53.5731 H         1 UNK         0.3079 
    118 H118       36.2575  -50.6628  -51.1278 H         1 UNK         0.0794 
    119 H119       36.4210  -52.9844  -52.0356 H         1 UNK         0.0786 
    120 H120       37.5765  -51.9200  -52.8185 H         1 UNK         0.0786 
    121 H121       36.0981  -52.3912  -53.6588 H         1 UNK         0.0786 
    122 H122       36.2549  -49.9372  -53.9206 H         1 UNK         0.3032 
    123 H123       36.2350  -46.5104  -53.1949 H         1 UNK         0.1094 
    124 H124       37.2708  -46.9247  -55.3658 H         1 UNK         0.0794 
    125 H125       37.9453  -48.0583  -54.2122 H         1 UNK         0.0794 
    126 H126       36.7457  -48.6010  -55.3831 H         1 UNK         0.0794 
    127 H127       34.4937  -46.0515  -54.4701 H         1 UNK         0.3016 
@<TRIPOS>BOND
     1    1    2 1    
     2    1   67 1    
     3    1   68 1    
     4    1   69 1    
     5    2    3 2    
     6    2    4 am   BACKBONE|DICT|INTERRES
     7    4    5 1    
     8    4   70 1    
     9    5    6 1    
    10    5   65 1    
    11    5   71 1    
    12    6    7 1    
    13    6   72 1    
    14    6   73 1    
    15    7    8 1    
    16    8    9 1    
    17    8   74 1    
    18    8   75 1    
    19    9   10 ar   
    20    9   14 ar   
    21   10   11 ar   
    22   10   76 1    
    23   11   12 ar   
    24   11   48 1    
    25   12   13 ar   
    26   12   77 1    
    27   13   14 ar   
    28   13   15 1    
    29   14   78 1    
    30   15   16 1    
    31   15   79 1    
    32   15   80 1    
    33   16   17 1    
    34   17   18 1    
    35   17   81 1    
    36   17   82 1    
    37   18   19 1    
    38   18   22 1    
    39   18   83 1    
    40   19   20 am   BACKBONE|DICT|INTERRES
    41   19   21 2    
    42   20   84 1    
    43   20   85 1    
    44   22   23 am   BACKBONE|DICT|INTERRES
    45   22   86 1    
    46   23   24 2    
    47   23   25 1    
    48   25   26 1    
    49   25   27 1    
    50   25   87 1    
    51   26   88 1    
    52   26   89 1    
    53   26   90 1    
    54   27   28 am   BACKBONE|DICT|INTERRES
    55   27   91 1    
    56   28   29 2    
    57   28   30 1    
    58   30   31 1    
    59   30   32 1    
    60   30   92 1    
    61   31   93 1    
    62   31   94 1    
    63   31   95 1    
    64   32   33 am   BACKBONE|DICT|INTERRES
    65   32   96 1    
    66   33   34 2    
    67   33   35 1    
    68   35   36 1    
    69   35   37 1    
    70   35   97 1    
    71   36   98 1    
    72   36   99 1    
    73   36  100 1    
    74   37   38 am   BACKBONE|DICT|INTERRES
    75   37  101 1    
    76   38   39 2    
    77   38   40 1    
    78   40   41 1    
    79   40   42 1    
    80   40  102 1    
    81   41  103 1    
    82   41  104 1    
    83   41  105 1    
    84   42   43 am   BACKBONE|DICT|INTERRES
    85   42  106 1    
    86   43   44 2    
    87   43   45 1    
    88   45   46 1    
    89   45   49 1    
    90   45  107 1    
    91   46   47 1    
    92   46  108 1    
    93   46  109 1    
    94   47   48 1    
    95   48  110 1    
    96   48  111 1    
    97   49   50 am   BACKBONE|DICT|INTERRES
    98   49  112 1    
    99   50   51 2    
   100   50   52 1    
   101   52   53 1    
   102   52   54 1    
   103   52  113 1    
   104   53  114 1    
   105   53  115 1    
   106   53  116 1    
   107   54   55 am   BACKBONE|DICT|INTERRES
   108   54  117 1    
   109   55   56 2    
   110   55   57 1    
   111   57   58 1    
   112   57   59 1    
   113   57  118 1    
   114   58  119 1    
   115   58  120 1    
   116   58  121 1    
   117   59   60 am   BACKBONE|DICT|INTERRES
   118   59  122 1    
   119   60   61 2    
   120   60   62 1    
   121   62   63 1    
   122   62   64 1    
   123   62  123 1    
   124   63  124 1    
   125   63  125 1    
   126   63  126 1    
   127   64   65 am   BACKBONE|DICT|INTERRES
   128   64  127 1    
   129   65   66 2    
@<TRIPOS>SUBSTRUCTURE
     1 UNK         1 GROUP             0       ****    0 ROOT    
