@<TRIPOS>MOLECULE
3R134
127   129    1
SMALL
USER_CHARGES


@<TRIPOS>ATOM
      1 CA         32.3545  -45.8466  -50.9351 C.3       0 UNK        -0.1968 
      2 C          33.7887  -45.5477  -51.3410 C.2       0 UNK         0.4852 
      3 O          34.3839  -44.5901  -50.8438 O.2       0 UNK        -0.5359 
      4 N          34.3403  -46.3631  -52.2422 N.am      1 UNK        -0.4300 
      5 CA         35.6922  -46.2319  -52.7840 C.3       1 UNK         0.0863 
      6 C6         35.8269  -45.1282  -53.8744 C.3       11 UNK        -0.0953 
      7 S7         34.5069  -45.1470  -55.1448 S.3       11 UNK        -0.2369 
      8 C8         33.7907  -43.4770  -54.9812 C.3       11 UNK         0.0226 
      9 C9         32.2698  -43.5100  -54.9748 C.ar      11 UNK        -0.0699 
     10 C10        31.5620  -43.2617  -53.7939 C.ar      11 UNK        -0.0804 
     11 C11        30.1636  -43.2555  -53.7936 C.ar      11 UNK        -0.0871 
     12 C12        29.4762  -43.5080  -54.9832 C.ar      11 UNK        -0.1008 
     13 C13        30.1701  -43.7902  -56.1619 C.ar      11 UNK        -0.0735 
     14 C14        31.5682  -43.7737  -56.1548 C.ar      11 UNK        -0.0945 
     15 C15        29.4188  -44.1905  -57.4219 C.3       11 UNK         0.0169 
     16 S16        28.7230  -42.7772  -58.3365 S.3       11 UNK        -0.2669 
     17 C17        26.9324  -42.6328  -57.9467 C.3       11 UNK        -0.0850 
     18 CA         26.1856  -43.7624  -57.1684 C.3       10 UNK         0.0855 
     19 C          24.7237  -43.3577  -56.8029 C.2       10 UNK         0.5543 
     20 N          23.7638  -44.2750  -56.7885 N.am      10 UNK        -0.7343 
     21 O          24.4562  -42.1990  -56.4939 O.2       10 UNK        -0.5027 
     22 N          26.2969  -45.1087  -57.7560 N.am      10 UNK        -0.4495 
     23 C          25.9468  -45.5018  -58.9855 C.2       10 UNK         0.4903 
     24 O          25.5176  -44.7426  -59.8554 O.2       10 UNK        -0.4860 
     25 CA         26.0486  -47.0152  -59.2657 C.3       9 UNK         0.0227 
     26 CB         26.0507  -47.3550  -60.7719 C.3       9 UNK        -0.1964 
     27 N          27.1552  -47.6807  -58.5623 N.am      9 UNK        -0.4231 
     28 C          28.4741  -47.5375  -58.7750 C.2       9 UNK         0.5014 
     29 O          28.9498  -46.7734  -59.6151 O.2       9 UNK        -0.5270 
     30 CA         29.4430  -48.3912  -57.9244 C.3       8 UNK         0.0284 
     31 CB         30.4040  -47.5122  -57.1050 C.3       8 UNK        -0.1977 
     32 N          28.7771  -49.3185  -57.0094 N.am      8 UNK        -0.4342 
     33 C          28.1771  -50.4644  -57.3533 C.2       8 UNK         0.5039 
     34 O          28.1599  -50.9166  -58.4982 O.2       8 UNK        -0.5547 
     35 CA         27.4276  -51.2016  -56.2314 C.3       7 UNK         0.0281 
     36 CB         28.3791  -52.1230  -55.4507 C.3       7 UNK        -0.1963 
     37 N          26.7645  -50.2787  -55.3036 N.am      7 UNK        -0.4444 
     38 C          25.7103  -49.5108  -55.6139 C.2       7 UNK         0.5104 
     39 O          25.1680  -49.5047  -56.7188 O.2       7 UNK        -0.5100 
     40 CA         25.1990  -48.5612  -54.5168 C.3       6 UNK         0.0396 
     41 CB         24.2921  -49.3114  -53.5288 C.3       6 UNK        -0.1801 
     42 N          26.2835  -47.8997  -53.7864 N.am      6 UNK        -0.4747 
     43 C          27.1068  -46.9867  -54.3227 C.2       6 UNK         0.5012 
     44 O          27.0257  -46.5936  -55.4863 O.2       6 UNK        -0.5003 
     45 CA         28.2381  -46.4533  -53.4209 C.3       5 UNK         0.0782 
     46 C46        27.7255  -45.2748  -52.5566 C.3       11 UNK        -0.0868 
     47 S47        29.0484  -44.4931  -51.5718 S.3       11 UNK        -0.2515 
     48 C48        29.3941  -42.9711  -52.5116 C.3       11 UNK         0.0199 
     49 N          28.8912  -47.4956  -52.6153 N.am      5 UNK        -0.4607 
     50 C          29.4545  -48.6050  -53.1083 C.2       4 UNK         0.5031 
     51 O          29.3619  -48.9544  -54.2863 O.2       4 UNK        -0.5119 
     52 CA         30.2197  -49.4969  -52.1171 C.3       4 UNK         0.0263 
     53 CB         29.2565  -50.4837  -51.4379 C.3       4 UNK        -0.1967 
     54 N          31.2745  -50.2506  -52.8004 N.am      4 UNK        -0.4237 
     55 C          32.3538  -49.6915  -53.3618 C.2       3 UNK         0.4908 
     56 O          32.6694  -48.5043  -53.2148 O.2       3 UNK        -0.5102 
     57 CA         33.2120  -50.6069  -54.2477 C.3       3 UNK         0.0241 
     58 CB         32.4332  -51.1121  -55.4775 C.3       3 UNK        -0.1971 
     59 N          34.3623  -49.8300  -54.6850 N.am      3 UNK        -0.4139 
     60 C          35.6092  -50.2701  -54.8692 C.2       2 UNK         0.5016 
     61 O          35.9332  -51.4584  -54.8540 O.2       2 UNK        -0.5319 
     62 CA         36.6849  -49.1862  -55.0788 C.3       2 UNK         0.0286 
     63 CB         36.9883  -49.0095  -56.5753 C.3       2 UNK        -0.1963 
     64 N          36.3159  -47.8834  -54.5056 N.am      2 UNK        -0.4790 
     65 C          36.1746  -47.6327  -53.1954 C.2       1 UNK         0.5024 
     66 O          36.3953  -48.4694  -52.3182 O.2       1 UNK        -0.4888 
     67 H67        31.7787  -46.2271  -51.7794 H         1 UNK         0.0892 
     68 H68        32.3325  -46.5880  -50.1372 H         1 UNK         0.0892 
     69 H69        31.8653  -44.9419  -50.5758 H         1 UNK         0.0892 
     70 H70        33.7972  -47.1470  -52.6026 H         1 UNK         0.3107 
     71 H71        36.3526  -45.9476  -51.9616 H         1 UNK         0.0773 
     72 H72        35.8376  -44.1593  -53.3757 H         1 UNK         0.0680 
     73 H73        36.7961  -45.1866  -54.3730 H         1 UNK         0.0680 
     74 H74        34.1384  -42.8629  -55.8129 H         1 UNK         0.0650 
     75 H75        34.1469  -42.9855  -54.0757 H         1 UNK         0.0650 
     76 H76        32.0989  -43.0668  -52.8753 H         1 UNK         0.1397 
     77 H77        28.3986  -43.5104  -54.9807 H         1 UNK         0.1363 
     78 H78        32.1154  -43.9877  -57.0628 H         1 UNK         0.1355 
     79 H79        30.1009  -44.6971  -58.1048 H         1 UNK         0.0707 
     80 H80        28.6753  -44.9346  -57.1626 H         1 UNK         0.0707 
     81 H81        26.4174  -42.4463  -58.8903 H         1 UNK         0.1034 
     82 H82        26.8391  -41.6980  -57.3910 H         1 UNK         0.1034 
     83 H83        26.6665  -43.8525  -56.1983 H         1 UNK         0.0482 
     84 H84        23.9704  -45.2316  -57.0241 H         1 UNK         0.3460 
     85 H85        22.8251  -44.0046  -56.5405 H         1 UNK         0.3460 
     86 H86        26.6026  -45.8190  -57.0939 H         1 UNK         0.2989 
     87 H87        25.1408  -47.4491  -58.8443 H         1 UNK         0.0559 
     88 H88        26.8884  -46.8898  -61.2921 H         1 UNK         0.0848 
     89 H89        25.1373  -47.0033  -61.2531 H         1 UNK         0.0848 
     90 H90        26.1077  -48.4310  -60.9364 H         1 UNK         0.0848 
     91 H91        26.8722  -48.3266  -57.8363 H         1 UNK         0.3144 
     92 H92        30.0412  -48.9792  -58.6234 H         1 UNK         0.0727 
     93 H93        31.1201  -48.1160  -56.5482 H         1 UNK         0.0790 
     94 H94        29.8682  -46.8954  -56.3836 H         1 UNK         0.0790 
     95 H95        30.9813  -46.8502  -57.7504 H         1 UNK         0.0790 
     96 H96        28.8096  -49.0764  -56.0192 H         1 UNK         0.3215 
     97 H97        26.6590  -51.8211  -56.6991 H         1 UNK         0.0863 
     98 H98        29.1552  -51.5592  -54.9333 H         1 UNK         0.0808 
     99 H99        28.8781  -52.8248  -56.1204 H         1 UNK         0.0808 
    100 H100       27.8406  -52.7119  -54.7082 H         1 UNK         0.0808 
    101 H101       27.1892  -50.1636  -54.3950 H         1 UNK         0.3118 
    102 H102       24.6004  -47.7870  -55.0021 H         1 UNK         0.0546 
    103 H103       23.8539  -48.6314  -52.7981 H         1 UNK         0.0828 
    104 H104       24.8343  -50.0856  -52.9846 H         1 UNK         0.0828 
    105 H105       23.4666  -49.7979  -54.0505 H         1 UNK         0.0828 
    106 H106       26.4275  -48.1717  -52.8245 H         1 UNK         0.3005 
    107 H107       29.0071  -46.0718  -54.0952 H         1 UNK         0.1257 
    108 H108       26.9578  -45.6214  -51.8622 H         1 UNK         0.0775 
    109 H109       27.2428  -44.5162  -53.1752 H         1 UNK         0.0775 
    110 H110       28.4612  -42.4492  -52.7304 H         1 UNK         0.0840 
    111 H111       29.9725  -42.2960  -51.8790 H         1 UNK         0.0840 
    112 H112       28.9989  -47.2835  -51.6339 H         1 UNK         0.2987 
    113 H113       30.6834  -48.8648  -51.3566 H         1 UNK         0.0785 
    114 H114       29.7782  -51.1138  -50.7172 H         1 UNK         0.0798 
    115 H115       28.4720  -49.9559  -50.8938 H         1 UNK         0.0798 
    116 H116       28.7680  -51.1368  -52.1624 H         1 UNK         0.0798 
    117 H117       31.0837  -51.2243  -52.9836 H         1 UNK         0.3079 
    118 H118       33.5470  -51.4527  -53.6435 H         1 UNK         0.0794 
    119 H119       32.0079  -50.2892  -56.0528 H         1 UNK         0.0786 
    120 H120       31.6113  -51.7657  -55.1858 H         1 UNK         0.0786 
    121 H121       33.0764  -51.6868  -56.1441 H         1 UNK         0.0786 
    122 H122       34.2087  -48.8301  -54.6542 H         1 UNK         0.3032 
    123 H123       37.5931  -49.5314  -54.5794 H         1 UNK         0.1094 
    124 H124       36.1174  -48.6489  -57.1244 H         1 UNK         0.0794 
    125 H125       37.8034  -48.3034  -56.7349 H         1 UNK         0.0794 
    126 H126       37.2891  -49.9562  -57.0265 H         1 UNK         0.0794 
    127 H127       36.0942  -47.1408  -55.1563 H         1 UNK         0.3016 
@<TRIPOS>BOND
     1    1    2 1    
     2    1   67 1    
     3    1   68 1    
     4    1   69 1    
     5    2    3 2    
     6    2    4 am   BACKBONE|DICT|INTERRES
     7    4    5 1    
     8    4   70 1    
     9    5    6 1    
    10    5   65 1    
    11    5   71 1    
    12    6    7 1    
    13    6   72 1    
    14    6   73 1    
    15    7    8 1    
    16    8    9 1    
    17    8   74 1    
    18    8   75 1    
    19    9   10 ar   
    20    9   14 ar   
    21   10   11 ar   
    22   10   76 1    
    23   11   12 ar   
    24   11   48 1    
    25   12   13 ar   
    26   12   77 1    
    27   13   14 ar   
    28   13   15 1    
    29   14   78 1    
    30   15   16 1    
    31   15   79 1    
    32   15   80 1    
    33   16   17 1    
    34   17   18 1    
    35   17   81 1    
    36   17   82 1    
    37   18   19 1    
    38   18   22 1    
    39   18   83 1    
    40   19   20 am   BACKBONE|DICT|INTERRES
    41   19   21 2    
    42   20   84 1    
    43   20   85 1    
    44   22   23 am   BACKBONE|DICT|INTERRES
    45   22   86 1    
    46   23   24 2    
    47   23   25 1    
    48   25   26 1    
    49   25   27 1    
    50   25   87 1    
    51   26   88 1    
    52   26   89 1    
    53   26   90 1    
    54   27   28 am   BACKBONE|DICT|INTERRES
    55   27   91 1    
    56   28   29 2    
    57   28   30 1    
    58   30   31 1    
    59   30   32 1    
    60   30   92 1    
    61   31   93 1    
    62   31   94 1    
    63   31   95 1    
    64   32   33 am   BACKBONE|DICT|INTERRES
    65   32   96 1    
    66   33   34 2    
    67   33   35 1    
    68   35   36 1    
    69   35   37 1    
    70   35   97 1    
    71   36   98 1    
    72   36   99 1    
    73   36  100 1    
    74   37   38 am   BACKBONE|DICT|INTERRES
    75   37  101 1    
    76   38   39 2    
    77   38   40 1    
    78   40   41 1    
    79   40   42 1    
    80   40  102 1    
    81   41  103 1    
    82   41  104 1    
    83   41  105 1    
    84   42   43 am   BACKBONE|DICT|INTERRES
    85   42  106 1    
    86   43   44 2    
    87   43   45 1    
    88   45   46 1    
    89   45   49 1    
    90   45  107 1    
    91   46   47 1    
    92   46  108 1    
    93   46  109 1    
    94   47   48 1    
    95   48  110 1    
    96   48  111 1    
    97   49   50 am   BACKBONE|DICT|INTERRES
    98   49  112 1    
    99   50   51 2    
   100   50   52 1    
   101   52   53 1    
   102   52   54 1    
   103   52  113 1    
   104   53  114 1    
   105   53  115 1    
   106   53  116 1    
   107   54   55 am   BACKBONE|DICT|INTERRES
   108   54  117 1    
   109   55   56 2    
   110   55   57 1    
   111   57   58 1    
   112   57   59 1    
   113   57  118 1    
   114   58  119 1    
   115   58  120 1    
   116   58  121 1    
   117   59   60 am   BACKBONE|DICT|INTERRES
   118   59  122 1    
   119   60   61 2    
   120   60   62 1    
   121   62   63 1    
   122   62   64 1    
   123   62  123 1    
   124   63  124 1    
   125   63  125 1    
   126   63  126 1    
   127   64   65 am   BACKBONE|DICT|INTERRES
   128   64  127 1    
   129   65   66 2    
@<TRIPOS>SUBSTRUCTURE
     1 UNK         1 GROUP             0       ****    0 ROOT    
