@<TRIPOS>MOLECULE
3R134
127   129    1
SMALL
USER_CHARGES


@<TRIPOS>ATOM
      1 CA         37.9421  -45.6698  -52.9603 C.3       0 UNK        -0.1968 
      2 C          36.4833  -45.5844  -52.5368 C.2       0 UNK         0.4852 
      3 O          36.1784  -45.8057  -51.3634 O.2       0 UNK        -0.5359 
      4 N          35.5876  -45.2734  -53.4857 N.am      1 UNK        -0.4300 
      5 CA         34.1306  -45.1279  -53.3469 C.3       1 UNK         0.0863 
      6 C6         33.6885  -44.0138  -52.3578 C.3       11 UNK        -0.0953 
      7 S7         33.9698  -42.3575  -53.0656 S.3       11 UNK        -0.2369 
      8 C8         32.2746  -41.6836  -53.1547 C.3       11 UNK         0.0226 
      9 C9         31.3053  -42.5761  -53.9240 C.ar      11 UNK        -0.0699 
     10 C10        30.1480  -43.0577  -53.2996 C.ar      11 UNK        -0.0804 
     11 C11        29.2516  -43.8750  -53.9953 C.ar      11 UNK        -0.0871 
     12 C12        29.5240  -44.2135  -55.3233 C.ar      11 UNK        -0.1008 
     13 C13        30.6630  -43.7217  -55.9659 C.ar      11 UNK        -0.0735 
     14 C14        31.5516  -42.9048  -55.2614 C.ar      11 UNK        -0.0945 
     15 C15        30.9293  -44.0796  -57.4205 C.3       11 UNK         0.0169 
     16 S16        30.5751  -42.7093  -58.5724 S.3       11 UNK        -0.2669 
     17 C17        28.8071  -42.3255  -58.2779 C.3       11 UNK        -0.0850 
     18 CA         27.8146  -42.9841  -59.2736 C.3       10 UNK         0.0855 
     19 C          27.9317  -42.4107  -60.7166 C.2       10 UNK         0.5543 
     20 N          28.1604  -43.2248  -61.7402 N.am      10 UNK        -0.7343 
     21 O          27.7927  -41.2056  -60.9119 O.2       10 UNK        -0.5027 
     22 N          27.8577  -44.4509  -59.1800 N.am      10 UNK        -0.4495 
     23 C          26.8238  -45.2733  -59.3982 C.2       10 UNK         0.4903 
     24 O          25.6986  -44.8904  -59.7232 O.2       10 UNK        -0.4860 
     25 CA         27.0767  -46.7867  -59.2307 C.3       9 UNK         0.0227 
     26 CB         28.5506  -47.1593  -58.9644 C.3       9 UNK        -0.1964 
     27 N          26.2230  -47.3884  -58.2009 N.am      9 UNK        -0.4231 
     28 C          26.0707  -46.9986  -56.9267 C.2       9 UNK         0.5014 
     29 O          26.6349  -46.0286  -56.4212 O.2       9 UNK        -0.5270 
     30 CA         25.1500  -47.8602  -56.0480 C.3       8 UNK         0.0284 
     31 CB         23.6853  -47.8389  -56.5314 C.3       8 UNK        -0.1977 
     32 N          25.6638  -49.2228  -55.8658 N.am      8 UNK        -0.4342 
     33 C          25.7921  -50.2025  -56.7749 C.2       8 UNK         0.5039 
     34 O          25.3754  -50.1130  -57.9322 O.2       8 UNK        -0.5547 
     35 CA         26.5286  -51.4836  -56.3345 C.3       7 UNK         0.0281 
     36 CB         27.3983  -52.0556  -57.4694 C.3       7 UNK        -0.1963 
     37 N          27.3871  -51.2267  -55.1764 N.am      7 UNK        -0.4444 
     38 C          27.1996  -51.7085  -53.9404 C.2       7 UNK         0.5104 
     39 O          26.3030  -52.4989  -53.6448 O.2       7 UNK        -0.5100 
     40 CA         28.1541  -51.2158  -52.8312 C.3       6 UNK         0.0396 
     41 CB         29.2460  -52.2650  -52.5694 C.3       6 UNK        -0.1801 
     42 N          28.7913  -49.9214  -53.1011 N.am      6 UNK        -0.4747 
     43 C          28.1465  -48.7648  -53.3203 C.2       6 UNK         0.5012 
     44 O          26.9225  -48.6499  -53.2496 O.2       6 UNK        -0.5003 
     45 CA         28.9959  -47.5633  -53.7855 C.3       5 UNK         0.0782 
     46 C46        29.4780  -46.6944  -52.5969 C.3       11 UNK        -0.0868 
     47 S47        28.2383  -45.5263  -51.9491 S.3       11 UNK        -0.2515 
     48 C48        27.9680  -44.3672  -53.3347 C.3       11 UNK         0.0199 
     49 N          30.1300  -47.9500  -54.6313 N.am      5 UNK        -0.4607 
     50 C          30.0750  -48.6367  -55.7802 C.2       4 UNK         0.5031 
     51 O          29.0359  -49.0777  -56.2667 O.2       4 UNK        -0.5119 
     52 CA         31.4146  -48.9103  -56.4778 C.3       4 UNK         0.0263 
     53 CB         31.9232  -47.6589  -57.2122 C.3       4 UNK        -0.1967 
     54 N          32.4192  -49.3413  -55.5070 N.am      4 UNK        -0.4237 
     55 C          32.6077  -50.6111  -55.1239 C.2       3 UNK         0.4908 
     56 O          32.0104  -51.5716  -55.6105 O.2       3 UNK        -0.5102 
     57 CA         33.6316  -50.8571  -54.0002 C.3       3 UNK         0.0241 
     58 CB         35.0264  -51.1188  -54.5913 C.3       3 UNK        -0.1971 
     59 N          33.7158  -49.7649  -53.0254 N.am      3 UNK        -0.4139 
     60 C          32.7184  -49.3932  -52.2114 C.2       2 UNK         0.5016 
     61 O          31.6074  -49.9225  -52.1980 O.2       2 UNK        -0.5319 
     62 CA         32.9911  -48.1970  -51.2849 C.3       2 UNK         0.0286 
     63 CB         33.7397  -48.6541  -50.0231 C.3       2 UNK        -0.1963 
     64 N          33.7125  -47.0728  -51.8967 N.am      2 UNK        -0.4790 
     65 C          33.4164  -46.4582  -53.0500 C.2       1 UNK         0.5024 
     66 O          32.6067  -46.8915  -53.8682 O.2       1 UNK        -0.4888 
     67 H67        38.3306  -46.6693  -52.7671 H         1 UNK         0.0892 
     68 H68        38.0743  -45.4534  -54.0203 H         1 UNK         0.0892 
     69 H69        38.5387  -44.9565  -52.3922 H         1 UNK         0.0892 
     70 H70        35.9271  -45.1237  -54.4257 H         1 UNK         0.3107 
     71 H71        33.7779  -44.8374  -54.3386 H         1 UNK         0.0773 
     72 H72        32.6321  -44.1126  -52.1021 H         1 UNK         0.0680 
     73 H73        34.2212  -44.0832  -51.4091 H         1 UNK         0.0680 
     74 H74        32.3111  -40.7054  -53.6355 H         1 UNK         0.0650 
     75 H75        31.9177  -41.5121  -52.1380 H         1 UNK         0.0650 
     76 H76        29.9395  -42.7972  -52.2709 H         1 UNK         0.1397 
     77 H77        28.8348  -44.8426  -55.8691 H         1 UNK         0.1363 
     78 H78        32.4357  -42.5240  -55.7541 H         1 UNK         0.1355 
     79 H79        31.9764  -44.3652  -57.5319 H         1 UNK         0.0707 
     80 H80        30.3488  -44.9537  -57.7114 H         1 UNK         0.0707 
     81 H81        28.5305  -42.5977  -57.2604 H         1 UNK         0.1034 
     82 H82        28.6961  -41.2400  -58.3092 H         1 UNK         0.1034 
     83 H83        26.8200  -42.6790  -58.9423 H         1 UNK         0.0482 
     84 H84        28.2695  -44.2143  -61.5897 H         1 UNK         0.3460 
     85 H85        28.2274  -42.8434  -62.6706 H         1 UNK         0.3460 
     86 H86        28.7523  -44.8469  -58.9398 H         1 UNK         0.2989 
     87 H87        26.7874  -47.2474  -60.1761 H         1 UNK         0.0559 
     88 H88        28.8890  -46.7866  -57.9979 H         1 UNK         0.0848 
     89 H89        29.2144  -46.7698  -59.7374 H         1 UNK         0.0848 
     90 H90        28.6795  -48.2419  -58.9539 H         1 UNK         0.0848 
     91 H91        25.7449  -48.2473  -58.4614 H         1 UNK         0.3144 
     92 H92        25.1622  -47.4115  -55.0532 H         1 UNK         0.0727 
     93 H93        23.0387  -48.3951  -55.8528 H         1 UNK         0.0790 
     94 H94        23.3084  -46.8161  -56.5723 H         1 UNK         0.0790 
     95 H95        23.5667  -48.2642  -57.5279 H         1 UNK         0.0790 
     96 H96        26.0745  -49.3821  -54.9512 H         1 UNK         0.3215 
     97 H97        25.7606  -52.2194  -56.0881 H         1 UNK         0.0863 
     98 H98        27.9229  -52.9565  -57.1511 H         1 UNK         0.0808 
     99 H99        28.1443  -51.3335  -57.8045 H         1 UNK         0.0808 
    100 H100       26.7911  -52.3250  -58.3345 H         1 UNK         0.0808 
    101 H101       28.1300  -50.5502  -55.3353 H         1 UNK         0.3118 
    102 H102       27.5617  -51.1039  -51.9211 H         1 UNK         0.0546 
    103 H103       29.9137  -52.3728  -53.4256 H         1 UNK         0.0828 
    104 H104       28.8109  -53.2447  -52.3671 H         1 UNK         0.0828 
    105 H105       29.8528  -51.9980  -51.7041 H         1 UNK         0.0828 
    106 H106       29.8078  -49.9139  -53.1098 H         1 UNK         0.3005 
    107 H107       28.3498  -46.9612  -54.4263 H         1 UNK         0.1257 
    108 H108       30.3412  -46.0954  -52.8858 H         1 UNK         0.0775 
    109 H109       29.8280  -47.3204  -51.7747 H         1 UNK         0.0775 
    110 H110       27.3148  -44.8428  -54.0675 H         1 UNK         0.0840 
    111 H111       27.4118  -43.5061  -52.9619 H         1 UNK         0.0840 
    112 H112       31.0397  -47.6139  -54.3229 H         1 UNK         0.2987 
    113 H113       31.2587  -49.6983  -57.2182 H         1 UNK         0.0785 
    114 H114       31.2360  -47.3644  -58.0040 H         1 UNK         0.0798 
    115 H115       32.8896  -47.8429  -57.6818 H         1 UNK         0.0798 
    116 H116       32.0366  -46.8076  -56.5400 H         1 UNK         0.0798 
    117 H117       32.9029  -48.6065  -55.0045 H         1 UNK         0.3079 
    118 H118       33.3139  -51.7537  -53.4634 H         1 UNK         0.0794 
    119 H119       35.7431  -51.3872  -53.8148 H         1 UNK         0.0786 
    120 H120       35.4125  -50.2458  -55.1192 H         1 UNK         0.0786 
    121 H121       34.9993  -51.9448  -55.3036 H         1 UNK         0.0786 
    122 H122       34.5878  -49.2586  -52.9720 H         1 UNK         0.3032 
    123 H123       32.0186  -47.8129  -50.9729 H         1 UNK         0.1094 
    124 H124       34.7506  -48.9930  -50.2535 H         1 UNK         0.0794 
    125 H125       33.8158  -47.8477  -49.2934 H         1 UNK         0.0794 
    126 H126       33.2199  -49.4808  -49.5363 H         1 UNK         0.0794 
    127 H127       34.4704  -46.6631  -51.3548 H         1 UNK         0.3016 
@<TRIPOS>BOND
     1    1    2 1    
     2    1   67 1    
     3    1   68 1    
     4    1   69 1    
     5    2    3 2    
     6    2    4 am   BACKBONE|DICT|INTERRES
     7    4    5 1    
     8    4   70 1    
     9    5    6 1    
    10    5   65 1    
    11    5   71 1    
    12    6    7 1    
    13    6   72 1    
    14    6   73 1    
    15    7    8 1    
    16    8    9 1    
    17    8   74 1    
    18    8   75 1    
    19    9   10 ar   
    20    9   14 ar   
    21   10   11 ar   
    22   10   76 1    
    23   11   12 ar   
    24   11   48 1    
    25   12   13 ar   
    26   12   77 1    
    27   13   14 ar   
    28   13   15 1    
    29   14   78 1    
    30   15   16 1    
    31   15   79 1    
    32   15   80 1    
    33   16   17 1    
    34   17   18 1    
    35   17   81 1    
    36   17   82 1    
    37   18   19 1    
    38   18   22 1    
    39   18   83 1    
    40   19   20 am   BACKBONE|DICT|INTERRES
    41   19   21 2    
    42   20   84 1    
    43   20   85 1    
    44   22   23 am   BACKBONE|DICT|INTERRES
    45   22   86 1    
    46   23   24 2    
    47   23   25 1    
    48   25   26 1    
    49   25   27 1    
    50   25   87 1    
    51   26   88 1    
    52   26   89 1    
    53   26   90 1    
    54   27   28 am   BACKBONE|DICT|INTERRES
    55   27   91 1    
    56   28   29 2    
    57   28   30 1    
    58   30   31 1    
    59   30   32 1    
    60   30   92 1    
    61   31   93 1    
    62   31   94 1    
    63   31   95 1    
    64   32   33 am   BACKBONE|DICT|INTERRES
    65   32   96 1    
    66   33   34 2    
    67   33   35 1    
    68   35   36 1    
    69   35   37 1    
    70   35   97 1    
    71   36   98 1    
    72   36   99 1    
    73   36  100 1    
    74   37   38 am   BACKBONE|DICT|INTERRES
    75   37  101 1    
    76   38   39 2    
    77   38   40 1    
    78   40   41 1    
    79   40   42 1    
    80   40  102 1    
    81   41  103 1    
    82   41  104 1    
    83   41  105 1    
    84   42   43 am   BACKBONE|DICT|INTERRES
    85   42  106 1    
    86   43   44 2    
    87   43   45 1    
    88   45   46 1    
    89   45   49 1    
    90   45  107 1    
    91   46   47 1    
    92   46  108 1    
    93   46  109 1    
    94   47   48 1    
    95   48  110 1    
    96   48  111 1    
    97   49   50 am   BACKBONE|DICT|INTERRES
    98   49  112 1    
    99   50   51 2    
   100   50   52 1    
   101   52   53 1    
   102   52   54 1    
   103   52  113 1    
   104   53  114 1    
   105   53  115 1    
   106   53  116 1    
   107   54   55 am   BACKBONE|DICT|INTERRES
   108   54  117 1    
   109   55   56 2    
   110   55   57 1    
   111   57   58 1    
   112   57   59 1    
   113   57  118 1    
   114   58  119 1    
   115   58  120 1    
   116   58  121 1    
   117   59   60 am   BACKBONE|DICT|INTERRES
   118   59  122 1    
   119   60   61 2    
   120   60   62 1    
   121   62   63 1    
   122   62   64 1    
   123   62  123 1    
   124   63  124 1    
   125   63  125 1    
   126   63  126 1    
   127   64   65 am   BACKBONE|DICT|INTERRES
   128   64  127 1    
   129   65   66 2    
@<TRIPOS>SUBSTRUCTURE
     1 UNK         1 GROUP             0       ****    0 ROOT    
