@<TRIPOS>MOLECULE
3R134
127   129    1
SMALL
USER_CHARGES


@<TRIPOS>ATOM
      1 CA         33.1703  -46.6295  -51.5215 C.3       0 UNK        -0.1968 
      2 C          34.2696  -46.5179  -52.5635 C.2       0 UNK         0.4852 
      3 O          35.1444  -47.3813  -52.6372 O.2       0 UNK        -0.5359 
      4 N          34.2216  -45.4580  -53.3803 N.am      1 UNK        -0.4300 
      5 CA         35.1625  -45.2018  -54.4781 C.3       1 UNK         0.0863 
      6 C6         35.1000  -43.7328  -54.9664 C.3       11 UNK        -0.0953 
      7 S7         33.4324  -43.1963  -55.4842 S.3       11 UNK        -0.2369 
      8 C8         32.8354  -42.2819  -54.0207 C.3       11 UNK         0.0226 
      9 C9         31.4340  -42.7220  -53.6153 C.ar      11 UNK        -0.0699 
     10 C10        31.1686  -43.1589  -52.3128 C.ar      11 UNK        -0.0804 
     11 C11        29.8746  -43.5422  -51.9410 C.ar      11 UNK        -0.0871 
     12 C12        28.8487  -43.5172  -52.8919 C.ar      11 UNK        -0.1008 
     13 C13        29.1026  -43.0828  -54.1967 C.ar      11 UNK        -0.0735 
     14 C14        30.3898  -42.6648  -54.5420 C.ar      11 UNK        -0.0945 
     15 C15        27.9853  -43.0402  -55.2298 C.3       11 UNK         0.0169 
     16 S16        27.6971  -44.6658  -55.9974 S.3       11 UNK        -0.2669 
     17 C17        29.1816  -44.8798  -57.0447 C.3       11 UNK        -0.0850 
     18 CA         28.9229  -44.5835  -58.5456 C.3       10 UNK         0.0855 
     19 C          30.2604  -44.5619  -59.3412 C.2       10 UNK         0.5543 
     20 N          30.5114  -45.4974  -60.2494 N.am      10 UNK        -0.7343 
     21 O          31.0815  -43.6730  -59.1324 O.2       10 UNK        -0.5027 
     22 N          27.8970  -45.4813  -59.0965 N.am      10 UNK        -0.4495 
     23 C          27.2032  -45.2746  -60.2249 C.2       10 UNK         0.4903 
     24 O          27.3612  -44.2969  -60.9565 O.2       10 UNK        -0.4860 
     25 CA         26.1426  -46.3292  -60.6065 C.3       9 UNK         0.0227 
     26 CB         26.7069  -47.3024  -61.6541 C.3       9 UNK        -0.1964 
     27 N          25.6549  -47.0922  -59.4545 N.am      9 UNK        -0.4231 
     28 C          24.9372  -46.5750  -58.4489 C.2       9 UNK         0.5014 
     29 O          24.4284  -45.4533  -58.4898 O.2       9 UNK        -0.5270 
     30 CA         24.7610  -47.4217  -57.1717 C.3       8 UNK         0.0284 
     31 CB         23.2903  -47.8412  -57.0052 C.3       8 UNK        -0.1977 
     32 N          25.6047  -48.6169  -57.0187 N.am      8 UNK        -0.4342 
     33 C          26.9406  -48.7074  -57.0858 C.2       8 UNK         0.5039 
     34 O          27.6753  -47.8118  -57.4993 O.2       8 UNK        -0.5547 
     35 CA         27.5503  -50.0221  -56.5664 C.3       7 UNK         0.0281 
     36 CB         29.0326  -50.1783  -56.9534 C.3       7 UNK        -0.1963 
     37 N          27.4261  -50.0831  -55.1086 N.am      7 UNK        -0.4444 
     38 C          26.2913  -50.3637  -54.4491 C.2       7 UNK         0.5104 
     39 O          25.2538  -50.7158  -55.0137 O.2       7 UNK        -0.5100 
     40 CA         26.2873  -50.2087  -52.9164 C.3       6 UNK         0.0396 
     41 CB         26.3736  -51.5866  -52.2408 C.3       6 UNK        -0.1801 
     42 N          27.3638  -49.3589  -52.4037 N.am      6 UNK        -0.4747 
     43 C          27.4942  -48.0376  -52.6065 C.2       6 UNK         0.5012 
     44 O          26.6550  -47.3537  -53.1913 O.2       6 UNK        -0.5003 
     45 CA         28.7868  -47.3749  -52.0746 C.3       5 UNK         0.0782 
     46 C46        28.4745  -46.5258  -50.8184 C.3       11 UNK        -0.0868 
     47 S47        29.9458  -45.6756  -50.1521 S.3       11 UNK        -0.2515 
     48 C48        29.5794  -43.9274  -50.4976 C.3       11 UNK         0.0199 
     49 N          29.8552  -48.3570  -51.8238 N.am      5 UNK        -0.4607 
     50 C          30.4903  -49.0447  -52.7796 C.2       4 UNK         0.5031 
     51 O          30.2588  -48.9134  -53.9821 O.2       4 UNK        -0.5119 
     52 CA         31.4964  -50.0984  -52.3120 C.3       4 UNK         0.0263 
     53 CB         30.8013  -51.4526  -52.0831 C.3       4 UNK        -0.1967 
     54 N          32.5230  -50.2332  -53.3368 N.am      4 UNK        -0.4237 
     55 C          33.7896  -50.6087  -53.1371 C.2       3 UNK         0.4908 
     56 O          34.2210  -50.9868  -52.0470 O.2       3 UNK        -0.5102 
     57 CA         34.7575  -50.5314  -54.3341 C.3       3 UNK         0.0241 
     58 CB         34.8192  -51.8713  -55.0941 C.3       3 UNK        -0.1971 
     59 N          34.5182  -49.3933  -55.2364 N.am      3 UNK        -0.4139 
     60 C          33.4950  -49.1765  -56.0765 C.2       2 UNK         0.5016 
     61 O          32.5813  -49.9823  -56.2539 O.2       2 UNK        -0.5319 
     62 CA         33.4557  -47.8031  -56.7754 C.3       2 UNK         0.0286 
     63 CB         32.0760  -47.4986  -57.3876 C.3       2 UNK        -0.1963 
     64 N          33.7901  -46.7337  -55.8317 N.am      2 UNK        -0.4790 
     65 C          35.0100  -46.2137  -55.6363 C.2       1 UNK         0.5024 
     66 O          36.0002  -46.5440  -56.2892 O.2       1 UNK        -0.4888 
     67 H67        33.1546  -47.6265  -51.0831 H         1 UNK         0.0892 
     68 H68        33.3294  -45.9086  -50.7200 H         1 UNK         0.0892 
     69 H69        32.1958  -46.4397  -51.9702 H         1 UNK         0.0892 
     70 H70        33.4746  -44.7852  -53.2855 H         1 UNK         0.3107 
     71 H71        36.1667  -45.3573  -54.0769 H         1 UNK         0.0773 
     72 H72        35.7802  -43.5841  -55.8072 H         1 UNK         0.0680 
     73 H73        35.4689  -43.0685  -54.1838 H         1 UNK         0.0680 
     74 H74        32.8222  -41.2162  -54.2528 H         1 UNK         0.0650 
     75 H75        33.5267  -42.4047  -53.1861 H         1 UNK         0.0650 
     76 H76        31.9616  -43.1798  -51.5775 H         1 UNK         0.1397 
     77 H77        27.8477  -43.8200  -52.6161 H         1 UNK         0.1363 
     78 H78        30.5880  -42.3067  -55.5431 H         1 UNK         0.1355 
     79 H79        27.0616  -42.7105  -54.7519 H         1 UNK         0.0707 
     80 H80        28.2034  -42.3063  -56.0074 H         1 UNK         0.0707 
     81 H81        29.9919  -44.2601  -56.6641 H         1 UNK         0.1034 
     82 H82        29.5228  -45.9087  -56.9234 H         1 UNK         0.1034 
     83 H83        28.5258  -43.5687  -58.6114 H         1 UNK         0.0482 
     84 H84        29.8398  -46.2270  -60.4236 H         1 UNK         0.3460 
     85 H85        31.3771  -45.4694  -60.7639 H         1 UNK         0.3460 
     86 H86        27.7181  -46.3210  -58.5462 H         1 UNK         0.2989 
     87 H87        25.2949  -45.8018  -61.0489 H         1 UNK         0.0559 
     88 H88        27.5490  -47.8748  -61.2630 H         1 UNK         0.0848 
     89 H89        27.0596  -46.7649  -62.5356 H         1 UNK         0.0848 
     90 H90        25.9474  -48.0084  -61.9906 H         1 UNK         0.0848 
     91 H91        26.0549  -48.0083  -59.3121 H         1 UNK         0.3144 
     92 H92        25.0188  -46.7631  -56.3397 H         1 UNK         0.0727 
     93 H93        23.1191  -48.3166  -56.0389 H         1 UNK         0.0790 
     94 H94        22.6247  -46.9783  -57.0589 H         1 UNK         0.0790 
     95 H95        22.9821  -48.5399  -57.7839 H         1 UNK         0.0790 
     96 H96        25.1374  -49.4224  -56.6148 H         1 UNK         0.3215 
     97 H97        26.9986  -50.8529  -57.0119 H         1 UNK         0.0863 
     98 H98        29.4427  -51.1222  -56.5945 H         1 UNK         0.0808 
     99 H99        29.6457  -49.3749  -56.5440 H         1 UNK         0.0808 
    100 H100       29.1577  -50.1593  -58.0366 H         1 UNK         0.0808 
    101 H101       28.2256  -49.7530  -54.5815 H         1 UNK         0.3118 
    102 H102       25.3368  -49.7488  -52.6383 H         1 UNK         0.0546 
    103 H103       27.3126  -52.0919  -52.4702 H         1 UNK         0.0828 
    104 H104       25.5643  -52.2369  -52.5764 H         1 UNK         0.0828 
    105 H105       26.2904  -51.5048  -51.1570 H         1 UNK         0.0828 
    106 H106       28.0986  -49.8253  -51.8929 H         1 UNK         0.3005 
    107 H107       29.1340  -46.7000  -52.8617 H         1 UNK         0.1257 
    108 H108       28.0685  -47.1558  -50.0245 H         1 UNK         0.0775 
    109 H109       27.7005  -45.7885  -51.0391 H         1 UNK         0.0775 
    110 H110       28.5420  -43.7057  -50.2419 H         1 UNK         0.0840 
    111 H111       30.1843  -43.3114  -49.8304 H         1 UNK         0.0840 
    112 H112       30.0983  -48.5066  -50.8548 H         1 UNK         0.2987 
    113 H113       31.9557  -49.7596  -51.3811 H         1 UNK         0.0785 
    114 H114       30.0348  -51.3774  -51.3112 H         1 UNK         0.0798 
    115 H115       31.5120  -52.2123  -51.7572 H         1 UNK         0.0798 
    116 H116       30.3193  -51.8156  -52.9921 H         1 UNK         0.0798 
    117 H117       32.2347  -49.9611  -54.2745 H         1 UNK         0.3079 
    118 H118       35.7475  -50.3531  -53.9109 H         1 UNK         0.0794 
    119 H119       35.5391  -51.8315  -55.9114 H         1 UNK         0.0786 
    120 H120       33.8516  -52.1516  -55.5110 H         1 UNK         0.0786 
    121 H121       35.1277  -52.6787  -54.4287 H         1 UNK         0.0786 
    122 H122       35.1814  -48.6365  -55.1345 H         1 UNK         0.3032 
    123 H123       34.1874  -47.8308  -57.5861 H         1 UNK         0.1094 
    124 H124       31.2905  -47.5158  -56.6310 H         1 UNK         0.0794 
    125 H125       32.0641  -46.5194  -57.8652 H         1 UNK         0.0794 
    126 H126       31.8108  -48.2333  -58.1490 H         1 UNK         0.0794 
    127 H127       33.0419  -46.4169  -55.2323 H         1 UNK         0.3016 
@<TRIPOS>BOND
     1    1    2 1    
     2    1   67 1    
     3    1   68 1    
     4    1   69 1    
     5    2    3 2    
     6    2    4 am   BACKBONE|DICT|INTERRES
     7    4    5 1    
     8    4   70 1    
     9    5    6 1    
    10    5   65 1    
    11    5   71 1    
    12    6    7 1    
    13    6   72 1    
    14    6   73 1    
    15    7    8 1    
    16    8    9 1    
    17    8   74 1    
    18    8   75 1    
    19    9   10 ar   
    20    9   14 ar   
    21   10   11 ar   
    22   10   76 1    
    23   11   12 ar   
    24   11   48 1    
    25   12   13 ar   
    26   12   77 1    
    27   13   14 ar   
    28   13   15 1    
    29   14   78 1    
    30   15   16 1    
    31   15   79 1    
    32   15   80 1    
    33   16   17 1    
    34   17   18 1    
    35   17   81 1    
    36   17   82 1    
    37   18   19 1    
    38   18   22 1    
    39   18   83 1    
    40   19   20 am   BACKBONE|DICT|INTERRES
    41   19   21 2    
    42   20   84 1    
    43   20   85 1    
    44   22   23 am   BACKBONE|DICT|INTERRES
    45   22   86 1    
    46   23   24 2    
    47   23   25 1    
    48   25   26 1    
    49   25   27 1    
    50   25   87 1    
    51   26   88 1    
    52   26   89 1    
    53   26   90 1    
    54   27   28 am   BACKBONE|DICT|INTERRES
    55   27   91 1    
    56   28   29 2    
    57   28   30 1    
    58   30   31 1    
    59   30   32 1    
    60   30   92 1    
    61   31   93 1    
    62   31   94 1    
    63   31   95 1    
    64   32   33 am   BACKBONE|DICT|INTERRES
    65   32   96 1    
    66   33   34 2    
    67   33   35 1    
    68   35   36 1    
    69   35   37 1    
    70   35   97 1    
    71   36   98 1    
    72   36   99 1    
    73   36  100 1    
    74   37   38 am   BACKBONE|DICT|INTERRES
    75   37  101 1    
    76   38   39 2    
    77   38   40 1    
    78   40   41 1    
    79   40   42 1    
    80   40  102 1    
    81   41  103 1    
    82   41  104 1    
    83   41  105 1    
    84   42   43 am   BACKBONE|DICT|INTERRES
    85   42  106 1    
    86   43   44 2    
    87   43   45 1    
    88   45   46 1    
    89   45   49 1    
    90   45  107 1    
    91   46   47 1    
    92   46  108 1    
    93   46  109 1    
    94   47   48 1    
    95   48  110 1    
    96   48  111 1    
    97   49   50 am   BACKBONE|DICT|INTERRES
    98   49  112 1    
    99   50   51 2    
   100   50   52 1    
   101   52   53 1    
   102   52   54 1    
   103   52  113 1    
   104   53  114 1    
   105   53  115 1    
   106   53  116 1    
   107   54   55 am   BACKBONE|DICT|INTERRES
   108   54  117 1    
   109   55   56 2    
   110   55   57 1    
   111   57   58 1    
   112   57   59 1    
   113   57  118 1    
   114   58  119 1    
   115   58  120 1    
   116   58  121 1    
   117   59   60 am   BACKBONE|DICT|INTERRES
   118   59  122 1    
   119   60   61 2    
   120   60   62 1    
   121   62   63 1    
   122   62   64 1    
   123   62  123 1    
   124   63  124 1    
   125   63  125 1    
   126   63  126 1    
   127   64   65 am   BACKBONE|DICT|INTERRES
   128   64  127 1    
   129   65   66 2    
@<TRIPOS>SUBSTRUCTURE
     1 UNK         1 GROUP             0       ****    0 ROOT    
