@<TRIPOS>MOLECULE
3R134
127   129    1
SMALL
USER_CHARGES


@<TRIPOS>ATOM
      1 CA         29.7162  -47.7298  -48.9194 C.3       0 UNK        -0.1968 
      2 C          31.0582  -47.0189  -48.8242 C.2       0 UNK         0.4852 
      3 O          31.9169  -47.4320  -48.0436 O.2       0 UNK        -0.5359 
      4 N          31.2455  -45.9540  -49.6152 N.am      1 UNK        -0.4300 
      5 CA         32.4879  -45.1746  -49.7062 C.3       1 UNK         0.0863 
      6 C6         32.2270  -43.7599  -50.2868 C.3       11 UNK        -0.0953 
      7 S7         31.4578  -43.7735  -51.9444 S.3       11 UNK        -0.2369 
      8 C8         32.8196  -43.1411  -52.9737 C.3       11 UNK         0.0226 
      9 C9         32.5981  -43.4395  -54.4504 C.ar      11 UNK        -0.0699 
     10 C10        33.4946  -44.2579  -55.1433 C.ar      11 UNK        -0.0804 
     11 C11        33.3027  -44.5458  -56.4973 C.ar      11 UNK        -0.0871 
     12 C12        32.2021  -43.9989  -57.1641 C.ar      11 UNK        -0.1008 
     13 C13        31.3046  -43.1663  -56.4869 C.ar      11 UNK        -0.0735 
     14 C14        31.5099  -42.8870  -55.1323 C.ar      11 UNK        -0.0945 
     15 C15        30.1166  -42.5618  -57.2181 C.3       11 UNK         0.0169 
     16 S16        28.5876  -43.4582  -56.8224 S.3       11 UNK        -0.2669 
     17 C17        27.4296  -42.7476  -58.0436 C.3       11 UNK        -0.0850 
     18 CA         25.9880  -42.5652  -57.4814 C.3       10 UNK         0.0855 
     19 C          25.0335  -41.8737  -58.5023 C.2       10 UNK         0.5543 
     20 N          23.7525  -42.2188  -58.5476 N.am      10 UNK        -0.7343 
     21 O          25.4499  -40.9860  -59.2430 O.2       10 UNK        -0.5027 
     22 N          25.4492  -43.7897  -56.8577 N.am      10 UNK        -0.4495 
     23 C          25.2636  -44.9701  -57.4621 C.2       10 UNK         0.4903 
     24 O          25.4394  -45.1654  -58.6661 O.2       10 UNK        -0.4860 
     25 CA         24.7937  -46.1081  -56.5419 C.3       9 UNK         0.0227 
     26 CB         23.2555  -46.2009  -56.4833 C.3       9 UNK        -0.1964 
     27 N          25.4294  -47.3892  -56.8710 N.am      9 UNK        -0.4231 
     28 C          25.1779  -48.2321  -57.8867 C.2       9 UNK         0.5014 
     29 O          24.2593  -48.0920  -58.6959 O.2       9 UNK        -0.5270 
     30 CA         26.1030  -49.4595  -58.0423 C.3       8 UNK         0.0284 
     31 CB         26.9852  -49.3066  -59.2931 C.3       8 UNK        -0.1977 
     32 N          26.9661  -49.7244  -56.8871 N.am      8 UNK        -0.4342 
     33 C          26.5457  -50.1225  -55.6783 C.2       8 UNK         0.5039 
     34 O          25.3761  -50.4099  -55.4220 O.2       8 UNK        -0.5547 
     35 CA         27.5946  -50.1666  -54.5518 C.3       7 UNK         0.0281 
     36 CB         28.1845  -51.5782  -54.4195 C.3       7 UNK        -0.1963 
     37 N          28.6809  -49.1913  -54.7097 N.am      7 UNK        -0.4444 
     38 C          28.5224  -47.8582  -54.7310 C.2       7 UNK         0.5104 
     39 O          27.4296  -47.2980  -54.6473 O.2       7 UNK        -0.5100 
     40 CA         29.7912  -47.0122  -54.9041 C.3       6 UNK         0.0396 
     41 CB         30.5422  -46.8812  -53.5725 C.3       6 UNK        -0.1801 
     42 N          30.6763  -47.5906  -55.9121 N.am      6 UNK        -0.4747 
     43 C          30.5145  -47.4386  -57.2339 C.2       6 UNK         0.5012 
     44 O          29.6253  -46.7593  -57.7458 O.2       6 UNK        -0.5003 
     45 CA         31.4793  -48.2211  -58.1481 C.3       5 UNK         0.0782 
     46 C46        32.7486  -47.4081  -58.5027 C.3       11 UNK        -0.0868 
     47 S47        33.9225  -47.1896  -57.1171 S.3       11 UNK        -0.2515 
     48 C48        34.3122  -45.4137  -57.2370 C.3       11 UNK         0.0199 
     49 N          31.7989  -49.5570  -57.6342 N.am      5 UNK        -0.4607 
     50 C          30.9046  -50.5423  -57.4838 C.2       4 UNK         0.5031 
     51 O          29.7100  -50.4294  -57.7560 O.2       4 UNK        -0.5119 
     52 CA         31.4187  -51.8728  -56.9105 C.3       4 UNK         0.0263 
     53 CB         31.9899  -52.7499  -58.0361 C.3       4 UNK        -0.1967 
     54 N          32.4108  -51.7551  -55.8350 N.am      4 UNK        -0.4237 
     55 C          32.3002  -51.0230  -54.7158 C.2       3 UNK         0.4908 
     56 O          31.3735  -50.2375  -54.5071 O.2       3 UNK        -0.5102 
     57 CA         33.3926  -51.2184  -53.6426 C.3       3 UNK         0.0241 
     58 CB         34.5574  -52.1315  -54.0830 C.3       3 UNK        -0.1971 
     59 N          33.9436  -49.9356  -53.2069 N.am      3 UNK        -0.4139 
     60 C          33.4273  -49.1535  -52.2513 C.2       2 UNK         0.5016 
     61 O          32.4281  -49.4417  -51.5855 O.2       2 UNK        -0.5319 
     62 CA         34.1568  -47.8268  -51.9847 C.3       2 UNK         0.0286 
     63 CB         34.6104  -47.1186  -53.2776 C.3       2 UNK        -0.1963 
     64 N          33.2668  -46.9618  -51.2171 N.am      2 UNK        -0.4790 
     65 C          33.6172  -45.9116  -50.4656 C.2       1 UNK         0.5024 
     66 O          34.7777  -45.5133  -50.3546 O.2       1 UNK        -0.4888 
     67 H67        29.0397  -47.2344  -49.6159 H         1 UNK         0.0892 
     68 H68        29.2353  -47.7582  -47.9421 H         1 UNK         0.0892 
     69 H69        29.8609  -48.7551  -49.2595 H         1 UNK         0.0892 
     70 H70        30.5043  -45.6470  -50.2296 H         1 UNK         0.3107 
     71 H71        32.8574  -45.0357  -48.6877 H         1 UNK         0.0773 
     72 H72        31.5564  -43.2158  -49.6201 H         1 UNK         0.0680 
     73 H73        33.1485  -43.1748  -50.3059 H         1 UNK         0.0680 
     74 H74        32.9116  -42.0640  -52.8281 H         1 UNK         0.0650 
     75 H75        33.7580  -43.5839  -52.6357 H         1 UNK         0.0650 
     76 H76        34.3538  -44.6651  -54.6322 H         1 UNK         0.1397 
     77 H77        32.0463  -44.2123  -58.2122 H         1 UNK         0.1363 
     78 H78        30.8141  -42.2492  -54.6043 H         1 UNK         0.1355 
     79 H79        30.2824  -42.5873  -58.2964 H         1 UNK         0.0707 
     80 H80        30.0052  -41.5117  -56.9434 H         1 UNK         0.0707 
     81 H81        27.4218  -43.3902  -58.9254 H         1 UNK         0.1034 
     82 H82        27.8220  -41.7855  -58.3782 H         1 UNK         0.1034 
     83 H83        26.0624  -41.8491  -56.6624 H         1 UNK         0.0482 
     84 H84        23.3998  -42.9424  -57.9423 H         1 UNK         0.3460 
     85 H85        23.1382  -41.7602  -59.2019 H         1 UNK         0.3460 
     86 H86        25.2579  -43.7181  -55.8687 H         1 UNK         0.2989 
     87 H87        25.1424  -45.8812  -55.5330 H         1 UNK         0.0559 
     88 H88        22.9302  -47.0367  -55.8639 H         1 UNK         0.0848 
     89 H89        22.8142  -46.3226  -57.4729 H         1 UNK         0.0848 
     90 H90        22.8289  -45.2938  -56.0539 H         1 UNK         0.0848 
     91 H91        26.2199  -47.6109  -56.2742 H         1 UNK         0.3144 
     92 H92        25.4591  -50.3300  -58.1830 H         1 UNK         0.0727 
     93 H93        27.5649  -50.2102  -59.4830 H         1 UNK         0.0790 
     94 H94        27.6834  -48.4743  -59.1917 H         1 UNK         0.0790 
     95 H95        26.3806  -49.1197  -60.1817 H         1 UNK         0.0790 
     96 H96        27.9646  -49.6090  -57.0323 H         1 UNK         0.3215 
     97 H97        27.0799  -49.9248  -53.6196 H         1 UNK         0.0863 
     98 H98        28.9216  -51.6315  -53.6179 H         1 UNK         0.0808 
     99 H99        28.6652  -51.8963  -55.3432 H         1 UNK         0.0808 
    100 H100       27.4039  -52.3057  -54.1933 H         1 UNK         0.0808 
    101 H101       29.6283  -49.5624  -54.7506 H         1 UNK         0.3118 
    102 H102       29.4972  -46.0100  -55.2239 H         1 UNK         0.0546 
    103 H103       29.9133  -46.4068  -52.8187 H         1 UNK         0.0828 
    104 H104       31.4348  -46.2663  -53.6849 H         1 UNK         0.0828 
    105 H105       30.8459  -47.8521  -53.1819 H         1 UNK         0.0828 
    106 H106       31.3937  -48.2237  -55.5832 H         1 UNK         0.3005 
    107 H107       30.9336  -48.3761  -59.0823 H         1 UNK         0.1257 
    108 H108       32.4665  -46.4378  -58.9135 H         1 UNK         0.0775 
    109 H109       33.2857  -47.9134  -59.3067 H         1 UNK         0.0775 
    110 H110       35.3061  -45.2519  -56.8167 H         1 UNK         0.0840 
    111 H111       34.3833  -45.1150  -58.2840 H         1 UNK         0.0840 
    112 H112       32.7586  -49.7180  -57.3657 H         1 UNK         0.2987 
    113 H113       30.5597  -52.3960  -56.4898 H         1 UNK         0.0785 
    114 H114       32.8913  -52.3151  -58.4700 H         1 UNK         0.0798 
    115 H115       31.2655  -52.8710  -58.8431 H         1 UNK         0.0798 
    116 H116       32.2377  -53.7487  -57.6761 H         1 UNK         0.0798 
    117 H117       33.2167  -52.3583  -55.9133 H         1 UNK         0.3079 
    118 H118       32.9038  -51.6992  -52.7925 H         1 UNK         0.0794 
    119 H119       35.0880  -51.7336  -54.9494 H         1 UNK         0.0786 
    120 H120       34.2091  -53.1355  -54.3295 H         1 UNK         0.0786 
    121 H121       35.2855  -52.2460  -53.2794 H         1 UNK         0.0786 
    122 H122       34.7467  -49.5987  -53.7171 H         1 UNK         0.3032 
    123 H123       35.0323  -48.0561  -51.3732 H         1 UNK         0.1094 
    124 H124       33.7710  -46.9394  -53.9499 H         1 UNK         0.0794 
    125 H125       35.0787  -46.1604  -53.0556 H         1 UNK         0.0794 
    126 H126       35.3507  -47.7038  -53.8235 H         1 UNK         0.0794 
    127 H127       32.3086  -47.2862  -51.1846 H         1 UNK         0.3016 
@<TRIPOS>BOND
     1    1    2 1    
     2    1   67 1    
     3    1   68 1    
     4    1   69 1    
     5    2    3 2    
     6    2    4 am   BACKBONE|DICT|INTERRES
     7    4    5 1    
     8    4   70 1    
     9    5    6 1    
    10    5   65 1    
    11    5   71 1    
    12    6    7 1    
    13    6   72 1    
    14    6   73 1    
    15    7    8 1    
    16    8    9 1    
    17    8   74 1    
    18    8   75 1    
    19    9   10 ar   
    20    9   14 ar   
    21   10   11 ar   
    22   10   76 1    
    23   11   12 ar   
    24   11   48 1    
    25   12   13 ar   
    26   12   77 1    
    27   13   14 ar   
    28   13   15 1    
    29   14   78 1    
    30   15   16 1    
    31   15   79 1    
    32   15   80 1    
    33   16   17 1    
    34   17   18 1    
    35   17   81 1    
    36   17   82 1    
    37   18   19 1    
    38   18   22 1    
    39   18   83 1    
    40   19   20 am   BACKBONE|DICT|INTERRES
    41   19   21 2    
    42   20   84 1    
    43   20   85 1    
    44   22   23 am   BACKBONE|DICT|INTERRES
    45   22   86 1    
    46   23   24 2    
    47   23   25 1    
    48   25   26 1    
    49   25   27 1    
    50   25   87 1    
    51   26   88 1    
    52   26   89 1    
    53   26   90 1    
    54   27   28 am   BACKBONE|DICT|INTERRES
    55   27   91 1    
    56   28   29 2    
    57   28   30 1    
    58   30   31 1    
    59   30   32 1    
    60   30   92 1    
    61   31   93 1    
    62   31   94 1    
    63   31   95 1    
    64   32   33 am   BACKBONE|DICT|INTERRES
    65   32   96 1    
    66   33   34 2    
    67   33   35 1    
    68   35   36 1    
    69   35   37 1    
    70   35   97 1    
    71   36   98 1    
    72   36   99 1    
    73   36  100 1    
    74   37   38 am   BACKBONE|DICT|INTERRES
    75   37  101 1    
    76   38   39 2    
    77   38   40 1    
    78   40   41 1    
    79   40   42 1    
    80   40  102 1    
    81   41  103 1    
    82   41  104 1    
    83   41  105 1    
    84   42   43 am   BACKBONE|DICT|INTERRES
    85   42  106 1    
    86   43   44 2    
    87   43   45 1    
    88   45   46 1    
    89   45   49 1    
    90   45  107 1    
    91   46   47 1    
    92   46  108 1    
    93   46  109 1    
    94   47   48 1    
    95   48  110 1    
    96   48  111 1    
    97   49   50 am   BACKBONE|DICT|INTERRES
    98   49  112 1    
    99   50   51 2    
   100   50   52 1    
   101   52   53 1    
   102   52   54 1    
   103   52  113 1    
   104   53  114 1    
   105   53  115 1    
   106   53  116 1    
   107   54   55 am   BACKBONE|DICT|INTERRES
   108   54  117 1    
   109   55   56 2    
   110   55   57 1    
   111   57   58 1    
   112   57   59 1    
   113   57  118 1    
   114   58  119 1    
   115   58  120 1    
   116   58  121 1    
   117   59   60 am   BACKBONE|DICT|INTERRES
   118   59  122 1    
   119   60   61 2    
   120   60   62 1    
   121   62   63 1    
   122   62   64 1    
   123   62  123 1    
   124   63  124 1    
   125   63  125 1    
   126   63  126 1    
   127   64   65 am   BACKBONE|DICT|INTERRES
   128   64  127 1    
   129   65   66 2    
@<TRIPOS>SUBSTRUCTURE
     1 UNK         1 GROUP             0       ****    0 ROOT    
