@<TRIPOS>MOLECULE
3R134
127   129    1
SMALL
USER_CHARGES


@<TRIPOS>ATOM
      1 CA         37.5536  -44.3067  -51.9886 C.3       0 UNK        -0.1968 
      2 C          36.7454  -45.5818  -52.1759 C.2       0 UNK         0.4852 
      3 O          37.3239  -46.6635  -52.2928 O.2       0 UNK        -0.5359 
      4 N          35.4106  -45.4719  -52.1846 N.am      1 UNK        -0.4300 
      5 CA         34.4474  -46.5631  -52.4003 C.3       1 UNK         0.0863 
      6 C6         33.0911  -46.0235  -52.9234 C.3       11 UNK        -0.0953 
      7 S7         33.2633  -45.1088  -54.4932 S.3       11 UNK        -0.2369 
      8 C8         32.0663  -43.7590  -54.2616 C.3       11 UNK         0.0226 
      9 C9         30.6639  -44.1940  -54.6568 C.ar      11 UNK        -0.0699 
     10 C10        29.8467  -44.8777  -53.7497 C.ar      11 UNK        -0.0804 
     11 C11        28.5637  -45.2889  -54.1248 C.ar      11 UNK        -0.0871 
     12 C12        28.0947  -44.9909  -55.4072 C.ar      11 UNK        -0.1008 
     13 C13        28.8984  -44.3015  -56.3172 C.ar      11 UNK        -0.0735 
     14 C14        30.1833  -43.9070  -55.9382 C.ar      11 UNK        -0.0945 
     15 C15        28.3712  -43.9910  -57.7069 C.3       11 UNK         0.0169 
     16 S16        27.6115  -42.3405  -57.7656 S.3       11 UNK        -0.2669 
     17 C17        26.4954  -42.5217  -59.2004 C.3       11 UNK        -0.0850 
     18 CA         25.0084  -42.6885  -58.7846 C.3       10 UNK         0.0855 
     19 C          24.0727  -42.7417  -60.0290 C.2       10 UNK         0.5543 
     20 N          23.2474  -43.7665  -60.2112 N.am      10 UNK        -0.7343 
     21 O          24.0920  -41.8250  -60.8466 O.2       10 UNK        -0.5027 
     22 N          24.8187  -43.8028  -57.8410 N.am      10 UNK        -0.4495 
     23 C          23.8427  -43.8709  -56.9284 C.2       10 UNK         0.4903 
     24 O          23.0206  -42.9730  -56.7376 O.2       10 UNK        -0.4860 
     25 CA         23.7786  -45.1655  -56.0915 C.3       9 UNK         0.0227 
     26 CB         22.4006  -45.3738  -55.4285 C.3       9 UNK        -0.1964 
     27 N          24.1742  -46.3736  -56.8298 N.am      9 UNK        -0.4231 
     28 C          23.6436  -46.8533  -57.9636 C.2       9 UNK         0.5014 
     29 O          22.7789  -46.2720  -58.6225 O.2       9 UNK        -0.5270 
     30 CA         24.2051  -48.2028  -58.4512 C.3       8 UNK         0.0284 
     31 CB         23.1976  -48.9607  -59.3357 C.3       8 UNK        -0.1977 
     32 N          25.4628  -48.0532  -59.1869 N.am      8 UNK        -0.4342 
     33 C          26.6303  -47.6652  -58.6612 C.2       8 UNK         0.5039 
     34 O          26.7838  -47.3614  -57.4738 O.2       8 UNK        -0.5547 
     35 CA         27.8251  -47.6035  -59.6198 C.3       7 UNK         0.0281 
     36 CB         27.6644  -46.4877  -60.6713 C.3       7 UNK        -0.1963 
     37 N          29.0261  -47.3875  -58.8213 N.am      7 UNK        -0.4444 
     38 C          30.2853  -47.6268  -59.1989 C.2       7 UNK         0.5104 
     39 O          30.6016  -48.0101  -60.3258 O.2       7 UNK        -0.5100 
     40 CA         31.3854  -47.4092  -58.1434 C.3       6 UNK         0.0396 
     41 CB         32.0641  -46.0458  -58.3487 C.3       6 UNK        -0.1801 
     42 N          30.9148  -47.5117  -56.7571 N.am      6 UNK        -0.4747 
     43 C          30.5408  -48.6570  -56.1678 C.2       6 UNK         0.5012 
     44 O          30.4822  -49.7421  -56.7517 O.2       6 UNK        -0.5003 
     45 CA         30.1628  -48.5720  -54.6765 C.3       5 UNK         0.0782 
     46 C46        28.6366  -48.3974  -54.4878 C.3       11 UNK        -0.0868 
     47 S47        28.2792  -47.7498  -52.8189 S.3       11 UNK        -0.2515 
     48 C48        27.6753  -46.0601  -53.1559 C.3       11 UNK         0.0199 
     49 N          30.6507  -49.7489  -53.9507 N.am      5 UNK        -0.4607 
     50 C          31.9361  -50.0338  -53.7187 C.2       4 UNK         0.5031 
     51 O          32.8769  -49.2881  -54.0043 O.2       4 UNK        -0.5119 
     52 CA         32.2180  -51.4016  -53.0877 C.3       4 UNK         0.0263 
     53 CB         32.1280  -52.5121  -54.1552 C.3       4 UNK        -0.1967 
     54 N          33.5505  -51.3626  -52.4943 N.am      4 UNK        -0.4237 
     55 C          34.0928  -52.2818  -51.6878 C.2       3 UNK         0.4908 
     56 O          33.5208  -53.3120  -51.3294 O.2       3 UNK        -0.5102 
     57 CA         35.5178  -51.9953  -51.1890 C.3       3 UNK         0.0241 
     58 CB         36.5529  -52.3038  -52.2839 C.3       3 UNK        -0.1971 
     59 N          35.6773  -50.6120  -50.7351 N.am      3 UNK        -0.4139 
     60 C          35.1918  -50.1353  -49.5797 C.2       2 UNK         0.5016 
     61 O          34.5834  -50.8178  -48.7545 O.2       2 UNK        -0.5319 
     62 CA         35.4301  -48.6447  -49.2923 C.3       2 UNK         0.0286 
     63 CB         36.7780  -48.4379  -48.5828 C.3       2 UNK        -0.1963 
     64 N          35.3911  -47.8235  -50.5041 N.am      2 UNK        -0.4790 
     65 C          34.2744  -47.4549  -51.1452 C.2       1 UNK         0.5024 
     66 O          33.1486  -47.7794  -50.7634 O.2       1 UNK        -0.4888 
     67 H67        38.1632  -44.3779  -51.0883 H         1 UNK         0.0892 
     68 H68        38.2176  -44.1563  -52.8394 H         1 UNK         0.0892 
     69 H69        36.9149  -43.4283  -51.8979 H         1 UNK         0.0892 
     70 H70        34.9966  -44.5590  -52.0621 H         1 UNK         0.3107 
     71 H71        34.8518  -47.2184  -53.1751 H         1 UNK         0.0773 
     72 H72        32.3923  -46.8406  -53.0950 H         1 UNK         0.0680 
     73 H73        32.6295  -45.3838  -52.1696 H         1 UNK         0.0680 
     74 H74        32.3794  -42.9125  -54.8746 H         1 UNK         0.0650 
     75 H75        32.0814  -43.4029  -53.2307 H         1 UNK         0.0650 
     76 H76        30.2119  -45.1044  -52.7574 H         1 UNK         0.1397 
     77 H77        27.1027  -45.3028  -55.7033 H         1 UNK         0.1363 
     78 H78        30.8072  -43.3709  -56.6404 H         1 UNK         0.1355 
     79 H79        27.6342  -44.7433  -57.9857 H         1 UNK         0.0707 
     80 H80        29.1715  -44.0513  -58.4456 H         1 UNK         0.0707 
     81 H81        26.6131  -41.6273  -59.8155 H         1 UNK         0.1034 
     82 H82        26.8189  -43.3523  -59.8279 H         1 UNK         0.1034 
     83 H83        24.7312  -41.7711  -58.2614 H         1 UNK         0.0482 
     84 H84        22.6497  -43.7739  -61.0221 H         1 UNK         0.3460 
     85 H85        23.1917  -44.5276  -59.5428 H         1 UNK         0.3460 
     86 H86        25.4361  -44.5927  -57.9445 H         1 UNK         0.2989 
     87 H87        24.5127  -45.0433  -55.2938 H         1 UNK         0.0559 
     88 H88        21.6056  -45.4570  -56.1704 H         1 UNK         0.0848 
     89 H89        22.1484  -44.5392  -54.7731 H         1 UNK         0.0848 
     90 H90        22.3856  -46.2767  -54.8182 H         1 UNK         0.0848 
     91 H91        24.9773  -46.8759  -56.4655 H         1 UNK         0.3144 
     92 H92        24.3978  -48.8194  -57.5704 H         1 UNK         0.0727 
     93 H93        23.5626  -49.9557  -59.5911 H         1 UNK         0.0790 
     94 H94        22.9926  -48.4289  -60.2659 H         1 UNK         0.0790 
     95 H95        22.2456  -49.0897  -58.8188 H         1 UNK         0.0790 
     96 H96        25.4244  -48.2571  -60.1754 H         1 UNK         0.3215 
     97 H97        27.9049  -48.5711  -60.1201 H         1 UNK         0.0863 
     98 H98        28.4962  -46.4842  -61.3757 H         1 UNK         0.0808 
     99 H99        27.6190  -45.5026  -60.2123 H         1 UNK         0.0808 
    100 H100       26.7542  -46.6176  -61.2575 H         1 UNK         0.0808 
    101 H101       28.8317  -47.1386  -57.8584 H         1 UNK         0.3118 
    102 H102       32.1394  -48.1845  -58.2958 H         1 UNK         0.0546 
    103 H103       31.3587  -45.2227  -58.2420 H         1 UNK         0.0828 
    104 H104       32.4956  -45.9735  -59.3480 H         1 UNK         0.0828 
    105 H105       32.8742  -45.8910  -57.6358 H         1 UNK         0.0828 
    106 H106       30.9249  -46.6578  -56.2153 H         1 UNK         0.3005 
    107 H107       30.6672  -47.6956  -54.2674 H         1 UNK         0.1257 
    108 H108       28.2109  -47.7294  -55.2364 H         1 UNK         0.0775 
    109 H109       28.1152  -49.3469  -54.6210 H         1 UNK         0.0775 
    110 H110       26.6555  -46.1260  -53.5386 H         1 UNK         0.0840 
    111 H111       27.6097  -45.5136  -52.2141 H         1 UNK         0.0840 
    112 H112       29.9491  -50.4291  -53.6991 H         1 UNK         0.2987 
    113 H113       31.4868  -51.5825  -52.2970 H         1 UNK         0.0785 
    114 H114       31.1508  -52.5156  -54.6398 H         1 UNK         0.0798 
    115 H115       32.2713  -53.5021  -53.7228 H         1 UNK         0.0798 
    116 H116       32.8771  -52.3768  -54.9365 H         1 UNK         0.0798 
    117 H117       34.0711  -50.5272  -52.7321 H         1 UNK         0.3079 
    118 H118       35.7142  -52.6594  -50.3441 H         1 UNK         0.0794 
    119 H119       37.5705  -52.1804  -51.9125 H         1 UNK         0.0786 
    120 H120       36.4326  -51.6571  -53.1540 H         1 UNK         0.0786 
    121 H121       36.4586  -53.3346  -52.6288 H         1 UNK         0.0786 
    122 H122       36.1729  -49.9773  -51.3440 H         1 UNK         0.3032 
    123 H123       34.6363  -48.3098  -48.6200 H         1 UNK         0.1094 
    124 H124       37.6178  -48.7369  -49.2114 H         1 UNK         0.0794 
    125 H125       36.9227  -47.3937  -48.3045 H         1 UNK         0.0794 
    126 H126       36.8305  -49.0265  -47.6657 H         1 UNK         0.0794 
    127 H127       36.2764  -47.5187  -50.9008 H         1 UNK         0.3016 
@<TRIPOS>BOND
     1    1    2 1    
     2    1   67 1    
     3    1   68 1    
     4    1   69 1    
     5    2    3 2    
     6    2    4 am   BACKBONE|DICT|INTERRES
     7    4    5 1    
     8    4   70 1    
     9    5    6 1    
    10    5   65 1    
    11    5   71 1    
    12    6    7 1    
    13    6   72 1    
    14    6   73 1    
    15    7    8 1    
    16    8    9 1    
    17    8   74 1    
    18    8   75 1    
    19    9   10 ar   
    20    9   14 ar   
    21   10   11 ar   
    22   10   76 1    
    23   11   12 ar   
    24   11   48 1    
    25   12   13 ar   
    26   12   77 1    
    27   13   14 ar   
    28   13   15 1    
    29   14   78 1    
    30   15   16 1    
    31   15   79 1    
    32   15   80 1    
    33   16   17 1    
    34   17   18 1    
    35   17   81 1    
    36   17   82 1    
    37   18   19 1    
    38   18   22 1    
    39   18   83 1    
    40   19   20 am   BACKBONE|DICT|INTERRES
    41   19   21 2    
    42   20   84 1    
    43   20   85 1    
    44   22   23 am   BACKBONE|DICT|INTERRES
    45   22   86 1    
    46   23   24 2    
    47   23   25 1    
    48   25   26 1    
    49   25   27 1    
    50   25   87 1    
    51   26   88 1    
    52   26   89 1    
    53   26   90 1    
    54   27   28 am   BACKBONE|DICT|INTERRES
    55   27   91 1    
    56   28   29 2    
    57   28   30 1    
    58   30   31 1    
    59   30   32 1    
    60   30   92 1    
    61   31   93 1    
    62   31   94 1    
    63   31   95 1    
    64   32   33 am   BACKBONE|DICT|INTERRES
    65   32   96 1    
    66   33   34 2    
    67   33   35 1    
    68   35   36 1    
    69   35   37 1    
    70   35   97 1    
    71   36   98 1    
    72   36   99 1    
    73   36  100 1    
    74   37   38 am   BACKBONE|DICT|INTERRES
    75   37  101 1    
    76   38   39 2    
    77   38   40 1    
    78   40   41 1    
    79   40   42 1    
    80   40  102 1    
    81   41  103 1    
    82   41  104 1    
    83   41  105 1    
    84   42   43 am   BACKBONE|DICT|INTERRES
    85   42  106 1    
    86   43   44 2    
    87   43   45 1    
    88   45   46 1    
    89   45   49 1    
    90   45  107 1    
    91   46   47 1    
    92   46  108 1    
    93   46  109 1    
    94   47   48 1    
    95   48  110 1    
    96   48  111 1    
    97   49   50 am   BACKBONE|DICT|INTERRES
    98   49  112 1    
    99   50   51 2    
   100   50   52 1    
   101   52   53 1    
   102   52   54 1    
   103   52  113 1    
   104   53  114 1    
   105   53  115 1    
   106   53  116 1    
   107   54   55 am   BACKBONE|DICT|INTERRES
   108   54  117 1    
   109   55   56 2    
   110   55   57 1    
   111   57   58 1    
   112   57   59 1    
   113   57  118 1    
   114   58  119 1    
   115   58  120 1    
   116   58  121 1    
   117   59   60 am   BACKBONE|DICT|INTERRES
   118   59  122 1    
   119   60   61 2    
   120   60   62 1    
   121   62   63 1    
   122   62   64 1    
   123   62  123 1    
   124   63  124 1    
   125   63  125 1    
   126   63  126 1    
   127   64   65 am   BACKBONE|DICT|INTERRES
   128   64  127 1    
   129   65   66 2    
@<TRIPOS>SUBSTRUCTURE
     1 UNK         1 GROUP             0       ****    0 ROOT    
