@<TRIPOS>MOLECULE
3R134
127   129    1
SMALL
USER_CHARGES


@<TRIPOS>ATOM
      1 CA         34.5740  -49.3905  -59.0501 C.3       0 UNK        -0.1968 
      2 C          34.8816  -48.8247  -57.6717 C.2       0 UNK         0.4852 
      3 O          36.0533  -48.6702  -57.3253 O.2       0 UNK        -0.5359 
      4 N          33.8365  -48.5330  -56.8855 N.am      1 UNK        -0.4300 
      5 CA         33.8726  -47.9566  -55.5332 C.3       1 UNK         0.0863 
      6 C6         34.4866  -46.5287  -55.4798 C.3       11 UNK        -0.0953 
      7 S7         33.4080  -45.3147  -56.3130 S.3       11 UNK        -0.2369 
      8 C8         32.8172  -44.3610  -54.8728 C.3       11 UNK         0.0226 
      9 C9         31.5629  -43.5163  -55.1000 C.ar      11 UNK        -0.0699 
     10 C10        30.8140  -43.1432  -53.9800 C.ar      11 UNK        -0.0804 
     11 C11        29.6370  -42.3997  -54.1136 C.ar      11 UNK        -0.0871 
     12 C12        29.2477  -41.9649  -55.3813 C.ar      11 UNK        -0.1008 
     13 C13        29.9818  -42.3229  -56.5139 C.ar      11 UNK        -0.0735 
     14 C14        31.1379  -43.0983  -56.3689 C.ar      11 UNK        -0.0945 
     15 C15        29.5263  -41.8666  -57.8926 C.3       11 UNK         0.0169 
     16 S16        28.2458  -42.9635  -58.5845 S.3       11 UNK        -0.2669 
     17 C17        26.7134  -42.3561  -57.7914 C.3       11 UNK        -0.0850 
     18 CA         26.2038  -43.2574  -56.6263 C.3       10 UNK         0.0855 
     19 C          24.9834  -42.6403  -55.8803 C.2       10 UNK         0.5543 
     20 N          24.0332  -43.4319  -55.3982 N.am      10 UNK        -0.7343 
     21 O          24.9134  -41.4272  -55.7004 O.2       10 UNK        -0.5027 
     22 N          26.0529  -44.6741  -56.9928 N.am      10 UNK        -0.4495 
     23 C          25.2586  -45.1859  -57.9425 C.2       10 UNK         0.4903 
     24 O          24.4943  -44.5230  -58.6452 O.2       10 UNK        -0.4860 
     25 CA         25.3501  -46.7127  -58.1137 C.3       9 UNK         0.0227 
     26 CB         24.6268  -47.2477  -59.3689 C.3       9 UNK        -0.1964 
     27 N          26.7442  -47.1661  -58.0251 N.am      9 UNK        -0.4231 
     28 C          27.7264  -46.9881  -58.9260 C.2       9 UNK         0.5014 
     29 O          27.5622  -46.5274  -60.0555 O.2       9 UNK        -0.5270 
     30 CA         29.1399  -47.4091  -58.4983 C.3       8 UNK         0.0284 
     31 CB         29.8951  -46.2177  -57.8752 C.3       8 UNK        -0.1977 
     32 N          29.0901  -48.5338  -57.5653 N.am      8 UNK        -0.4342 
     33 C          30.1229  -49.2969  -57.1999 C.2       8 UNK         0.5039 
     34 O          31.2631  -49.1675  -57.6487 O.2       8 UNK        -0.5547 
     35 CA         29.8287  -50.3652  -56.1333 C.3       7 UNK         0.0281 
     36 CB         31.1129  -50.9252  -55.4999 C.3       7 UNK        -0.1963 
     37 N          28.9813  -49.8050  -55.0767 N.am      7 UNK        -0.4444 
     38 C          27.6532  -49.9610  -54.9913 C.2       7 UNK         0.5104 
     39 O          26.9959  -50.6260  -55.7911 O.2       7 UNK        -0.5100 
     40 CA         26.9196  -49.2221  -53.8576 C.3       6 UNK         0.0396 
     41 CB         26.7146  -50.1598  -52.6578 C.3       6 UNK        -0.1801 
     42 N          27.6059  -48.0092  -53.4085 N.am      6 UNK        -0.4747 
     43 C          27.7422  -46.8835  -54.1259 C.2       6 UNK         0.5012 
     44 O          27.2595  -46.7259  -55.2492 O.2       6 UNK        -0.5003 
     45 CA         28.5793  -45.7512  -53.4936 C.3       5 UNK         0.0782 
     46 C46        27.6485  -44.6955  -52.8317 C.3       11 UNK        -0.0868 
     47 S47        28.5180  -43.4760  -51.7780 S.3       11 UNK        -0.2515 
     48 C48        28.7765  -42.0603  -52.9012 C.3       11 UNK         0.0199 
     49 N          29.6218  -46.2277  -52.5729 N.am      5 UNK        -0.4607 
     50 C          30.6110  -47.0829  -52.8605 C.2       4 UNK         0.5031 
     51 O          30.7039  -47.6811  -53.9332 O.2       4 UNK        -0.5119 
     52 CA         31.6845  -47.3110  -51.7776 C.3       4 UNK         0.0263 
     53 CB         31.2974  -46.7843  -50.3762 C.3       4 UNK        -0.1967 
     54 N          32.0993  -48.7156  -51.7093 N.am      4 UNK        -0.4237 
     55 C          31.3171  -49.7762  -51.4510 C.2       3 UNK         0.4908 
     56 O          30.1168  -49.6950  -51.1837 O.2       3 UNK        -0.5102 
     57 CA         31.9918  -51.1565  -51.5350 C.3       3 UNK         0.0241 
     58 CB         30.9764  -52.3069  -51.6796 C.3       3 UNK        -0.1971 
     59 N          32.9241  -51.1809  -52.6629 N.am      3 UNK        -0.4139 
     60 C          34.2261  -51.4828  -52.6012 C.2       2 UNK         0.5016 
     61 O          34.7954  -51.8810  -51.5846 O.2       2 UNK        -0.5319 
     62 CA         35.0406  -51.2794  -53.8935 C.3       2 UNK         0.0286 
     63 CB         35.1211  -52.5930  -54.6876 C.3       2 UNK        -0.1963 
     64 N          34.5288  -50.2190  -54.7737 N.am      2 UNK        -0.4790 
     65 C          34.4485  -48.9148  -54.4626 C.2       1 UNK         0.5024 
     66 O          34.7537  -48.4757  -53.3525 O.2       1 UNK        -0.4888 
     67 H67        34.9986  -48.7489  -59.8217 H         1 UNK         0.0892 
     68 H68        35.0082  -50.3844  -59.1544 H         1 UNK         0.0892 
     69 H69        33.5014  -49.4683  -59.2281 H         1 UNK         0.0892 
     70 H70        32.8929  -48.7154  -57.2382 H         1 UNK         0.3107 
     71 H71        32.8249  -47.8591  -55.2550 H         1 UNK         0.0773 
     72 H72        35.4715  -46.5041  -55.9468 H         1 UNK         0.0680 
     73 H73        34.6455  -46.1987  -54.4522 H         1 UNK         0.0680 
     74 H74        33.6227  -43.7112  -54.5288 H         1 UNK         0.0650 
     75 H75        32.6159  -45.0650  -54.0645 H         1 UNK         0.0650 
     76 H76        31.1325  -43.4608  -52.9966 H         1 UNK         0.1397 
     77 H77        28.3572  -41.3620  -55.4916 H         1 UNK         0.1363 
     78 H78        31.7018  -43.3702  -57.2497 H         1 UNK         0.1355 
     79 H79        29.1624  -40.8389  -57.8534 H         1 UNK         0.0707 
     80 H80        30.3759  -41.8566  -58.5770 H         1 UNK         0.0707 
     81 H81        26.8791  -41.3355  -57.4436 H         1 UNK         0.1034 
     82 H82        25.9465  -42.2754  -58.5630 H         1 UNK         0.1034 
     83 H83        26.9849  -43.2748  -55.8701 H         1 UNK         0.0482 
     84 H84        24.0825  -44.4286  -55.5331 H         1 UNK         0.3460 
     85 H85        23.2533  -43.0252  -54.9064 H         1 UNK         0.3460 
     86 H86        26.6042  -45.3227  -56.4409 H         1 UNK         0.2989 
     87 H87        24.8454  -47.1419  -57.2468 H         1 UNK         0.0559 
     88 H88        24.9941  -46.7831  -60.2841 H         1 UNK         0.0848 
     89 H89        23.5572  -47.0421  -59.3146 H         1 UNK         0.0848 
     90 H90        24.7450  -48.3267  -59.4671 H         1 UNK         0.0848 
     91 H91        27.0255  -47.4013  -57.0791 H         1 UNK         0.3144 
     92 H92        29.6732  -47.7346  -59.3939 H         1 UNK         0.0727 
     93 H93        29.3963  -45.8422  -56.9810 H         1 UNK         0.0790 
     94 H94        29.9654  -45.3912  -58.5823 H         1 UNK         0.0790 
     95 H95        30.9145  -46.4843  -57.5988 H         1 UNK         0.0790 
     96 H96        28.1806  -48.7835  -57.2051 H         1 UNK         0.3215 
     97 H97        29.3187  -51.1889  -56.6374 H         1 UNK         0.0863 
     98 H98        30.8852  -51.7240  -54.7956 H         1 UNK         0.0808 
     99 H99        31.6563  -50.1416  -54.9748 H         1 UNK         0.0808 
    100 H100       31.7776  -51.3455  -56.2560 H         1 UNK         0.0808 
    101 H101       29.4369  -49.1493  -54.4473 H         1 UNK         0.3118 
    102 H102       25.9371  -48.9311  -54.2354 H         1 UNK         0.0546 
    103 H103       27.6649  -50.4779  -52.2268 H         1 UNK         0.0828 
    104 H104       26.1741  -51.0600  -52.9536 H         1 UNK         0.0828 
    105 H105       26.1333  -49.6786  -51.8713 H         1 UNK         0.0828 
    106 H106       28.0642  -48.0557  -52.5084 H         1 UNK         0.3005 
    107 H107       29.0992  -45.2727  -54.3255 H         1 UNK         0.1257 
    108 H108       26.9152  -45.1887  -52.1902 H         1 UNK         0.0775 
    109 H109       27.0701  -44.1666  -53.5908 H         1 UNK         0.0775 
    110 H110       27.8010  -41.6813  -53.2106 H         1 UNK         0.0840 
    111 H111       29.2583  -41.2548  -52.3457 H         1 UNK         0.0840 
    112 H112       29.6182  -45.7870  -51.6642 H         1 UNK         0.2987 
    113 H113       32.5634  -46.7554  -52.1079 H         1 UNK         0.0785 
    114 H114       31.1578  -45.7024  -50.3798 H         1 UNK         0.0798 
    115 H115       32.0821  -46.9958  -49.6498 H         1 UNK         0.0798 
    116 H116       30.3775  -47.2393  -50.0064 H         1 UNK         0.0798 
    117 H117       33.0668  -48.8868  -51.9568 H         1 UNK         0.3079 
    118 H118       32.5312  -51.2942  -50.5956 H         1 UNK         0.0794 
    119 H119       30.3318  -52.3692  -50.8019 H         1 UNK         0.0786 
    120 H120       31.4785  -53.2692  -51.7799 H         1 UNK         0.0786 
    121 H121       30.3295  -52.1720  -52.5466 H         1 UNK         0.0786 
    122 H122       32.5613  -50.8544  -53.5463 H         1 UNK         0.3032 
    123 H123       36.0520  -50.9967  -53.5925 H         1 UNK         0.1094 
    124 H124       35.7770  -52.4948  -55.5529 H         1 UNK         0.0794 
    125 H125       35.5222  -53.3984  -54.0704 H         1 UNK         0.0794 
    126 H126       34.1402  -52.9124  -55.0424 H         1 UNK         0.0794 
    127 H127       34.2694  -50.4920  -55.7108 H         1 UNK         0.3016 
@<TRIPOS>BOND
     1    1    2 1    
     2    1   67 1    
     3    1   68 1    
     4    1   69 1    
     5    2    3 2    
     6    2    4 am   BACKBONE|DICT|INTERRES
     7    4    5 1    
     8    4   70 1    
     9    5    6 1    
    10    5   65 1    
    11    5   71 1    
    12    6    7 1    
    13    6   72 1    
    14    6   73 1    
    15    7    8 1    
    16    8    9 1    
    17    8   74 1    
    18    8   75 1    
    19    9   10 ar   
    20    9   14 ar   
    21   10   11 ar   
    22   10   76 1    
    23   11   12 ar   
    24   11   48 1    
    25   12   13 ar   
    26   12   77 1    
    27   13   14 ar   
    28   13   15 1    
    29   14   78 1    
    30   15   16 1    
    31   15   79 1    
    32   15   80 1    
    33   16   17 1    
    34   17   18 1    
    35   17   81 1    
    36   17   82 1    
    37   18   19 1    
    38   18   22 1    
    39   18   83 1    
    40   19   20 am   BACKBONE|DICT|INTERRES
    41   19   21 2    
    42   20   84 1    
    43   20   85 1    
    44   22   23 am   BACKBONE|DICT|INTERRES
    45   22   86 1    
    46   23   24 2    
    47   23   25 1    
    48   25   26 1    
    49   25   27 1    
    50   25   87 1    
    51   26   88 1    
    52   26   89 1    
    53   26   90 1    
    54   27   28 am   BACKBONE|DICT|INTERRES
    55   27   91 1    
    56   28   29 2    
    57   28   30 1    
    58   30   31 1    
    59   30   32 1    
    60   30   92 1    
    61   31   93 1    
    62   31   94 1    
    63   31   95 1    
    64   32   33 am   BACKBONE|DICT|INTERRES
    65   32   96 1    
    66   33   34 2    
    67   33   35 1    
    68   35   36 1    
    69   35   37 1    
    70   35   97 1    
    71   36   98 1    
    72   36   99 1    
    73   36  100 1    
    74   37   38 am   BACKBONE|DICT|INTERRES
    75   37  101 1    
    76   38   39 2    
    77   38   40 1    
    78   40   41 1    
    79   40   42 1    
    80   40  102 1    
    81   41  103 1    
    82   41  104 1    
    83   41  105 1    
    84   42   43 am   BACKBONE|DICT|INTERRES
    85   42  106 1    
    86   43   44 2    
    87   43   45 1    
    88   45   46 1    
    89   45   49 1    
    90   45  107 1    
    91   46   47 1    
    92   46  108 1    
    93   46  109 1    
    94   47   48 1    
    95   48  110 1    
    96   48  111 1    
    97   49   50 am   BACKBONE|DICT|INTERRES
    98   49  112 1    
    99   50   51 2    
   100   50   52 1    
   101   52   53 1    
   102   52   54 1    
   103   52  113 1    
   104   53  114 1    
   105   53  115 1    
   106   53  116 1    
   107   54   55 am   BACKBONE|DICT|INTERRES
   108   54  117 1    
   109   55   56 2    
   110   55   57 1    
   111   57   58 1    
   112   57   59 1    
   113   57  118 1    
   114   58  119 1    
   115   58  120 1    
   116   58  121 1    
   117   59   60 am   BACKBONE|DICT|INTERRES
   118   59  122 1    
   119   60   61 2    
   120   60   62 1    
   121   62   63 1    
   122   62   64 1    
   123   62  123 1    
   124   63  124 1    
   125   63  125 1    
   126   63  126 1    
   127   64   65 am   BACKBONE|DICT|INTERRES
   128   64  127 1    
   129   65   66 2    
@<TRIPOS>SUBSTRUCTURE
     1 UNK         1 GROUP             0       ****    0 ROOT    
