@<TRIPOS>MOLECULE
3R134
127   129    1
SMALL
USER_CHARGES


@<TRIPOS>ATOM
      1 CA         37.6838  -43.8490  -55.7101 C.3       0 UNK        -0.1968 
      2 C          36.9361  -45.1649  -55.8670 C.2       0 UNK         0.4852 
      3 O          37.4878  -46.1190  -56.4171 O.2       0 UNK        -0.5359 
      4 N          35.6852  -45.2208  -55.3895 N.am      1 UNK        -0.4300 
      5 CA         34.8114  -46.4009  -55.4588 C.3       1 UNK         0.0863 
      6 C6         33.3278  -46.0520  -55.1828 C.3       11 UNK        -0.0953 
      7 S7         32.6807  -44.7531  -56.2868 S.3       11 UNK        -0.2369 
      8 C8         32.4034  -43.3825  -55.1207 C.3       11 UNK         0.0226 
      9 C9         31.1712  -43.6116  -54.2570 C.ar      11 UNK        -0.0699 
     10 C10        31.2947  -44.0812  -52.9460 C.ar      11 UNK        -0.0804 
     11 C11        30.1611  -44.2833  -52.1526 C.ar      11 UNK        -0.0871 
     12 C12        28.8957  -43.9916  -52.6725 C.ar      11 UNK        -0.1008 
     13 C13        28.7614  -43.5150  -53.9808 C.ar      11 UNK        -0.0735 
     14 C14        29.9018  -43.3316  -54.7675 C.ar      11 UNK        -0.0945 
     15 C15        27.3918  -43.1728  -54.5447 C.3       11 UNK         0.0169 
     16 S16        26.3817  -44.6622  -54.7942 S.3       11 UNK        -0.2669 
     17 C17        25.1036  -44.0303  -55.9379 C.3       11 UNK        -0.0850 
     18 CA         24.9215  -44.9181  -57.2045 C.3       10 UNK         0.0855 
     19 C          23.8084  -44.3859  -58.1565 C.2       10 UNK         0.5543 
     20 N          23.9400  -44.5185  -59.4717 N.am      10 UNK        -0.7343 
     21 O          22.7932  -43.8680  -57.6971 O.2       10 UNK        -0.5027 
     22 N          26.1804  -45.2668  -57.8840 N.am      10 UNK        -0.4495 
     23 C          27.0754  -44.4175  -58.4093 C.2       10 UNK         0.4903 
     24 O          26.9794  -43.1916  -58.3504 O.2       10 UNK        -0.4860 
     25 CA         28.2896  -45.0329  -59.1344 C.3       9 UNK         0.0227 
     26 CB         29.5260  -44.9974  -58.2216 C.3       9 UNK        -0.1964 
     27 N          28.0722  -46.4095  -59.5894 N.am      9 UNK        -0.4231 
     28 C          27.1991  -46.7839  -60.5364 C.2       9 UNK         0.5014 
     29 O          26.5299  -45.9927  -61.2024 O.2       9 UNK        -0.5270 
     30 CA         27.0007  -48.2997  -60.7397 C.3       8 UNK         0.0284 
     31 CB         27.9111  -48.8143  -61.8664 C.3       8 UNK        -0.1977 
     32 N          27.2177  -49.1071  -59.5294 N.am      8 UNK        -0.4342 
     33 C          26.5529  -48.9609  -58.3734 C.2       8 UNK         0.5039 
     34 O          25.6747  -48.1109  -58.2114 O.2       8 UNK        -0.5547 
     35 CA         26.9513  -49.8786  -57.2003 C.3       7 UNK         0.0281 
     36 CB         28.4103  -50.3716  -57.2793 C.3       7 UNK        -0.1963 
     37 N          26.7614  -49.1636  -55.9372 N.am      7 UNK        -0.4444 
     38 C          25.6413  -49.1733  -55.2010 C.2       7 UNK         0.5104 
     39 O          24.6771  -49.9048  -55.4346 O.2       7 UNK        -0.5100 
     40 CA         25.5739  -48.1785  -54.0208 C.3       6 UNK         0.0396 
     41 CB         24.7017  -48.6905  -52.8544 C.3       6 UNK        -0.1801 
     42 N          26.8900  -47.7209  -53.5469 N.am      6 UNK        -0.4747 
     43 C          27.8398  -48.4764  -52.9771 C.2       6 UNK         0.5012 
     44 O          27.6974  -49.6732  -52.7135 O.2       6 UNK        -0.5003 
     45 CA         29.1801  -47.7885  -52.6510 C.3       5 UNK         0.0782 
     46 C46        29.2289  -47.3832  -51.1580 C.3       11 UNK        -0.0868 
     47 S47        30.7887  -46.5588  -50.6950 S.3       11 UNK        -0.2515 
     48 C48        30.3155  -44.8000  -50.7295 C.3       11 UNK         0.0199 
     49 N          30.2709  -48.6916  -53.0244 N.am      5 UNK        -0.4607 
     50 C          30.6308  -48.9532  -54.2849 C.2       4 UNK         0.5031 
     51 O          30.1812  -48.3320  -55.2496 O.2       4 UNK        -0.5119 
     52 CA         31.6226  -50.1143  -54.5115 C.3       4 UNK         0.0263 
     53 CB         32.2198  -50.1119  -55.9317 C.3       4 UNK        -0.1967 
     54 N          32.7105  -50.1808  -53.5252 N.am      4 UNK        -0.4237 
     55 C          32.5996  -50.7000  -52.2916 C.2       3 UNK         0.4908 
     56 O          31.5277  -51.0786  -51.8183 O.2       3 UNK        -0.5102 
     57 CA         33.8708  -50.8494  -51.4342 C.3       3 UNK         0.0241 
     58 CB         34.3055  -52.3237  -51.3798 C.3       3 UNK        -0.1971 
     59 N          34.9982  -50.0428  -51.9011 N.am      3 UNK        -0.4139 
     60 C          35.1459  -48.7337  -51.6648 C.2       2 UNK         0.5016 
     61 O          34.3582  -48.0644  -50.9960 O.2       2 UNK        -0.5319 
     62 CA         36.3616  -48.0347  -52.3028 C.3       2 UNK         0.0286 
     63 CB         37.4838  -48.9952  -52.7614 C.3       2 UNK        -0.1963 
     64 N          35.9396  -47.1629  -53.4043 N.am      2 UNK        -0.4790 
     65 C          35.2587  -47.5267  -54.5038 C.2       1 UNK         0.5024 
     66 O          34.9569  -48.6922  -54.7653 O.2       1 UNK        -0.4888 
     67 H67        37.9716  -43.4627  -56.6875 H         1 UNK         0.0892 
     68 H68        37.0789  -43.0917  -55.2118 H         1 UNK         0.0892 
     69 H69        38.5894  -43.9997  -55.1231 H         1 UNK         0.0892 
     70 H70        35.2768  -44.3975  -54.9724 H         1 UNK         0.3107 
     71 H71        34.8773  -46.8016  -56.4729 H         1 UNK         0.0773 
     72 H72        32.6981  -46.9315  -55.3235 H         1 UNK         0.0680 
     73 H73        33.1933  -45.7566  -54.1422 H         1 UNK         0.0680 
     74 H74        32.2789  -42.4606  -55.6907 H         1 UNK         0.0650 
     75 H75        33.2896  -43.2380  -54.5014 H         1 UNK         0.0650 
     76 H76        32.2731  -44.2955  -52.5383 H         1 UNK         0.1397 
     77 H77        28.0132  -44.1333  -52.0632 H         1 UNK         0.1363 
     78 H78        29.8050  -42.9604  -55.7781 H         1 UNK         0.1355 
     79 H79        26.8733  -42.4929  -53.8673 H         1 UNK         0.0707 
     80 H80        27.5001  -42.6446  -55.4935 H         1 UNK         0.0707 
     81 H81        24.1659  -43.9737  -55.3824 H         1 UNK         0.1034 
     82 H82        25.3332  -43.0046  -56.2300 H         1 UNK         0.1034 
     83 H83        24.5346  -45.8756  -56.8542 H         1 UNK         0.0482 
     84 H84        24.7641  -44.9519  -59.8629 H         1 UNK         0.3460 
     85 H85        23.2101  -44.1805  -60.0786 H         1 UNK         0.3460 
     86 H86        26.3020  -46.2640  -58.0317 H         1 UNK         0.2989 
     87 H87        28.4943  -44.4194  -60.0140 H         1 UNK         0.0559 
     88 H88        29.7658  -43.9730  -57.9355 H         1 UNK         0.0848 
     89 H89        29.3709  -45.5634  -57.3013 H         1 UNK         0.0848 
     90 H90        30.4065  -45.4021  -58.7209 H         1 UNK         0.0848 
     91 H91        28.5765  -47.1334  -59.0993 H         1 UNK         0.3144 
     92 H92        25.9629  -48.4484  -61.0453 H         1 UNK         0.0727 
     93 H93        27.7075  -49.8604  -62.0963 H         1 UNK         0.0790 
     94 H94        28.9668  -48.7250  -61.6068 H         1 UNK         0.0790 
     95 H95        27.7529  -48.2474  -62.7852 H         1 UNK         0.0790 
     96 H96        27.9244  -49.8265  -59.5872 H         1 UNK         0.3215 
     97 H97        26.2950  -50.7509  -57.2312 H         1 UNK         0.0863 
     98 H98        28.5557  -51.0622  -58.1106 H         1 UNK         0.0808 
     99 H99        29.1118  -49.5457  -57.4035 H         1 UNK         0.0808 
    100 H100       28.6929  -50.9087  -56.3733 H         1 UNK         0.0808 
    101 H101       27.4922  -48.5177  -55.6741 H         1 UNK         0.3118 
    102 H102       25.0781  -47.2938  -54.4211 H         1 UNK         0.0546 
    103 H103       23.6749  -48.8603  -53.1804 H         1 UNK         0.0828 
    104 H104       24.6642  -47.9678  -52.0395 H         1 UNK         0.0828 
    105 H105       25.0709  -49.6339  -52.4519 H         1 UNK         0.0828 
    106 H106       27.0871  -46.7442  -53.7323 H         1 UNK         0.3005 
    107 H107       29.2691  -46.8843  -53.2585 H         1 UNK         0.1257 
    108 H108       29.1190  -48.2632  -50.5211 H         1 UNK         0.0775 
    109 H109       28.3918  -46.7274  -50.9113 H         1 UNK         0.0775 
    110 H110       29.4010  -44.6509  -50.1534 H         1 UNK         0.0840 
    111 H111       31.0885  -44.2206  -50.2225 H         1 UNK         0.0840 
    112 H112       30.6311  -49.2944  -52.2942 H         1 UNK         0.2987 
    113 H113       31.0343  -51.0300  -54.4201 H         1 UNK         0.0785 
    114 H114       31.4387  -50.2166  -56.6851 H         1 UNK         0.0798 
    115 H115       32.9145  -50.9397  -56.0737 H         1 UNK         0.0798 
    116 H116       32.7524  -49.1863  -56.1471 H         1 UNK         0.0798 
    117 H117       33.6110  -49.8252  -53.8327 H         1 UNK         0.3079 
    118 H118       33.6145  -50.5354  -50.4198 H         1 UNK         0.0794 
    119 H119       33.5009  -52.9550  -50.9996 H         1 UNK         0.0786 
    120 H120       35.1612  -52.4613  -50.7184 H         1 UNK         0.0786 
    121 H121       34.5777  -52.7020  -52.3661 H         1 UNK         0.0786 
    122 H122       35.6805  -50.5033  -52.4864 H         1 UNK         0.3032 
    123 H123       36.7788  -47.3885  -51.5283 H         1 UNK         0.1094 
    124 H124       38.3538  -48.4358  -53.1059 H         1 UNK         0.0794 
    125 H125       37.8197  -49.6289  -51.9393 H         1 UNK         0.0794 
    126 H126       37.1741  -49.6465  -53.5791 H         1 UNK         0.0794 
    127 H127       36.1153  -46.1769  -53.2718 H         1 UNK         0.3016 
@<TRIPOS>BOND
     1    1    2 1    
     2    1   67 1    
     3    1   68 1    
     4    1   69 1    
     5    2    3 2    
     6    2    4 am   BACKBONE|DICT|INTERRES
     7    4    5 1    
     8    4   70 1    
     9    5    6 1    
    10    5   65 1    
    11    5   71 1    
    12    6    7 1    
    13    6   72 1    
    14    6   73 1    
    15    7    8 1    
    16    8    9 1    
    17    8   74 1    
    18    8   75 1    
    19    9   10 ar   
    20    9   14 ar   
    21   10   11 ar   
    22   10   76 1    
    23   11   12 ar   
    24   11   48 1    
    25   12   13 ar   
    26   12   77 1    
    27   13   14 ar   
    28   13   15 1    
    29   14   78 1    
    30   15   16 1    
    31   15   79 1    
    32   15   80 1    
    33   16   17 1    
    34   17   18 1    
    35   17   81 1    
    36   17   82 1    
    37   18   19 1    
    38   18   22 1    
    39   18   83 1    
    40   19   20 am   BACKBONE|DICT|INTERRES
    41   19   21 2    
    42   20   84 1    
    43   20   85 1    
    44   22   23 am   BACKBONE|DICT|INTERRES
    45   22   86 1    
    46   23   24 2    
    47   23   25 1    
    48   25   26 1    
    49   25   27 1    
    50   25   87 1    
    51   26   88 1    
    52   26   89 1    
    53   26   90 1    
    54   27   28 am   BACKBONE|DICT|INTERRES
    55   27   91 1    
    56   28   29 2    
    57   28   30 1    
    58   30   31 1    
    59   30   32 1    
    60   30   92 1    
    61   31   93 1    
    62   31   94 1    
    63   31   95 1    
    64   32   33 am   BACKBONE|DICT|INTERRES
    65   32   96 1    
    66   33   34 2    
    67   33   35 1    
    68   35   36 1    
    69   35   37 1    
    70   35   97 1    
    71   36   98 1    
    72   36   99 1    
    73   36  100 1    
    74   37   38 am   BACKBONE|DICT|INTERRES
    75   37  101 1    
    76   38   39 2    
    77   38   40 1    
    78   40   41 1    
    79   40   42 1    
    80   40  102 1    
    81   41  103 1    
    82   41  104 1    
    83   41  105 1    
    84   42   43 am   BACKBONE|DICT|INTERRES
    85   42  106 1    
    86   43   44 2    
    87   43   45 1    
    88   45   46 1    
    89   45   49 1    
    90   45  107 1    
    91   46   47 1    
    92   46  108 1    
    93   46  109 1    
    94   47   48 1    
    95   48  110 1    
    96   48  111 1    
    97   49   50 am   BACKBONE|DICT|INTERRES
    98   49  112 1    
    99   50   51 2    
   100   50   52 1    
   101   52   53 1    
   102   52   54 1    
   103   52  113 1    
   104   53  114 1    
   105   53  115 1    
   106   53  116 1    
   107   54   55 am   BACKBONE|DICT|INTERRES
   108   54  117 1    
   109   55   56 2    
   110   55   57 1    
   111   57   58 1    
   112   57   59 1    
   113   57  118 1    
   114   58  119 1    
   115   58  120 1    
   116   58  121 1    
   117   59   60 am   BACKBONE|DICT|INTERRES
   118   59  122 1    
   119   60   61 2    
   120   60   62 1    
   121   62   63 1    
   122   62   64 1    
   123   62  123 1    
   124   63  124 1    
   125   63  125 1    
   126   63  126 1    
   127   64   65 am   BACKBONE|DICT|INTERRES
   128   64  127 1    
   129   65   66 2    
@<TRIPOS>SUBSTRUCTURE
     1 UNK         1 GROUP             0       ****    0 ROOT    
