@<TRIPOS>MOLECULE
3R134
127   129    1
SMALL
USER_CHARGES


@<TRIPOS>ATOM
      1 CA         33.5824  -45.5238  -51.4897 C.3       0 UNK        -0.1968 
      2 C          34.3889  -45.2999  -52.7611 C.2       0 UNK         0.4852 
      3 O          35.0425  -44.2646  -52.8983 O.2       0 UNK        -0.5359 
      4 N          34.3373  -46.2582  -53.6903 N.am      1 UNK        -0.4300 
      5 CA         34.9862  -46.2003  -55.0014 C.3       1 UNK         0.0863 
      6 C6         34.2439  -45.2970  -56.0315 C.3       11 UNK        -0.0953 
      7 S7         32.4293  -45.5316  -56.0671 S.3       11 UNK        -0.2369 
      8 C8         31.8715  -43.9272  -55.4070 C.3       11 UNK         0.0226 
      9 C9         30.5226  -44.0362  -54.7148 C.ar      11 UNK        -0.0699 
     10 C10        30.4151  -43.8164  -53.3385 C.ar      11 UNK        -0.0804 
     11 C11        29.1747  -43.9088  -52.7003 C.ar      11 UNK        -0.0871 
     12 C12        28.0355  -44.2213  -53.4497 C.ar      11 UNK        -0.1008 
     13 C13        28.1330  -44.4464  -54.8256 C.ar      11 UNK        -0.0735 
     14 C14        29.3780  -44.3470  -55.4515 C.ar      11 UNK        -0.0945 
     15 C15        26.9036  -44.8387  -55.6302 C.3       11 UNK         0.0169 
     16 S16        25.7566  -43.4520  -55.9006 S.3       11 UNK        -0.2669 
     17 C17        26.7062  -42.3290  -56.9846 C.3       11 UNK        -0.0850 
     18 CA         26.4027  -42.5554  -58.4973 C.3       10 UNK         0.0855 
     19 C          26.7039  -41.3032  -59.3818 C.2       10 UNK         0.5543 
     20 N          27.0487  -41.4646  -60.6537 N.am      10 UNK        -0.7343 
     21 O          26.5878  -40.1675  -58.9272 O.2       10 UNK        -0.5027 
     22 N          26.9703  -43.8213  -59.0053 N.am      10 UNK        -0.4495 
     23 C          28.2753  -44.0984  -59.1511 C.2       10 UNK         0.4903 
     24 O          29.1761  -43.3082  -58.8681 O.2       10 UNK        -0.4860 
     25 CA         28.6342  -45.4922  -59.6965 C.3       9 UNK         0.0227 
     26 CB         30.0612  -45.9301  -59.3101 C.3       9 UNK        -0.1964 
     27 N          27.6929  -46.5075  -59.2236 N.am      9 UNK        -0.4231 
     28 C          26.8819  -47.2523  -59.9813 C.2       9 UNK         0.5014 
     29 O          26.7733  -47.1229  -61.2020 O.2       9 UNK        -0.5270 
     30 CA         26.0805  -48.3433  -59.2393 C.3       8 UNK         0.0284 
     31 CB         25.1969  -49.1793  -60.1848 C.3       8 UNK        -0.1977 
     32 N          26.9584  -49.2460  -58.4843 N.am      8 UNK        -0.4342 
     33 C          27.5330  -48.9569  -57.3104 C.2       8 UNK         0.5039 
     34 O          27.3809  -47.8817  -56.7268 O.2       8 UNK        -0.5547 
     35 CA         28.4984  -49.9993  -56.7322 C.3       7 UNK         0.0281 
     36 CB         29.9490  -49.6382  -57.0971 C.3       7 UNK        -0.1963 
     37 N          28.3737  -50.0676  -55.2773 N.am      7 UNK        -0.4444 
     38 C          27.3822  -50.6868  -54.6235 C.2       7 UNK         0.5104 
     39 O          26.4800  -51.3102  -55.1846 O.2       7 UNK        -0.5100 
     40 CA         27.4103  -50.6330  -53.0843 C.3       6 UNK         0.0396 
     41 CB         27.8401  -51.9929  -52.5097 C.3       6 UNK        -0.1801 
     42 N          28.3012  -49.5958  -52.5555 N.am      6 UNK        -0.4747 
     43 C          27.9789  -48.3017  -52.4151 C.2       6 UNK         0.5012 
     44 O          26.8770  -47.8487  -52.7261 O.2       6 UNK        -0.5003 
     45 CA         29.0637  -47.3442  -51.8680 C.3       5 UNK         0.0782 
     46 C46        28.5116  -46.4201  -50.7455 C.3       11 UNK        -0.0868 
     47 S47        29.7014  -45.1212  -50.2647 S.3       11 UNK        -0.2515 
     48 C48        29.0733  -43.6884  -51.1982 C.3       11 UNK         0.0199 
     49 N          30.3283  -48.0128  -51.5194 N.am      5 UNK        -0.4607 
     50 C          30.5790  -48.8207  -50.4812 C.2       4 UNK         0.5031 
     51 O          29.7291  -49.1745  -49.6637 O.2       4 UNK        -0.5119 
     52 CA         32.0197  -49.3642  -50.3860 C.3       4 UNK         0.0263 
     53 CB         32.2680  -50.1582  -49.0899 C.3       4 UNK        -0.1967 
     54 N          32.3567  -50.2119  -51.5348 N.am      4 UNK        -0.4237 
     55 C          32.6353  -49.7675  -52.7660 C.2       3 UNK         0.4908 
     56 O          32.6722  -48.5670  -53.0661 O.2       3 UNK        -0.5102 
     57 CA         32.8770  -50.8328  -53.8443 C.3       3 UNK         0.0241 
     58 CB         31.6233  -51.6879  -54.1019 C.3       3 UNK        -0.1971 
     59 N          33.2551  -50.1275  -55.0596 N.am      3 UNK        -0.4139 
     60 C          34.1014  -50.5475  -56.0028 C.2       2 UNK         0.5016 
     61 O          34.5398  -51.6959  -56.0792 O.2       2 UNK        -0.5319 
     62 CA         34.5664  -49.4807  -57.0131 C.3       2 UNK         0.0286 
     63 CB         33.7358  -49.5562  -58.3044 C.3       2 UNK        -0.1963 
     64 N          34.5062  -48.1110  -56.4817 N.am      2 UNK        -0.4790 
     65 C          35.2475  -47.6425  -55.4660 C.2       1 UNK         0.5024 
     66 O          36.1042  -48.3111  -54.8856 O.2       1 UNK        -0.4888 
     67 H67        33.1584  -44.5837  -51.1377 H         1 UNK         0.0892 
     68 H68        32.7576  -46.2157  -51.6554 H         1 UNK         0.0892 
     69 H69        34.2202  -45.9272  -50.7039 H         1 UNK         0.0892 
     70 H70        33.7960  -47.1012  -53.5093 H         1 UNK         0.3107 
     71 H71        35.9811  -45.7720  -54.8604 H         1 UNK         0.0773 
     72 H72        34.6390  -45.4408  -57.0388 H         1 UNK         0.0680 
     73 H73        34.4637  -44.2539  -55.8017 H         1 UNK         0.0680 
     74 H74        32.6122  -43.5376  -54.7073 H         1 UNK         0.0650 
     75 H75        31.8074  -43.2072  -56.2241 H         1 UNK         0.0650 
     76 H76        31.2967  -43.5801  -52.7586 H         1 UNK         0.1397 
     77 H77        27.0726  -44.3052  -52.9642 H         1 UNK         0.1363 
     78 H78        29.4651  -44.5229  -56.5130 H         1 UNK         0.1355 
     79 H79        27.1916  -45.2550  -56.5939 H         1 UNK         0.0707 
     80 H80        26.3757  -45.6367  -55.1054 H         1 UNK         0.0707 
     81 H81        26.4235  -41.3204  -56.6790 H         1 UNK         0.1034 
     82 H82        27.7740  -42.4016  -56.7778 H         1 UNK         0.1034 
     83 H83        25.3224  -42.6719  -58.5909 H         1 UNK         0.0482 
     84 H84        27.1346  -42.3882  -61.0460 H         1 UNK         0.3460 
     85 H85        27.2297  -40.6533  -61.2237 H         1 UNK         0.3460 
     86 H86        26.2989  -44.5228  -59.2813 H         1 UNK         0.2989 
     87 H87        28.5926  -45.4144  -60.7845 H         1 UNK         0.0559 
     88 H88        30.1790  -46.0186  -58.2300 H         1 UNK         0.0848 
     89 H89        30.8064  -45.2163  -59.6637 H         1 UNK         0.0848 
     90 H90        30.3098  -46.8959  -59.7500 H         1 UNK         0.0848 
     91 H91        27.6961  -46.7102  -58.2256 H         1 UNK         0.3144 
     92 H92        25.4186  -47.8316  -58.5369 H         1 UNK         0.0727 
     93 H93        24.6034  -49.9081  -59.6324 H         1 UNK         0.0790 
     94 H94        25.7913  -49.7196  -60.9227 H         1 UNK         0.0790 
     95 H95        24.4979  -48.5440  -60.7306 H         1 UNK         0.0790 
     96 H96        27.1732  -50.1296  -58.9245 H         1 UNK         0.3215 
     97 H97        28.2637  -50.9800  -57.1523 H         1 UNK         0.0863 
     98 H98        30.6488  -50.3950  -56.7433 H         1 UNK         0.0808 
     99 H99        30.2474  -48.6778  -56.6737 H         1 UNK         0.0808 
    100 H100       30.0731  -49.5675  -58.1786 H         1 UNK         0.0808 
    101 H101       29.0211  -49.5145  -54.7384 H         1 UNK         0.3118 
    102 H102       26.3921  -50.4308  -52.7451 H         1 UNK         0.0546 
    103 H103       28.8466  -52.2682  -52.8253 H         1 UNK         0.0828 
    104 H104       27.1682  -52.7860  -52.8412 H         1 UNK         0.0828 
    105 H105       27.8184  -51.9883  -51.4197 H         1 UNK         0.0828 
    106 H106       29.2132  -49.8908  -52.2395 H         1 UNK         0.3005 
    107 H107       29.3089  -46.7086  -52.7199 H         1 UNK         0.1257 
    108 H108       28.2584  -46.9997  -49.8569 H         1 UNK         0.0775 
    109 H109       27.5814  -45.9409  -51.0551 H         1 UNK         0.0775 
    110 H110       28.0432  -43.4830  -50.9026 H         1 UNK         0.0840 
    111 H111       29.6504  -42.8050  -50.9212 H         1 UNK         0.0840 
    112 H112       31.0963  -47.8540  -52.1647 H         1 UNK         0.2987 
    113 H113       32.6906  -48.5022  -50.3771 H         1 UNK         0.0785 
    114 H114       33.3084  -50.4741  -49.0113 H         1 UNK         0.0798 
    115 H115       31.6411  -51.0491  -49.0330 H         1 UNK         0.0798 
    116 H116       32.0496  -49.5493  -48.2115 H         1 UNK         0.0798 
    117 H117       32.3307  -51.2089  -51.3745 H         1 UNK         0.3079 
    118 H118       33.7034  -51.4686  -53.5194 H         1 UNK         0.0794 
    119 H119       31.3717  -52.2951  -53.2321 H         1 UNK         0.0786 
    120 H120       31.7763  -52.3733  -54.9358 H         1 UNK         0.0786 
    121 H121       30.7573  -51.0708  -54.3345 H         1 UNK         0.0786 
    122 H122       33.0007  -49.1478  -55.0504 H         1 UNK         0.3032 
    123 H123       35.6077  -49.7024  -57.2580 H         1 UNK         0.1094 
    124 H124       34.1259  -48.8811  -59.0664 H         1 UNK         0.0794 
    125 H125       33.7564  -50.5628  -58.7246 H         1 UNK         0.0794 
    126 H126       32.6917  -49.2965  -58.1295 H         1 UNK         0.0794 
    127 H127       33.8157  -47.4913  -56.8856 H         1 UNK         0.3016 
@<TRIPOS>BOND
     1    1    2 1    
     2    1   67 1    
     3    1   68 1    
     4    1   69 1    
     5    2    3 2    
     6    2    4 am   BACKBONE|DICT|INTERRES
     7    4    5 1    
     8    4   70 1    
     9    5    6 1    
    10    5   65 1    
    11    5   71 1    
    12    6    7 1    
    13    6   72 1    
    14    6   73 1    
    15    7    8 1    
    16    8    9 1    
    17    8   74 1    
    18    8   75 1    
    19    9   10 ar   
    20    9   14 ar   
    21   10   11 ar   
    22   10   76 1    
    23   11   12 ar   
    24   11   48 1    
    25   12   13 ar   
    26   12   77 1    
    27   13   14 ar   
    28   13   15 1    
    29   14   78 1    
    30   15   16 1    
    31   15   79 1    
    32   15   80 1    
    33   16   17 1    
    34   17   18 1    
    35   17   81 1    
    36   17   82 1    
    37   18   19 1    
    38   18   22 1    
    39   18   83 1    
    40   19   20 am   BACKBONE|DICT|INTERRES
    41   19   21 2    
    42   20   84 1    
    43   20   85 1    
    44   22   23 am   BACKBONE|DICT|INTERRES
    45   22   86 1    
    46   23   24 2    
    47   23   25 1    
    48   25   26 1    
    49   25   27 1    
    50   25   87 1    
    51   26   88 1    
    52   26   89 1    
    53   26   90 1    
    54   27   28 am   BACKBONE|DICT|INTERRES
    55   27   91 1    
    56   28   29 2    
    57   28   30 1    
    58   30   31 1    
    59   30   32 1    
    60   30   92 1    
    61   31   93 1    
    62   31   94 1    
    63   31   95 1    
    64   32   33 am   BACKBONE|DICT|INTERRES
    65   32   96 1    
    66   33   34 2    
    67   33   35 1    
    68   35   36 1    
    69   35   37 1    
    70   35   97 1    
    71   36   98 1    
    72   36   99 1    
    73   36  100 1    
    74   37   38 am   BACKBONE|DICT|INTERRES
    75   37  101 1    
    76   38   39 2    
    77   38   40 1    
    78   40   41 1    
    79   40   42 1    
    80   40  102 1    
    81   41  103 1    
    82   41  104 1    
    83   41  105 1    
    84   42   43 am   BACKBONE|DICT|INTERRES
    85   42  106 1    
    86   43   44 2    
    87   43   45 1    
    88   45   46 1    
    89   45   49 1    
    90   45  107 1    
    91   46   47 1    
    92   46  108 1    
    93   46  109 1    
    94   47   48 1    
    95   48  110 1    
    96   48  111 1    
    97   49   50 am   BACKBONE|DICT|INTERRES
    98   49  112 1    
    99   50   51 2    
   100   50   52 1    
   101   52   53 1    
   102   52   54 1    
   103   52  113 1    
   104   53  114 1    
   105   53  115 1    
   106   53  116 1    
   107   54   55 am   BACKBONE|DICT|INTERRES
   108   54  117 1    
   109   55   56 2    
   110   55   57 1    
   111   57   58 1    
   112   57   59 1    
   113   57  118 1    
   114   58  119 1    
   115   58  120 1    
   116   58  121 1    
   117   59   60 am   BACKBONE|DICT|INTERRES
   118   59  122 1    
   119   60   61 2    
   120   60   62 1    
   121   62   63 1    
   122   62   64 1    
   123   62  123 1    
   124   63  124 1    
   125   63  125 1    
   126   63  126 1    
   127   64   65 am   BACKBONE|DICT|INTERRES
   128   64  127 1    
   129   65   66 2    
@<TRIPOS>SUBSTRUCTURE
     1 UNK         1 GROUP             0       ****    0 ROOT    
