@<TRIPOS>MOLECULE
3R134
127   129    1
SMALL
USER_CHARGES


@<TRIPOS>ATOM
      1 CA         38.9992  -46.0026  -53.1890 C.3       0 UNK        -0.1968 
      2 C          37.5888  -46.5414  -53.3770 C.2       0 UNK         0.4852 
      3 O          37.4197  -47.7267  -53.6707 O.2       0 UNK        -0.5359 
      4 N          36.5735  -45.6834  -53.2122 N.am      1 UNK        -0.4300 
      5 CA         35.1557  -46.0306  -53.3317 C.3       1 UNK         0.0863 
      6 C6         34.2695  -44.7973  -53.6206 C.3       11 UNK        -0.0953 
      7 S7         34.6212  -43.9795  -55.2093 S.3       11 UNK        -0.2369 
      8 C8         33.8031  -42.3696  -54.9480 C.3       11 UNK         0.0226 
      9 C9         32.2859  -42.4969  -54.8665 C.ar      11 UNK        -0.0699 
     10 C10        31.6729  -42.8404  -53.6570 C.ar      11 UNK        -0.0804 
     11 C11        30.2871  -42.9924  -53.5759 C.ar      11 UNK        -0.0871 
     12 C12        29.5036  -42.7395  -54.7046 C.ar      11 UNK        -0.1008 
     13 C13        30.0996  -42.3711  -55.9139 C.ar      11 UNK        -0.0735 
     14 C14        31.4919  -42.2626  -55.9940 C.ar      11 UNK        -0.0945 
     15 C15        29.2296  -42.0960  -57.1280 C.3       11 UNK         0.0169 
     16 S16        28.7971  -43.6444  -57.9696 S.3       11 UNK        -0.2669 
     17 C17        27.4882  -43.0646  -59.1030 C.3       11 UNK        -0.0850 
     18 CA         26.0526  -43.2408  -58.5350 C.3       10 UNK         0.0855 
     19 C          25.0061  -42.7782  -59.5905 C.2       10 UNK         0.5543 
     20 N          24.2842  -43.6800  -60.2452 N.am      10 UNK        -0.7343 
     21 O          24.8551  -41.5809  -59.8195 O.2       10 UNK        -0.5027 
     22 N          25.8505  -44.5983  -58.0078 N.am      10 UNK        -0.4495 
     23 C          24.7916  -45.0544  -57.3273 C.2       10 UNK         0.4903 
     24 O          23.8321  -44.3511  -57.0085 O.2       10 UNK        -0.4860 
     25 CA         24.8115  -46.5410  -56.9074 C.3       9 UNK         0.0227 
     26 CB         23.4713  -47.2462  -57.2017 C.3       9 UNK        -0.1964 
     27 N          25.9453  -47.3101  -57.4455 N.am      9 UNK        -0.4231 
     28 C          26.2083  -47.5969  -58.7314 C.2       9 UNK         0.5014 
     29 O          25.4823  -47.2754  -59.6729 O.2       9 UNK        -0.5270 
     30 CA         27.5356  -48.3111  -59.0256 C.3       8 UNK         0.0284 
     31 CB         28.6738  -47.2855  -59.1509 C.3       8 UNK        -0.1977 
     32 N          27.8778  -49.3112  -58.0122 N.am      8 UNK        -0.4342 
     33 C          27.2897  -50.5138  -57.9325 C.2       8 UNK         0.5039 
     34 O          26.4267  -50.9077  -58.7187 O.2       8 UNK        -0.5547 
     35 CA         27.7336  -51.4393  -56.7887 C.3       7 UNK         0.0281 
     36 CB         29.0829  -52.0991  -57.1135 C.3       7 UNK        -0.1963 
     37 N          27.8118  -50.7552  -55.4974 N.am      7 UNK        -0.4444 
     38 C          26.7569  -50.2630  -54.8325 C.2       7 UNK         0.5104 
     39 O          25.5938  -50.3418  -55.2283 O.2       7 UNK        -0.5100 
     40 CA         27.0476  -49.5568  -53.4980 C.3       6 UNK         0.0396 
     41 CB         27.1567  -50.5786  -52.3550 C.3       6 UNK        -0.1801 
     42 N          28.2584  -48.7354  -53.5362 N.am      6 UNK        -0.4747 
     43 C          28.4040  -47.6258  -54.2752 C.2       6 UNK         0.5012 
     44 O          27.5369  -47.1855  -55.0309 O.2       6 UNK        -0.5003 
     45 CA         29.7773  -46.9248  -54.1906 C.3       5 UNK         0.0782 
     46 C46        29.9948  -46.2091  -52.8284 C.3       11 UNK        -0.0868 
     47 S47        28.7052  -44.9759  -52.4165 S.3       11 UNK        -0.2515 
     48 C48        29.6414  -43.4191  -52.2649 C.3       11 UNK         0.0199 
     49 N          30.8578  -47.8784  -54.4747 N.am      5 UNK        -0.4607 
     50 C          30.9968  -48.5532  -55.6286 C.2       4 UNK         0.5031 
     51 O          30.2600  -48.4064  -56.6024 O.2       4 UNK        -0.5119 
     52 CA         32.1113  -49.6119  -55.7050 C.3       4 UNK         0.0263 
     53 CB         33.4215  -48.9720  -56.1891 C.3       4 UNK        -0.1967 
     54 N          32.3491  -50.3153  -54.4431 N.am      4 UNK        -0.4237 
     55 C          31.4326  -50.9923  -53.7340 C.2       3 UNK         0.4908 
     56 O          30.2726  -51.1664  -54.1060 O.2       3 UNK        -0.5102 
     57 CA         31.8649  -51.5306  -52.3562 C.3       3 UNK         0.0241 
     58 CB         32.1417  -53.0402  -52.4356 C.3       3 UNK        -0.1971 
     59 N          33.0340  -50.8508  -51.7809 N.am      3 UNK        -0.4139 
     60 C          33.1041  -49.5428  -51.4908 C.2       2 UNK         0.5016 
     61 O          32.1650  -48.7636  -51.6688 O.2       2 UNK        -0.5319 
     62 CA         34.4550  -48.9982  -50.9862 C.3       2 UNK         0.0286 
     63 CB         35.5121  -50.0842  -50.6967 C.3       2 UNK        -0.1963 
     64 N          34.9927  -48.0682  -51.9801 N.am      2 UNK        -0.4790 
     65 C          34.6697  -46.7729  -52.0688 C.2       1 UNK         0.5024 
     66 O          34.0275  -46.1690  -51.2070 O.2       1 UNK        -0.4888 
     67 H67        39.0011  -44.9413  -52.9411 H         1 UNK         0.0892 
     68 H68        39.5014  -46.5399  -52.3850 H         1 UNK         0.0892 
     69 H69        39.5768  -46.1382  -54.1030 H         1 UNK         0.0892 
     70 H70        36.7675  -44.7244  -52.9619 H         1 UNK         0.3107 
     71 H71        35.0404  -46.7134  -54.1754 H         1 UNK         0.0773 
     72 H72        33.2216  -45.1006  -53.6444 H         1 UNK         0.0680 
     73 H73        34.3713  -44.0640  -52.8185 H         1 UNK         0.0680 
     74 H74        34.0779  -41.7032  -55.7669 H         1 UNK         0.0650 
     75 H75        34.1901  -41.9062  -54.0392 H         1 UNK         0.0650 
     76 H76        32.2786  -43.0083  -52.7779 H         1 UNK         0.1397 
     77 H77        28.4284  -42.8440  -54.6456 H         1 UNK         0.1363 
     78 H78        31.9566  -41.9930  -56.9327 H         1 UNK         0.1355 
     79 H79        29.7407  -41.4314  -57.8265 H         1 UNK         0.0707 
     80 H80        28.3189  -41.5815  -56.8171 H         1 UNK         0.0707 
     81 H81        27.5941  -43.6239  -60.0348 H         1 UNK         0.1034 
     82 H82        27.6729  -42.0199  -59.3621 H         1 UNK         0.1034 
     83 H83        25.9478  -42.5649  -57.6845 H         1 UNK         0.0482 
     84 H84        23.6076  -43.3753  -60.9270 H         1 UNK         0.3460 
     85 H85        24.4137  -44.6637  -60.0624 H         1 UNK         0.3460 
     86 H86        26.5996  -45.2465  -58.1948 H         1 UNK         0.2989 
     87 H87        24.9474  -46.5407  -55.8251 H         1 UNK         0.0559 
     88 H88        23.2254  -47.2282  -58.2636 H         1 UNK         0.0848 
     89 H89        22.6499  -46.7621  -56.6722 H         1 UNK         0.0848 
     90 H90        23.4940  -48.2873  -56.8790 H         1 UNK         0.0848 
     91 H91        26.6385  -47.5621  -56.7453 H         1 UNK         0.3144 
     92 H92        27.4343  -48.8162  -59.9888 H         1 UNK         0.0727 
     93 H93        29.6127  -47.7672  -59.4241 H         1 UNK         0.0790 
     94 H94        28.8371  -46.7465  -58.2166 H         1 UNK         0.0790 
     95 H95        28.4528  -46.5448  -59.9208 H         1 UNK         0.0790 
     96 H96        28.6169  -49.0659  -57.3563 H         1 UNK         0.3215 
     97 H97        26.9868  -52.2309  -56.6954 H         1 UNK         0.0863 
     98 H98        29.3884  -52.7896  -56.3270 H         1 UNK         0.0808 
     99 H99        29.8730  -51.3593  -57.2363 H         1 UNK         0.0808 
    100 H100       29.0237  -52.6690  -58.0417 H         1 UNK         0.0808 
    101 H101       28.7266  -50.7099  -55.0528 H         1 UNK         0.3118 
    102 H102       26.2050  -48.8962  -53.2827 H         1 UNK         0.0546 
    103 H103       26.2544  -51.1882  -52.2908 H         1 UNK         0.0828 
    104 H104       27.2816  -50.0849  -51.3913 H         1 UNK         0.0828 
    105 H105       27.9984  -51.2577  -52.4966 H         1 UNK         0.0828 
    106 H106       29.0455  -49.0585  -52.9919 H         1 UNK         0.3005 
    107 H107       29.7981  -46.1652  -54.9764 H         1 UNK         0.1257 
    108 H108       30.9700  -45.7208  -52.8229 H         1 UNK         0.0775 
    109 H109       30.0299  -46.9382  -52.0169 H         1 UNK         0.0775 
    110 H110       28.9628  -42.6318  -51.9340 H         1 UNK         0.0840 
    111 H111       30.3871  -43.5313  -51.4760 H         1 UNK         0.0840 
    112 H112       31.4725  -48.1023  -53.7015 H         1 UNK         0.2987 
    113 H113       31.8083  -50.3588  -56.4399 H         1 UNK         0.0785 
    114 H114       33.7927  -48.2298  -55.4830 H         1 UNK         0.0798 
    115 H115       33.2776  -48.4670  -57.1455 H         1 UNK         0.0798 
    116 H116       34.2012  -49.7198  -56.3344 H         1 UNK         0.0798 
    117 H117       33.2777  -50.2433  -54.0559 H         1 UNK         0.3079 
    118 H118       31.0257  -51.3714  -51.6758 H         1 UNK         0.0794 
    119 H119       32.9903  -53.2624  -53.0840 H         1 UNK         0.0786 
    120 H120       31.2783  -53.5749  -52.8346 H         1 UNK         0.0786 
    121 H121       32.3511  -53.4586  -51.4509 H         1 UNK         0.0786 
    122 H122       33.8500  -51.4213  -51.6114 H         1 UNK         0.3032 
    123 H123       34.2540  -48.4669  -50.0529 H         1 UNK         0.1094 
    124 H124       36.4218  -49.6387  -50.2929 H         1 UNK         0.0794 
    125 H125       35.1556  -50.7978  -49.9522 H         1 UNK         0.0794 
    126 H126       35.7940  -50.6399  -51.5921 H         1 UNK         0.0794 
    127 H127       35.6044  -48.4498  -52.6929 H         1 UNK         0.3016 
@<TRIPOS>BOND
     1    1    2 1    
     2    1   67 1    
     3    1   68 1    
     4    1   69 1    
     5    2    3 2    
     6    2    4 am   BACKBONE|DICT|INTERRES
     7    4    5 1    
     8    4   70 1    
     9    5    6 1    
    10    5   65 1    
    11    5   71 1    
    12    6    7 1    
    13    6   72 1    
    14    6   73 1    
    15    7    8 1    
    16    8    9 1    
    17    8   74 1    
    18    8   75 1    
    19    9   10 ar   
    20    9   14 ar   
    21   10   11 ar   
    22   10   76 1    
    23   11   12 ar   
    24   11   48 1    
    25   12   13 ar   
    26   12   77 1    
    27   13   14 ar   
    28   13   15 1    
    29   14   78 1    
    30   15   16 1    
    31   15   79 1    
    32   15   80 1    
    33   16   17 1    
    34   17   18 1    
    35   17   81 1    
    36   17   82 1    
    37   18   19 1    
    38   18   22 1    
    39   18   83 1    
    40   19   20 am   BACKBONE|DICT|INTERRES
    41   19   21 2    
    42   20   84 1    
    43   20   85 1    
    44   22   23 am   BACKBONE|DICT|INTERRES
    45   22   86 1    
    46   23   24 2    
    47   23   25 1    
    48   25   26 1    
    49   25   27 1    
    50   25   87 1    
    51   26   88 1    
    52   26   89 1    
    53   26   90 1    
    54   27   28 am   BACKBONE|DICT|INTERRES
    55   27   91 1    
    56   28   29 2    
    57   28   30 1    
    58   30   31 1    
    59   30   32 1    
    60   30   92 1    
    61   31   93 1    
    62   31   94 1    
    63   31   95 1    
    64   32   33 am   BACKBONE|DICT|INTERRES
    65   32   96 1    
    66   33   34 2    
    67   33   35 1    
    68   35   36 1    
    69   35   37 1    
    70   35   97 1    
    71   36   98 1    
    72   36   99 1    
    73   36  100 1    
    74   37   38 am   BACKBONE|DICT|INTERRES
    75   37  101 1    
    76   38   39 2    
    77   38   40 1    
    78   40   41 1    
    79   40   42 1    
    80   40  102 1    
    81   41  103 1    
    82   41  104 1    
    83   41  105 1    
    84   42   43 am   BACKBONE|DICT|INTERRES
    85   42  106 1    
    86   43   44 2    
    87   43   45 1    
    88   45   46 1    
    89   45   49 1    
    90   45  107 1    
    91   46   47 1    
    92   46  108 1    
    93   46  109 1    
    94   47   48 1    
    95   48  110 1    
    96   48  111 1    
    97   49   50 am   BACKBONE|DICT|INTERRES
    98   49  112 1    
    99   50   51 2    
   100   50   52 1    
   101   52   53 1    
   102   52   54 1    
   103   52  113 1    
   104   53  114 1    
   105   53  115 1    
   106   53  116 1    
   107   54   55 am   BACKBONE|DICT|INTERRES
   108   54  117 1    
   109   55   56 2    
   110   55   57 1    
   111   57   58 1    
   112   57   59 1    
   113   57  118 1    
   114   58  119 1    
   115   58  120 1    
   116   58  121 1    
   117   59   60 am   BACKBONE|DICT|INTERRES
   118   59  122 1    
   119   60   61 2    
   120   60   62 1    
   121   62   63 1    
   122   62   64 1    
   123   62  123 1    
   124   63  124 1    
   125   63  125 1    
   126   63  126 1    
   127   64   65 am   BACKBONE|DICT|INTERRES
   128   64  127 1    
   129   65   66 2    
@<TRIPOS>SUBSTRUCTURE
     1 UNK         1 GROUP             0       ****    0 ROOT    
