@<TRIPOS>MOLECULE
3R134
127   129    1
SMALL
USER_CHARGES


@<TRIPOS>ATOM
      1 CA         37.1964  -48.8728  -55.5186 C.3       0 UNK        -0.1968 
      2 C          35.9280  -48.0656  -55.2910 C.2       0 UNK         0.4852 
      3 O          34.8328  -48.5595  -55.5610 O.2       0 UNK        -0.5359 
      4 N          36.0579  -46.8320  -54.7817 N.am      1 UNK        -0.4300 
      5 CA         34.9407  -45.9170  -54.5148 C.3       1 UNK         0.0863 
      6 C6         35.4548  -44.4743  -54.2401 C.3       11 UNK        -0.0953 
      7 S7         34.2542  -43.2292  -53.6431 S.3       11 UNK        -0.2369 
      8 C8         32.9560  -43.2149  -54.9358 C.3       11 UNK         0.0226 
      9 C9         31.5382  -42.9969  -54.4004 C.ar      11 UNK        -0.0699 
     10 C10        31.1796  -43.3621  -53.0966 C.ar      11 UNK        -0.0804 
     11 C11        29.8738  -43.1913  -52.6331 C.ar      11 UNK        -0.0871 
     12 C12        28.9075  -42.6589  -53.4877 C.ar      11 UNK        -0.1008 
     13 C13        29.2409  -42.2986  -54.7964 C.ar      11 UNK        -0.0735 
     14 C14        30.5568  -42.4639  -55.2447 C.ar      11 UNK        -0.0945 
     15 C15        28.1704  -41.7309  -55.7155 C.3       11 UNK         0.0169 
     16 S16        27.4443  -43.0262  -56.7697 S.3       11 UNK        -0.2669 
     17 C17        28.5249  -42.9516  -58.2395 C.3       11 UNK        -0.0850 
     18 CA         27.7798  -43.4187  -59.5270 C.3       10 UNK         0.0855 
     19 C          28.5143  -43.0372  -60.8515 C.2       10 UNK         0.5543 
     20 N          29.0145  -41.8197  -60.9650 N.am      10 UNK        -0.7343 
     21 O          28.5910  -43.8068  -61.8069 O.2       10 UNK        -0.5027 
     22 N          27.3834  -44.8368  -59.4577 N.am      10 UNK        -0.4495 
     23 C          28.2142  -45.8865  -59.4339 C.2       10 UNK         0.4903 
     24 O          29.4429  -45.7988  -59.4141 O.2       10 UNK        -0.4860 
     25 CA         27.5447  -47.2658  -59.3990 C.3       9 UNK         0.0227 
     26 CB         28.5272  -48.4088  -59.7150 C.3       9 UNK        -0.1964 
     27 N          26.9806  -47.4920  -58.0736 N.am      9 UNK        -0.4231 
     28 C          25.6990  -47.3308  -57.7251 C.2       9 UNK         0.5014 
     29 O          24.8310  -46.9031  -58.4896 O.2       9 UNK        -0.5270 
     30 CA         25.3387  -47.7356  -56.2796 C.3       8 UNK         0.0284 
     31 CB         23.8194  -47.8625  -56.0414 C.3       8 UNK        -0.1977 
     32 N          26.0468  -48.9508  -55.8522 N.am      8 UNK        -0.4342 
     33 C          25.9903  -50.1715  -56.4087 C.2       8 UNK         0.5039 
     34 O          25.1976  -50.4872  -57.2970 O.2       8 UNK        -0.5547 
     35 CA         27.0185  -51.2171  -55.9348 C.3       7 UNK         0.0281 
     36 CB         28.0977  -51.4163  -57.0125 C.3       7 UNK        -0.1963 
     37 N          27.6764  -50.8731  -54.6721 N.am      7 UNK        -0.4444 
     38 C          27.1075  -50.9648  -53.4634 C.2       7 UNK         0.5104 
     39 O          25.9742  -51.4054  -53.2698 O.2       7 UNK        -0.5100 
     40 CA         27.9318  -50.4445  -52.2717 C.3       6 UNK         0.0396 
     41 CB         28.8965  -51.5259  -51.7613 C.3       6 UNK        -0.1801 
     42 N          28.6823  -49.2206  -52.5716 N.am      6 UNK        -0.4747 
     43 C          28.1305  -48.0501  -52.9298 C.2       6 UNK         0.5012 
     44 O          26.9197  -47.8741  -53.0660 O.2       6 UNK        -0.5003 
     45 CA         29.1048  -46.8948  -53.2276 C.3       5 UNK         0.0782 
     46 C46        29.7013  -46.3279  -51.9130 C.3       11 UNK        -0.0868 
     47 S47        28.5679  -45.1338  -51.1252 S.3       11 UNK        -0.2515 
     48 C48        29.5153  -43.5807  -51.2059 C.3       11 UNK         0.0199 
     49 N          30.1365  -47.2958  -54.1887 N.am      5 UNK        -0.4607 
     50 C          29.9009  -47.7248  -55.4379 C.2       4 UNK         0.5031 
     51 O          28.7852  -47.7549  -55.9542 O.2       4 UNK        -0.5119 
     52 CA         31.0979  -48.2754  -56.2307 C.3       4 UNK         0.0263 
     53 CB         31.8702  -47.1372  -56.9125 C.3       4 UNK        -0.1967 
     54 N          32.0023  -49.0777  -55.4031 N.am      4 UNK        -0.4237 
     55 C          31.6459  -50.2016  -54.7622 C.2       3 UNK         0.4908 
     56 O          30.5381  -50.7276  -54.8651 O.2       3 UNK        -0.5102 
     57 CA         32.6753  -50.8104  -53.7989 C.3       3 UNK         0.0241 
     58 CB         33.6877  -51.6900  -54.5497 C.3       3 UNK        -0.1971 
     59 N          33.3731  -49.7789  -53.0284 N.am      3 UNK        -0.4139 
     60 C          32.7984  -49.0392  -52.0685 C.2       2 UNK         0.5016 
     61 O          31.6345  -49.1897  -51.6932 O.2       2 UNK        -0.5319 
     62 CA         33.6552  -47.9145  -51.4565 C.3       2 UNK         0.0286 
     63 CB         34.5565  -48.4647  -50.3402 C.3       2 UNK        -0.1963 
     64 N          34.4753  -47.2110  -52.4513 N.am      2 UNK        -0.4790 
     65 C          33.9642  -46.4744  -53.4502 C.2       1 UNK         0.5024 
     66 O          32.7566  -46.2918  -53.5901 O.2       1 UNK        -0.4888 
     67 H67        37.1578  -49.8000  -54.9474 H         1 UNK         0.0892 
     68 H68        37.2921  -49.1269  -56.5738 H         1 UNK         0.0892 
     69 H69        38.0893  -48.3247  -55.2184 H         1 UNK         0.0892 
     70 H70        36.9810  -46.4761  -54.5761 H         1 UNK         0.3107 
     71 H71        34.3740  -45.8783  -55.4454 H         1 UNK         0.0773 
     72 H72        35.9229  -44.0781  -55.1427 H         1 UNK         0.0680 
     73 H73        36.2475  -44.5118  -53.4908 H         1 UNK         0.0680 
     74 H74        33.2063  -42.4351  -55.6562 H         1 UNK         0.0650 
     75 H75        32.9559  -44.1526  -55.4870 H         1 UNK         0.0650 
     76 H76        31.9131  -43.7989  -52.4346 H         1 UNK         0.1397 
     77 H77        27.8927  -42.5348  -53.1346 H         1 UNK         0.1363 
     78 H78        30.8131  -42.1894  -56.2586 H         1 UNK         0.1355 
     79 H79        28.5779  -40.9185  -56.3183 H         1 UNK         0.0707 
     80 H80        27.3713  -41.2853  -55.1214 H         1 UNK         0.0707 
     81 H81        28.8731  -41.9249  -58.3458 H         1 UNK         0.1034 
     82 H82        29.4177  -43.5515  -58.0592 H         1 UNK         0.1034 
     83 H83        26.8392  -42.8700  -59.5797 H         1 UNK         0.0482 
     84 H84        28.9237  -41.1433  -60.2251 H         1 UNK         0.3460 
     85 H85        29.4707  -41.5625  -61.8266 H         1 UNK         0.3460 
     86 H86        26.3890  -45.0160  -59.4634 H         1 UNK         0.2989 
     87 H87        26.7585  -47.2819  -60.1565 H         1 UNK         0.0559 
     88 H88        29.3399  -48.4573  -58.9901 H         1 UNK         0.0848 
     89 H89        28.9753  -48.2757  -60.7003 H         1 UNK         0.0848 
     90 H90        28.0226  -49.3748  -59.7149 H         1 UNK         0.0848 
     91 H91        27.6448  -47.7296  -57.3363 H         1 UNK         0.3144 
     92 H92        25.7074  -46.9321  -55.6401 H         1 UNK         0.0727 
     93 H93        23.3676  -48.6118  -56.6919 H         1 UNK         0.0790 
     94 H94        23.3139  -46.9160  -56.2364 H         1 UNK         0.0790 
     95 H95        23.6034  -48.1388  -55.0094 H         1 UNK         0.0790 
     96 H96        26.7440  -48.8023  -55.1321 H         1 UNK         0.3215 
     97 H97        26.4871  -52.1619  -55.8015 H         1 UNK         0.0863 
     98 H98        28.8023  -52.1985  -56.7294 H         1 UNK         0.0808 
     99 H99        28.6657  -50.5012  -57.1844 H         1 UNK         0.0808 
    100 H100       27.6534  -51.7089  -57.9648 H         1 UNK         0.0808 
    101 H101       28.6491  -50.5769  -54.7272 H         1 UNK         0.3118 
    102 H102       27.2333  -50.2076  -51.4667 H         1 UNK         0.0546 
    103 H103       28.3557  -52.4316  -51.4841 H         1 UNK         0.0828 
    104 H104       29.4397  -51.1887  -50.8782 H         1 UNK         0.0828 
    105 H105       29.6303  -51.8035  -52.5182 H         1 UNK         0.0828 
    106 H106       29.6924  -49.2684  -52.4734 H         1 UNK         0.3005 
    107 H107       28.5346  -46.1036  -53.7211 H         1 UNK         0.1257 
    108 H108       30.6530  -45.8376  -52.1067 H         1 UNK         0.0775 
    109 H109       29.9371  -47.1159  -51.1954 H         1 UNK         0.0775 
    110 H110       28.9257  -42.7835  -50.7510 H         1 UNK         0.0840 
    111 H111       30.4135  -43.6789  -50.5938 H         1 UNK         0.0840 
    112 H112       31.0998  -47.2217  -53.8753 H         1 UNK         0.2987 
    113 H113       30.7071  -48.9336  -57.0087 H         1 UNK         0.0785 
    114 H114       32.7354  -47.5111  -57.4604 H         1 UNK         0.0798 
    115 H115       32.2178  -46.3988  -56.1922 H         1 UNK         0.0798 
    116 H116       31.2339  -46.6129  -57.6256 H         1 UNK         0.0798 
    117 H117       32.9643  -48.7558  -55.3198 H         1 UNK         0.3079 
    118 H118       32.1339  -51.4469  -53.0957 H         1 UNK         0.0794 
    119 H119       33.1790  -52.4886  -55.0913 H         1 UNK         0.0786 
    120 H120       34.3892  -52.1621  -53.8618 H         1 UNK         0.0786 
    121 H121       34.2644  -51.1209  -55.2790 H         1 UNK         0.0786 
    122 H122       34.3135  -49.5511  -53.3168 H         1 UNK         0.3032 
    123 H123       32.9679  -47.1894  -51.0142 H         1 UNK         0.1094 
    124 H124       35.0996  -47.6638  -49.8383 H         1 UNK         0.0794 
    125 H125       33.9651  -48.9780  -49.5804 H         1 UNK         0.0794 
    126 H126       35.2870  -49.1790  -50.7220 H         1 UNK         0.0794 
    127 H127       35.4768  -47.3290  -52.3971 H         1 UNK         0.3016 
@<TRIPOS>BOND
     1    1    2 1    
     2    1   67 1    
     3    1   68 1    
     4    1   69 1    
     5    2    3 2    
     6    2    4 am   BACKBONE|DICT|INTERRES
     7    4    5 1    
     8    4   70 1    
     9    5    6 1    
    10    5   65 1    
    11    5   71 1    
    12    6    7 1    
    13    6   72 1    
    14    6   73 1    
    15    7    8 1    
    16    8    9 1    
    17    8   74 1    
    18    8   75 1    
    19    9   10 ar   
    20    9   14 ar   
    21   10   11 ar   
    22   10   76 1    
    23   11   12 ar   
    24   11   48 1    
    25   12   13 ar   
    26   12   77 1    
    27   13   14 ar   
    28   13   15 1    
    29   14   78 1    
    30   15   16 1    
    31   15   79 1    
    32   15   80 1    
    33   16   17 1    
    34   17   18 1    
    35   17   81 1    
    36   17   82 1    
    37   18   19 1    
    38   18   22 1    
    39   18   83 1    
    40   19   20 am   BACKBONE|DICT|INTERRES
    41   19   21 2    
    42   20   84 1    
    43   20   85 1    
    44   22   23 am   BACKBONE|DICT|INTERRES
    45   22   86 1    
    46   23   24 2    
    47   23   25 1    
    48   25   26 1    
    49   25   27 1    
    50   25   87 1    
    51   26   88 1    
    52   26   89 1    
    53   26   90 1    
    54   27   28 am   BACKBONE|DICT|INTERRES
    55   27   91 1    
    56   28   29 2    
    57   28   30 1    
    58   30   31 1    
    59   30   32 1    
    60   30   92 1    
    61   31   93 1    
    62   31   94 1    
    63   31   95 1    
    64   32   33 am   BACKBONE|DICT|INTERRES
    65   32   96 1    
    66   33   34 2    
    67   33   35 1    
    68   35   36 1    
    69   35   37 1    
    70   35   97 1    
    71   36   98 1    
    72   36   99 1    
    73   36  100 1    
    74   37   38 am   BACKBONE|DICT|INTERRES
    75   37  101 1    
    76   38   39 2    
    77   38   40 1    
    78   40   41 1    
    79   40   42 1    
    80   40  102 1    
    81   41  103 1    
    82   41  104 1    
    83   41  105 1    
    84   42   43 am   BACKBONE|DICT|INTERRES
    85   42  106 1    
    86   43   44 2    
    87   43   45 1    
    88   45   46 1    
    89   45   49 1    
    90   45  107 1    
    91   46   47 1    
    92   46  108 1    
    93   46  109 1    
    94   47   48 1    
    95   48  110 1    
    96   48  111 1    
    97   49   50 am   BACKBONE|DICT|INTERRES
    98   49  112 1    
    99   50   51 2    
   100   50   52 1    
   101   52   53 1    
   102   52   54 1    
   103   52  113 1    
   104   53  114 1    
   105   53  115 1    
   106   53  116 1    
   107   54   55 am   BACKBONE|DICT|INTERRES
   108   54  117 1    
   109   55   56 2    
   110   55   57 1    
   111   57   58 1    
   112   57   59 1    
   113   57  118 1    
   114   58  119 1    
   115   58  120 1    
   116   58  121 1    
   117   59   60 am   BACKBONE|DICT|INTERRES
   118   59  122 1    
   119   60   61 2    
   120   60   62 1    
   121   62   63 1    
   122   62   64 1    
   123   62  123 1    
   124   63  124 1    
   125   63  125 1    
   126   63  126 1    
   127   64   65 am   BACKBONE|DICT|INTERRES
   128   64  127 1    
   129   65   66 2    
@<TRIPOS>SUBSTRUCTURE
     1 UNK         1 GROUP             0       ****    0 ROOT    
