@<TRIPOS>MOLECULE
3R134
127   129    1
SMALL
USER_CHARGES


@<TRIPOS>ATOM
      1 CA         32.6247  -46.4952  -51.3426 C.3       0 UNK        -0.1968 
      2 C          33.9573  -46.0941  -51.9586 C.2       0 UNK         0.4852 
      3 O          34.8477  -45.6328  -51.2431 O.2       0 UNK        -0.5359 
      4 N          34.0953  -46.2610  -53.2798 N.am      1 UNK        -0.4300 
      5 CA         35.3082  -45.9351  -54.0428 C.3       1 UNK         0.0863 
      6 C6         34.9924  -45.6272  -55.5277 C.3       11 UNK        -0.0953 
      7 S7         33.9594  -44.1346  -55.6963 S.3       11 UNK        -0.2369 
      8 C8         32.3180  -44.8507  -56.0140 C.3       11 UNK         0.0226 
      9 C9         31.2269  -43.9048  -55.5412 C.ar      11 UNK        -0.0699 
     10 C10        30.7347  -44.0045  -54.2371 C.ar      11 UNK        -0.0804 
     11 C11        29.7327  -43.1390  -53.7824 C.ar      11 UNK        -0.0871 
     12 C12        29.2470  -42.1497  -54.6433 C.ar      11 UNK        -0.1008 
     13 C13        29.7422  -42.0294  -55.9454 C.ar      11 UNK        -0.0735 
     14 C14        30.7259  -42.9165  -56.3928 C.ar      11 UNK        -0.0945 
     15 C15        29.2374  -40.9225  -56.8599 C.3       11 UNK         0.0169 
     16 S16        28.1002  -41.5505  -58.1329 S.3       11 UNK        -0.2669 
     17 C17        26.6300  -42.0017  -57.1427 C.3       11 UNK        -0.0850 
     18 CA         26.5684  -43.5154  -56.7788 C.3       10 UNK         0.0855 
     19 C          25.3323  -43.8815  -55.9035 C.2       10 UNK         0.5543 
     20 N          24.9397  -45.1491  -55.8381 N.am      10 UNK        -0.7343 
     21 O          24.7313  -43.0182  -55.2628 O.2       10 UNK        -0.5027 
     22 N          26.7700  -44.3909  -57.9449 N.am      10 UNK        -0.4495 
     23 C          25.9620  -44.5052  -59.0088 C.2       10 UNK         0.4903 
     24 O          24.8834  -43.9218  -59.1213 O.2       10 UNK        -0.4860 
     25 CA         26.4507  -45.3974  -60.1695 C.3       9 UNK         0.0227 
     26 CB         26.8645  -44.5292  -61.3696 C.3       9 UNK        -0.1964 
     27 N          27.5724  -46.2713  -59.8054 N.am      9 UNK        -0.4231 
     28 C          27.4628  -47.3417  -59.0088 C.2       9 UNK         0.5014 
     29 O          26.3810  -47.7631  -58.5914 O.2       9 UNK        -0.5270 
     30 CA         28.7807  -48.0229  -58.5983 C.3       8 UNK         0.0284 
     31 CB         29.7642  -47.0226  -57.9555 C.3       8 UNK        -0.1977 
     32 N          28.4956  -49.0684  -57.6216 N.am      8 UNK        -0.4342 
     33 C          28.4543  -50.3837  -57.8642 C.2       8 UNK         0.5039 
     34 O          28.7720  -50.8932  -58.9404 O.2       8 UNK        -0.5547 
     35 CA         27.9782  -51.2941  -56.7164 C.3       7 UNK         0.0281 
     36 CB         29.1547  -52.0994  -56.1402 C.3       7 UNK        -0.1963 
     37 N          27.3353  -50.5337  -55.6393 N.am      7 UNK        -0.4444 
     38 C          26.0376  -50.1924  -55.6327 C.2       7 UNK         0.5104 
     39 O          25.2297  -50.5814  -56.4768 O.2       7 UNK        -0.5100 
     40 CA         25.5387  -49.2684  -54.5034 C.3       6 UNK         0.0396 
     41 CB         24.7764  -50.0829  -53.4459 C.3       6 UNK        -0.1801 
     42 N          26.5911  -48.4955  -53.8386 N.am      6 UNK        -0.4747 
     43 C          27.3100  -47.5131  -54.4019 C.2       6 UNK         0.5012 
     44 O          27.1662  -47.1394  -55.5646 O.2       6 UNK        -0.5003 
     45 CA         28.4183  -46.8835  -53.5336 C.3       5 UNK         0.0782 
     46 C46        27.8485  -45.6863  -52.7314 C.3       11 UNK        -0.0868 
     47 S47        29.0993  -44.8974  -51.6605 S.3       11 UNK        -0.2515 
     48 C48        29.1960  -43.2118  -52.3540 C.3       11 UNK         0.0199 
     49 N          29.0990  -47.8573  -52.6646 N.am      5 UNK        -0.4607 
     50 C          29.6847  -48.9929  -53.0654 C.2       4 UNK         0.5031 
     51 O          29.6409  -49.4134  -54.2225 O.2       4 UNK        -0.5119 
     52 CA         30.3817  -49.8209  -51.9722 C.3       4 UNK         0.0263 
     53 CB         29.3470  -50.6680  -51.2128 C.3       4 UNK        -0.1967 
     54 N          31.4170  -50.7091  -52.5087 N.am      4 UNK        -0.4237 
     55 C          32.5270  -50.3037  -53.1383 C.2       3 UNK         0.4908 
     56 O          32.8348  -49.1175  -53.3056 O.2       3 UNK        -0.5102 
     57 CA         33.4413  -51.4161  -53.6847 C.3       3 UNK         0.0241 
     58 CB         32.8294  -52.0585  -54.9412 C.3       3 UNK        -0.1971 
     59 N          34.7375  -50.8406  -54.0331 N.am      3 UNK        -0.4139 
     60 C          35.7207  -50.6079  -53.1543 C.2       2 UNK         0.5016 
     61 O          35.8020  -51.1257  -52.0400 O.2       2 UNK        -0.5319 
     62 CA         36.7026  -49.5091  -53.5621 C.3       2 UNK         0.0286 
     63 CB         37.5046  -49.8895  -54.8244 C.3       2 UNK        -0.1963 
     64 N          35.9074  -48.2969  -53.7608 N.am      2 UNK        -0.4790 
     65 C          36.3661  -47.0519  -53.9300 C.2       1 UNK         0.5024 
     66 O          37.5622  -46.7641  -53.9877 O.2       1 UNK        -0.4888 
     67 H67        31.8925  -46.7668  -52.1023 H         1 UNK         0.0892 
     68 H68        32.7610  -47.3502  -50.6811 H         1 UNK         0.0892 
     69 H69        32.2145  -45.6709  -50.7597 H         1 UNK         0.0892 
     70 H70        33.3480  -46.7006  -53.7982 H         1 UNK         0.3107 
     71 H71        35.7564  -45.0387  -53.6076 H         1 UNK         0.0773 
     72 H72        35.9143  -45.4425  -56.0828 H         1 UNK         0.0680 
     73 H73        34.5098  -46.4765  -56.0153 H         1 UNK         0.0680 
     74 H74        32.2173  -45.8099  -55.5046 H         1 UNK         0.0650 
     75 H75        32.2125  -45.0554  -57.0804 H         1 UNK         0.0650 
     76 H76        31.1437  -44.7528  -53.5735 H         1 UNK         0.1397 
     77 H77        28.4892  -41.4608  -54.2954 H         1 UNK         0.1363 
     78 H78        31.1131  -42.8254  -57.3985 H         1 UNK         0.1355 
     79 H79        28.7461  -40.1344  -56.2870 H         1 UNK         0.0707 
     80 H80        30.0882  -40.4509  -57.3538 H         1 UNK         0.0707 
     81 H81        26.6097  -41.3909  -56.2386 H         1 UNK         0.1034 
     82 H82        25.7425  -41.7171  -57.7104 H         1 UNK         0.1034 
     83 H83        27.4189  -43.7217  -56.1300 H         1 UNK         0.0482 
     84 H84        25.4864  -45.8766  -56.2866 H         1 UNK         0.3460 
     85 H85        24.1395  -45.3897  -55.2764 H         1 UNK         0.3460 
     86 H86        27.6234  -44.9266  -57.9397 H         1 UNK         0.2989 
     87 H87        25.6108  -46.0242  -60.4764 H         1 UNK         0.0559 
     88 H88        26.0376  -43.8981  -61.6983 H         1 UNK         0.0848 
     89 H89        27.1596  -45.1410  -62.2221 H         1 UNK         0.0848 
     90 H90        27.6967  -43.8686  -61.1224 H         1 UNK         0.0848 
     91 H91        28.4874  -45.9942  -60.1316 H         1 UNK         0.3144 
     92 H92        29.2390  -48.4490  -59.4929 H         1 UNK         0.0727 
     93 H93        29.3158  -46.4919  -57.1147 H         1 UNK         0.0790 
     94 H94        30.1054  -46.2748  -58.6716 H         1 UNK         0.0790 
     95 H95        30.6539  -47.5318  -57.5843 H         1 UNK         0.0790 
     96 H96        28.1134  -48.7362  -56.7444 H         1 UNK         0.3215 
     97 H97        27.2607  -52.0028  -57.1357 H         1 UNK         0.0863 
     98 H98        28.8388  -52.7317  -55.3106 H         1 UNK         0.0808 
     99 H99        29.9523  -51.4482  -55.7842 H         1 UNK         0.0808 
    100 H100       29.5873  -52.7517  -56.8999 H         1 UNK         0.0808 
    101 H101       27.9573  -50.1504  -54.9329 H         1 UNK         0.3118 
    102 H102       24.8417  -48.5583  -54.9538 H         1 UNK         0.0546 
    103 H103       25.4262  -50.8003  -52.9430 H         1 UNK         0.0828 
    104 H104       23.9602  -50.6465  -53.9002 H         1 UNK         0.0828 
    105 H105       24.3357  -49.4364  -52.6868 H         1 UNK         0.0828 
    106 H106       26.7988  -48.7438  -52.8820 H         1 UNK         0.3005 
    107 H107       29.1710  -46.5019  -54.2267 H         1 UNK         0.1257 
    108 H108       27.0243  -46.0092  -52.0923 H         1 UNK         0.0775 
    109 H109       27.4293  -44.9400  -53.4097 H         1 UNK         0.0775 
    110 H110       28.2046  -42.7596  -52.2956 H         1 UNK         0.0840 
    111 H111       29.8445  -42.6124  -51.7139 H         1 UNK         0.0840 
    112 H112       29.1658  -47.5897  -51.6928 H         1 UNK         0.2987 
    113 H113       30.8616  -49.1344  -51.2719 H         1 UNK         0.0785 
    114 H114       28.5794  -50.0406  -50.7576 H         1 UNK         0.0798 
    115 H115       29.8129  -51.2364  -50.4075 H         1 UNK         0.0798 
    116 H116       28.8409  -51.3741  -51.8729 H         1 UNK         0.0798 
    117 H117       31.2327  -51.6994  -52.4464 H         1 UNK         0.3079 
    118 H118       33.5717  -52.1811  -52.9160 H         1 UNK         0.0794 
    119 H119       31.8966  -52.5714  -54.7049 H         1 UNK         0.0786 
    120 H120       33.5011  -52.7999  -55.3745 H         1 UNK         0.0786 
    121 H121       32.6088  -51.3161  -55.7098 H         1 UNK         0.0786 
    122 H122       34.7677  -50.3381  -54.9083 H         1 UNK         0.3032 
    123 H123       37.3951  -49.3450  -52.7334 H         1 UNK         0.1094 
    124 H124       38.2850  -49.1587  -55.0360 H         1 UNK         0.0794 
    125 H125       37.9987  -50.8535  -54.6950 H         1 UNK         0.0794 
    126 H126       36.8710  -49.9616  -55.7088 H         1 UNK         0.0794 
    127 H127       34.9053  -48.4224  -53.6547 H         1 UNK         0.3016 
@<TRIPOS>BOND
     1    1    2 1    
     2    1   67 1    
     3    1   68 1    
     4    1   69 1    
     5    2    3 2    
     6    2    4 am   BACKBONE|DICT|INTERRES
     7    4    5 1    
     8    4   70 1    
     9    5    6 1    
    10    5   65 1    
    11    5   71 1    
    12    6    7 1    
    13    6   72 1    
    14    6   73 1    
    15    7    8 1    
    16    8    9 1    
    17    8   74 1    
    18    8   75 1    
    19    9   10 ar   
    20    9   14 ar   
    21   10   11 ar   
    22   10   76 1    
    23   11   12 ar   
    24   11   48 1    
    25   12   13 ar   
    26   12   77 1    
    27   13   14 ar   
    28   13   15 1    
    29   14   78 1    
    30   15   16 1    
    31   15   79 1    
    32   15   80 1    
    33   16   17 1    
    34   17   18 1    
    35   17   81 1    
    36   17   82 1    
    37   18   19 1    
    38   18   22 1    
    39   18   83 1    
    40   19   20 am   BACKBONE|DICT|INTERRES
    41   19   21 2    
    42   20   84 1    
    43   20   85 1    
    44   22   23 am   BACKBONE|DICT|INTERRES
    45   22   86 1    
    46   23   24 2    
    47   23   25 1    
    48   25   26 1    
    49   25   27 1    
    50   25   87 1    
    51   26   88 1    
    52   26   89 1    
    53   26   90 1    
    54   27   28 am   BACKBONE|DICT|INTERRES
    55   27   91 1    
    56   28   29 2    
    57   28   30 1    
    58   30   31 1    
    59   30   32 1    
    60   30   92 1    
    61   31   93 1    
    62   31   94 1    
    63   31   95 1    
    64   32   33 am   BACKBONE|DICT|INTERRES
    65   32   96 1    
    66   33   34 2    
    67   33   35 1    
    68   35   36 1    
    69   35   37 1    
    70   35   97 1    
    71   36   98 1    
    72   36   99 1    
    73   36  100 1    
    74   37   38 am   BACKBONE|DICT|INTERRES
    75   37  101 1    
    76   38   39 2    
    77   38   40 1    
    78   40   41 1    
    79   40   42 1    
    80   40  102 1    
    81   41  103 1    
    82   41  104 1    
    83   41  105 1    
    84   42   43 am   BACKBONE|DICT|INTERRES
    85   42  106 1    
    86   43   44 2    
    87   43   45 1    
    88   45   46 1    
    89   45   49 1    
    90   45  107 1    
    91   46   47 1    
    92   46  108 1    
    93   46  109 1    
    94   47   48 1    
    95   48  110 1    
    96   48  111 1    
    97   49   50 am   BACKBONE|DICT|INTERRES
    98   49  112 1    
    99   50   51 2    
   100   50   52 1    
   101   52   53 1    
   102   52   54 1    
   103   52  113 1    
   104   53  114 1    
   105   53  115 1    
   106   53  116 1    
   107   54   55 am   BACKBONE|DICT|INTERRES
   108   54  117 1    
   109   55   56 2    
   110   55   57 1    
   111   57   58 1    
   112   57   59 1    
   113   57  118 1    
   114   58  119 1    
   115   58  120 1    
   116   58  121 1    
   117   59   60 am   BACKBONE|DICT|INTERRES
   118   59  122 1    
   119   60   61 2    
   120   60   62 1    
   121   62   63 1    
   122   62   64 1    
   123   62  123 1    
   124   63  124 1    
   125   63  125 1    
   126   63  126 1    
   127   64   65 am   BACKBONE|DICT|INTERRES
   128   64  127 1    
   129   65   66 2    
@<TRIPOS>SUBSTRUCTURE
     1 UNK         1 GROUP             0       ****    0 ROOT    
