@<TRIPOS>MOLECULE
3R134
127   129    1
SMALL
USER_CHARGES


@<TRIPOS>ATOM
      1 CA         30.4624  -45.7247  -52.7385 C.3       0 UNK        -0.1968 
      2 C          31.6068  -45.1651  -51.9092 C.2       0 UNK         0.4852 
      3 O          31.5741  -45.2596  -50.6816 O.2       0 UNK        -0.5359 
      4 N          32.6118  -44.5732  -52.5677 N.am      1 UNK        -0.4300 
      5 CA         33.7638  -43.9294  -51.9216 C.3       1 UNK         0.0863 
      6 C6         34.4531  -42.8950  -52.8456 C.3       11 UNK        -0.0953 
      7 S7         33.3114  -41.6032  -53.4426 S.3       11 UNK        -0.2369 
      8 C8         33.3978  -41.8349  -55.2456 C.3       11 UNK         0.0226 
      9 C9         32.6512  -43.0794  -55.7041 C.ar      11 UNK        -0.0699 
     10 C10        33.3408  -44.2701  -55.9532 C.ar      11 UNK        -0.0804 
     11 C11        32.6601  -45.4024  -56.4093 C.ar      11 UNK        -0.0871 
     12 C12        31.2829  -45.3285  -56.6441 C.ar      11 UNK        -0.1008 
     13 C13        30.5781  -44.1499  -56.3790 C.ar      11 UNK        -0.0735 
     14 C14        31.2689  -43.0296  -55.9071 C.ar      11 UNK        -0.0945 
     15 C15        29.0753  -44.0802  -56.6160 C.3       11 UNK         0.0169 
     16 S16        28.1727  -45.2507  -55.5536 S.3       11 UNK        -0.2669 
     17 C17        26.4497  -44.6757  -55.7466 C.3       11 UNK        -0.0850 
     18 CA         25.4161  -45.8352  -55.6276 C.3       10 UNK         0.0855 
     19 C          25.0969  -46.2579  -54.1576 C.2       10 UNK         0.5543 
     20 N          23.9321  -46.8355  -53.8869 N.am      10 UNK        -0.7343 
     21 O          25.9064  -46.0820  -53.2514 O.2       10 UNK        -0.5027 
     22 N          24.2197  -45.6137  -56.4596 N.am      10 UNK        -0.4495 
     23 C          23.3253  -44.6237  -56.3074 C.2       10 UNK         0.4903 
     24 O          23.4439  -43.7247  -55.4736 O.2       10 UNK        -0.4860 
     25 CA         22.0691  -44.6575  -57.2078 C.3       9 UNK         0.0227 
     26 CB         21.4773  -43.2542  -57.4646 C.3       9 UNK        -0.1964 
     27 N          22.2591  -45.3999  -58.4613 N.am      9 UNK        -0.4231 
     28 C          23.0794  -45.0808  -59.4720 C.2       9 UNK         0.5014 
     29 O          23.7342  -44.0386  -59.5430 O.2       9 UNK        -0.5270 
     30 CA         23.2545  -46.1535  -60.5613 C.3       8 UNK         0.0284 
     31 CB         22.9093  -45.5990  -61.9539 C.3       8 UNK        -0.1977 
     32 N          24.6332  -46.6475  -60.5560 N.am      8 UNK        -0.4342 
     33 C          25.2023  -47.2805  -59.5222 C.2       8 UNK         0.5039 
     34 O          24.5835  -47.6514  -58.5173 O.2       8 UNK        -0.5547 
     35 CA         26.7203  -47.4786  -59.5921 C.3       7 UNK         0.0281 
     36 CB         27.4380  -46.1145  -59.5164 C.3       7 UNK        -0.1963 
     37 N          27.1055  -48.3251  -58.4668 N.am      7 UNK        -0.4444 
     38 C          28.3056  -48.8671  -58.2543 C.2       7 UNK         0.5104 
     39 O          29.2725  -48.7314  -59.0100 O.2       7 UNK        -0.5100 
     40 CA         28.4538  -49.7147  -56.9863 C.3       6 UNK         0.0396 
     41 CB         27.9922  -51.1637  -57.2277 C.3       6 UNK        -0.1801 
     42 N          29.8595  -49.6833  -56.6017 N.am      6 UNK        -0.4747 
     43 C          30.3570  -49.9596  -55.3934 C.2       6 UNK         0.5012 
     44 O          29.6784  -50.3515  -54.4405 O.2       6 UNK        -0.5003 
     45 CA         31.8645  -49.6921  -55.2121 C.3       5 UNK         0.0782 
     46 C46        32.0831  -48.2436  -54.7115 C.3       11 UNK        -0.0868 
     47 S47        33.7429  -47.6128  -55.1156 S.3       11 UNK        -0.2515 
     48 C48        33.4205  -46.6977  -56.6602 C.3       11 UNK         0.0199 
     49 N          32.4588  -50.6830  -54.3098 N.am      5 UNK        -0.4607 
     50 C          32.6467  -51.9716  -54.6279 C.2       4 UNK         0.5031 
     51 O          32.4564  -52.4163  -55.7615 O.2       4 UNK        -0.5119 
     52 CA         33.0747  -52.9412  -53.5045 C.3       4 UNK         0.0263 
     53 CB         34.0306  -54.0448  -54.0087 C.3       4 UNK        -0.1967 
     54 N          33.6020  -52.2903  -52.2968 N.am      4 UNK        -0.4237 
     55 C          34.7362  -51.5859  -52.1833 C.2       3 UNK         0.4908 
     56 O          35.5396  -51.3994  -53.1000 O.2       3 UNK        -0.5102 
     57 CA         35.0254  -51.0008  -50.7903 C.3       3 UNK         0.0241 
     58 CB         36.0210  -51.8895  -50.0267 C.3       3 UNK        -0.1971 
     59 N          35.5592  -49.6413  -50.8809 N.am      3 UNK        -0.4139 
     60 C          34.8745  -48.5906  -51.3503 C.2       2 UNK         0.5016 
     61 O          33.6856  -48.6388  -51.6801 O.2       2 UNK        -0.5319 
     62 CA         35.6558  -47.2752  -51.4678 C.3       2 UNK         0.0286 
     63 CB         36.7755  -47.3733  -52.5213 C.3       2 UNK        -0.1963 
     64 N          34.7453  -46.1963  -51.8419 N.am      2 UNK        -0.4790 
     65 C          34.8062  -44.9380  -51.3909 C.2       1 UNK         0.5024 
     66 O          35.6608  -44.5479  -50.5934 O.2       1 UNK        -0.4888 
     67 H67        30.6643  -45.6492  -53.8056 H         1 UNK         0.0892 
     68 H68        30.2932  -46.7731  -52.4954 H         1 UNK         0.0892 
     69 H69        29.5440  -45.1758  -52.5316 H         1 UNK         0.0892 
     70 H70        32.5779  -44.4991  -53.5759 H         1 UNK         0.3107 
     71 H71        33.3918  -43.3873  -51.0492 H         1 UNK         0.0773 
     72 H72        34.9316  -43.3918  -53.6903 H         1 UNK         0.0680 
     73 H73        35.2559  -42.3858  -52.3087 H         1 UNK         0.0680 
     74 H74        34.4417  -41.8704  -55.5616 H         1 UNK         0.0650 
     75 H75        32.9677  -40.9566  -55.7292 H         1 UNK         0.0650 
     76 H76        34.4100  -44.3188  -55.7979 H         1 UNK         0.1397 
     77 H77        30.7491  -46.1928  -57.0157 H         1 UNK         0.1363 
     78 H78        30.7347  -42.1104  -55.7084 H         1 UNK         0.1355 
     79 H79        28.8685  -44.2954  -57.6639 H         1 UNK         0.0707 
     80 H80        28.7048  -43.0716  -56.4262 H         1 UNK         0.0707 
     81 H81        26.2441  -43.8893  -55.0181 H         1 UNK         0.1034 
     82 H82        26.3613  -44.2018  -56.7252 H         1 UNK         0.1034 
     83 H83        25.8747  -46.7204  -56.0694 H         1 UNK         0.0482 
     84 H84        23.2595  -46.9979  -54.6184 H         1 UNK         0.3460 
     85 H85        23.7270  -47.1127  -52.9399 H         1 UNK         0.3460 
     86 H86        24.0639  -46.3156  -57.1778 H         1 UNK         0.2989 
     87 H87        21.3235  -45.2209  -56.6450 H         1 UNK         0.0559 
     88 H88        21.1753  -42.7802  -56.5299 H         1 UNK         0.0848 
     89 H89        20.5927  -43.3051  -58.0993 H         1 UNK         0.0848 
     90 H90        22.1972  -42.5900  -57.9436 H         1 UNK         0.0848 
     91 H91        21.7966  -46.2985  -58.5019 H         1 UNK         0.3144 
     92 H92        22.5898  -46.9951  -60.3543 H         1 UNK         0.0727 
     93 H93        23.5585  -44.7678  -62.2327 H         1 UNK         0.0790 
     94 H94        21.8821  -45.2328  -61.9822 H         1 UNK         0.0790 
     95 H95        22.9996  -46.3680  -62.7214 H         1 UNK         0.0790 
     96 H96        25.2179  -46.3517  -61.3244 H         1 UNK         0.3215 
     97 H97        26.9708  -47.9885  -60.5246 H         1 UNK         0.0863 
     98 H98        28.5226  -46.2200  -59.5071 H         1 UNK         0.0808 
     99 H99        27.1465  -45.5691  -58.6194 H         1 UNK         0.0808 
    100 H100       27.1902  -45.4858  -60.3720 H         1 UNK         0.0808 
    101 H101       26.3353  -48.5117  -57.8340 H         1 UNK         0.3118 
    102 H102       27.8563  -49.2626  -56.1914 H         1 UNK         0.0546 
    103 H103       28.5801  -51.6472  -58.0089 H         1 UNK         0.0828 
    104 H104       26.9470  -51.1958  -57.5376 H         1 UNK         0.0828 
    105 H105       28.0782  -51.7664  -56.3236 H         1 UNK         0.0828 
    106 H106       30.4632  -49.3400  -57.3402 H         1 UNK         0.3005 
    107 H107       32.3397  -49.8046  -56.1896 H         1 UNK         0.1257 
    108 H108       31.3450  -47.5619  -55.1323 H         1 UNK         0.0775 
    109 H109       31.9416  -48.1878  -53.6318 H         1 UNK         0.0775 
    110 H110       34.3746  -46.4708  -57.1383 H         1 UNK         0.0840 
    111 H111       32.8781  -47.3368  -57.3587 H         1 UNK         0.0840 
    112 H112       32.6415  -50.3760  -53.3648 H         1 UNK         0.2987 
    113 H113       32.1546  -53.4357  -53.1893 H         1 UNK         0.0785 
    114 H114       33.5612  -54.6427  -54.7909 H         1 UNK         0.0798 
    115 H115       34.3082  -54.7278  -53.2059 H         1 UNK         0.0798 
    116 H116       34.9468  -53.6285  -54.4282 H         1 UNK         0.0798 
    117 H117       33.0154  -52.3743  -51.4772 H         1 UNK         0.3079 
    118 H118       34.0940  -50.9553  -50.2213 H         1 UNK         0.0794 
    119 H119       36.2060  -51.5079  -49.0223 H         1 UNK         0.0786 
    120 H120       36.9796  -51.9575  -50.5430 H         1 UNK         0.0786 
    121 H121       35.6362  -52.9047  -49.9204 H         1 UNK         0.0786 
    122 H122       36.5374  -49.5267  -50.6598 H         1 UNK         0.3032 
    123 H123       36.0941  -47.0687  -50.4885 H         1 UNK         0.1094 
    124 H124       36.3793  -47.6276  -53.5051 H         1 UNK         0.0794 
    125 H125       37.3164  -46.4312  -52.6132 H         1 UNK         0.0794 
    126 H126       37.5070  -48.1377  -52.2576 H         1 UNK         0.0794 
    127 H127       33.9712  -46.4786  -52.4302 H         1 UNK         0.3016 
@<TRIPOS>BOND
     1    1    2 1    
     2    1   67 1    
     3    1   68 1    
     4    1   69 1    
     5    2    3 2    
     6    2    4 am   BACKBONE|DICT|INTERRES
     7    4    5 1    
     8    4   70 1    
     9    5    6 1    
    10    5   65 1    
    11    5   71 1    
    12    6    7 1    
    13    6   72 1    
    14    6   73 1    
    15    7    8 1    
    16    8    9 1    
    17    8   74 1    
    18    8   75 1    
    19    9   10 ar   
    20    9   14 ar   
    21   10   11 ar   
    22   10   76 1    
    23   11   12 ar   
    24   11   48 1    
    25   12   13 ar   
    26   12   77 1    
    27   13   14 ar   
    28   13   15 1    
    29   14   78 1    
    30   15   16 1    
    31   15   79 1    
    32   15   80 1    
    33   16   17 1    
    34   17   18 1    
    35   17   81 1    
    36   17   82 1    
    37   18   19 1    
    38   18   22 1    
    39   18   83 1    
    40   19   20 am   BACKBONE|DICT|INTERRES
    41   19   21 2    
    42   20   84 1    
    43   20   85 1    
    44   22   23 am   BACKBONE|DICT|INTERRES
    45   22   86 1    
    46   23   24 2    
    47   23   25 1    
    48   25   26 1    
    49   25   27 1    
    50   25   87 1    
    51   26   88 1    
    52   26   89 1    
    53   26   90 1    
    54   27   28 am   BACKBONE|DICT|INTERRES
    55   27   91 1    
    56   28   29 2    
    57   28   30 1    
    58   30   31 1    
    59   30   32 1    
    60   30   92 1    
    61   31   93 1    
    62   31   94 1    
    63   31   95 1    
    64   32   33 am   BACKBONE|DICT|INTERRES
    65   32   96 1    
    66   33   34 2    
    67   33   35 1    
    68   35   36 1    
    69   35   37 1    
    70   35   97 1    
    71   36   98 1    
    72   36   99 1    
    73   36  100 1    
    74   37   38 am   BACKBONE|DICT|INTERRES
    75   37  101 1    
    76   38   39 2    
    77   38   40 1    
    78   40   41 1    
    79   40   42 1    
    80   40  102 1    
    81   41  103 1    
    82   41  104 1    
    83   41  105 1    
    84   42   43 am   BACKBONE|DICT|INTERRES
    85   42  106 1    
    86   43   44 2    
    87   43   45 1    
    88   45   46 1    
    89   45   49 1    
    90   45  107 1    
    91   46   47 1    
    92   46  108 1    
    93   46  109 1    
    94   47   48 1    
    95   48  110 1    
    96   48  111 1    
    97   49   50 am   BACKBONE|DICT|INTERRES
    98   49  112 1    
    99   50   51 2    
   100   50   52 1    
   101   52   53 1    
   102   52   54 1    
   103   52  113 1    
   104   53  114 1    
   105   53  115 1    
   106   53  116 1    
   107   54   55 am   BACKBONE|DICT|INTERRES
   108   54  117 1    
   109   55   56 2    
   110   55   57 1    
   111   57   58 1    
   112   57   59 1    
   113   57  118 1    
   114   58  119 1    
   115   58  120 1    
   116   58  121 1    
   117   59   60 am   BACKBONE|DICT|INTERRES
   118   59  122 1    
   119   60   61 2    
   120   60   62 1    
   121   62   63 1    
   122   62   64 1    
   123   62  123 1    
   124   63  124 1    
   125   63  125 1    
   126   63  126 1    
   127   64   65 am   BACKBONE|DICT|INTERRES
   128   64  127 1    
   129   65   66 2    
@<TRIPOS>SUBSTRUCTURE
     1 UNK         1 GROUP             0       ****    0 ROOT    
