@<TRIPOS>MOLECULE
3R134
127   129    1
SMALL
USER_CHARGES


@<TRIPOS>ATOM
      1 CA         37.5850  -47.8707  -51.0183 C.3       0 UNK        -0.1968 
      2 C          36.4414  -47.7660  -52.0156 C.2       0 UNK         0.4852 
      3 O          35.7351  -48.7500  -52.2452 O.2       0 UNK        -0.5359 
      4 N          36.2311  -46.5745  -52.5959 N.am      1 UNK        -0.4300 
      5 CA         35.2040  -46.3013  -53.6120 C.3       1 UNK         0.0863 
      6 C6         35.4768  -44.9878  -54.3833 C.3       11 UNK        -0.0953 
      7 S7         35.2761  -43.4698  -53.3882 S.3       11 UNK        -0.2369 
      8 C8         34.4938  -42.3459  -54.5923 C.3       11 UNK         0.0226 
      9 C9         33.0812  -42.7776  -54.9676 C.ar      11 UNK        -0.0699 
     10 C10        32.0382  -42.6325  -54.0493 C.ar      11 UNK        -0.0804 
     11 C11        30.7365  -43.0158  -54.3838 C.ar      11 UNK        -0.0871 
     12 C12        30.4878  -43.5319  -55.6597 C.ar      11 UNK        -0.1008 
     13 C13        31.5184  -43.7027  -56.5898 C.ar      11 UNK        -0.0735 
     14 C14        32.8132  -43.3104  -56.2336 C.ar      11 UNK        -0.0945 
     15 C15        31.2903  -44.3075  -57.9788 C.3       11 UNK         0.0169 
     16 S16        29.6986  -45.1789  -58.2316 S.3       11 UNK        -0.2669 
     17 C17        28.5674  -43.8225  -58.7079 C.3       11 UNK        -0.0850 
     18 CA         27.2809  -43.7329  -57.8408 C.3       10 UNK         0.0855 
     19 C          26.3930  -42.5507  -58.3179 C.2       10 UNK         0.5543 
     20 N          26.5195  -41.3879  -57.6951 N.am      10 UNK        -0.7343 
     21 O          25.6303  -42.6669  -59.2747 O.2       10 UNK        -0.5027 
     22 N          26.5553  -45.0105  -57.8090 N.am      10 UNK        -0.4495 
     23 C          25.5036  -45.2908  -57.0306 C.2       10 UNK         0.4903 
     24 O          25.0355  -44.4976  -56.2124 O.2       10 UNK        -0.4860 
     25 CA         24.8607  -46.6890  -57.1486 C.3       9 UNK         0.0227 
     26 CB         23.5288  -46.6215  -57.9234 C.3       9 UNK        -0.1964 
     27 N          25.7392  -47.7505  -57.6713 N.am      9 UNK        -0.4231 
     28 C          26.2162  -47.9065  -58.9152 C.2       9 UNK         0.5014 
     29 O          25.9964  -47.1109  -59.8291 O.2       9 UNK        -0.5270 
     30 CA         27.1018  -49.1317  -59.1995 C.3       8 UNK         0.0284 
     31 CB         28.3897  -48.7219  -59.9395 C.3       8 UNK        -0.1977 
     32 N          27.4757  -49.8679  -57.9874 N.am      8 UNK        -0.4342 
     33 C          27.0400  -51.0922  -57.6674 C.2       8 UNK         0.5039 
     34 O          26.1549  -51.6883  -58.2835 O.2       8 UNK        -0.5547 
     35 CA         27.7327  -51.7949  -56.4871 C.3       7 UNK         0.0281 
     36 CB         29.1014  -52.3447  -56.9224 C.3       7 UNK        -0.1963 
     37 N          27.8993  -50.9514  -55.3011 N.am      7 UNK        -0.4444 
     38 C          26.8990  -50.6012  -54.4791 C.2       7 UNK         0.5104 
     39 O          25.7177  -50.8949  -54.6716 O.2       7 UNK        -0.5100 
     40 CA         27.2776  -49.7993  -53.2203 C.3       6 UNK         0.0396 
     41 CB         27.8683  -50.7191  -52.1394 C.3       6 UNK        -0.1801 
     42 N          28.2130  -48.7104  -53.4995 N.am      6 UNK        -0.4747 
     43 C          27.9080  -47.6205  -54.2184 C.2       6 UNK         0.5012 
     44 O          26.7865  -47.3961  -54.6696 O.2       6 UNK        -0.5003 
     45 CA         29.0605  -46.6399  -54.5143 C.3       5 UNK         0.0782 
     46 C46        29.3147  -45.6945  -53.3094 C.3       11 UNK        -0.0868 
     47 S47        28.3282  -44.1638  -53.4207 S.3       11 UNK        -0.2515 
     48 C48        29.6192  -42.8679  -53.3502 C.3       11 UNK         0.0199 
     49 N          30.2836  -47.3291  -54.9393 N.am      5 UNK        -0.4607 
     50 C          30.3780  -48.1729  -55.9765 C.2       4 UNK         0.5031 
     51 O          29.4480  -48.4414  -56.7325 O.2       4 UNK        -0.5119 
     52 CA         31.7155  -48.9033  -56.1593 C.3       4 UNK         0.0263 
     53 CB         32.7259  -48.0247  -56.9154 C.3       4 UNK        -0.1967 
     54 N          32.2683  -49.3434  -54.8756 N.am      4 UNK        -0.4237 
     55 C          31.7075  -50.2843  -54.0994 C.2       3 UNK         0.4908 
     56 O          30.7137  -50.9350  -54.4231 O.2       3 UNK        -0.5102 
     57 CA         32.3259  -50.4983  -52.7075 C.3       3 UNK         0.0241 
     58 CB         33.5703  -51.3956  -52.7951 C.3       3 UNK        -0.1971 
     59 N          32.6687  -49.2338  -52.0514 N.am      3 UNK        -0.4139 
     60 C          31.7638  -48.3229  -51.6552 C.2       2 UNK         0.5016 
     61 O          30.5472  -48.4969  -51.7249 O.2       2 UNK        -0.5319 
     62 CA         32.2977  -46.9682  -51.1473 C.3       2 UNK         0.0286 
     63 CB         32.4795  -47.0007  -49.6222 C.3       2 UNK        -0.1963 
     64 N          33.5595  -46.5695  -51.7783 N.am      2 UNK        -0.4790 
     65 C          33.7488  -46.4170  -53.0982 C.2       1 UNK         0.5024 
     66 O          32.8264  -46.4485  -53.9108 O.2       1 UNK        -0.4888 
     67 H67        38.1183  -46.9268  -50.9081 H         1 UNK         0.0892 
     68 H68        37.2043  -48.1625  -50.0400 H         1 UNK         0.0892 
     69 H69        38.2978  -48.6270  -51.3454 H         1 UNK         0.0892 
     70 H70        36.8199  -45.7894  -52.3538 H         1 UNK         0.3107 
     71 H71        35.2989  -47.1031  -54.3479 H         1 UNK         0.0773 
     72 H72        34.8280  -44.9449  -55.2582 H         1 UNK         0.0680 
     73 H73        36.4926  -44.9969  -54.7815 H         1 UNK         0.0680 
     74 H74        35.1267  -42.2748  -55.4783 H         1 UNK         0.0650 
     75 H75        34.4582  -41.3437  -54.1629 H         1 UNK         0.0650 
     76 H76        32.2473  -42.2269  -53.0686 H         1 UNK         0.1397 
     77 H77        29.4851  -43.8258  -55.9113 H         1 UNK         0.1363 
     78 H78        33.6194  -43.4285  -56.9448 H         1 UNK         0.1355 
     79 H79        32.0828  -45.0335  -58.1682 H         1 UNK         0.0707 
     80 H80        31.4061  -43.5297  -58.7351 H         1 UNK         0.0707 
     81 H81        29.1087  -42.8754  -58.6623 H         1 UNK         0.1034 
     82 H82        28.3055  -43.9661  -59.7584 H         1 UNK         0.1034 
     83 H83        27.5683  -43.5228  -56.8110 H         1 UNK         0.0482 
     84 H84        25.9634  -40.6052  -58.0040 H         1 UNK         0.3460 
     85 H85        27.1482  -41.2780  -56.9151 H         1 UNK         0.3460 
     86 H86        26.8199  -45.6951  -58.5053 H         1 UNK         0.2989 
     87 H87        24.6171  -46.9966  -56.1307 H         1 UNK         0.0559 
     88 H88        22.8340  -45.9345  -57.4384 H         1 UNK         0.0848 
     89 H89        23.0427  -47.5961  -57.9667 H         1 UNK         0.0848 
     90 H90        23.6675  -46.2674  -58.9453 H         1 UNK         0.0848 
     91 H91        26.0385  -48.4263  -56.9810 H         1 UNK         0.3144 
     92 H92        26.5282  -49.7762  -59.8687 H         1 UNK         0.0727 
     93 H93        28.9825  -48.0155  -59.3569 H         1 UNK         0.0790 
     94 H94        28.1624  -48.2454  -60.8939 H         1 UNK         0.0790 
     95 H95        29.0170  -49.5874  -60.1542 H         1 UNK         0.0790 
     96 H96        28.2069  -49.4320  -57.4194 H         1 UNK         0.3215 
     97 H97        27.1099  -52.6469  -56.2043 H         1 UNK         0.0863 
     98 H98        29.5618  -52.9351  -56.1295 H         1 UNK         0.0808 
     99 H99        29.7931  -51.5437  -57.1861 H         1 UNK         0.0808 
    100 H100       29.0040  -52.9933  -57.7942 H         1 UNK         0.0808 
    101 H101       28.8526  -50.7052  -55.0444 H         1 UNK         0.3118 
    102 H102       26.3624  -49.3581  -52.8196 H         1 UNK         0.0546 
    103 H103       28.8043  -51.1761  -52.4623 H         1 UNK         0.0828 
    104 H104       27.1777  -51.5269  -51.8933 H         1 UNK         0.0828 
    105 H105       28.0677  -50.1700  -51.2188 H         1 UNK         0.0828 
    106 H106       29.1465  -48.7879  -53.1043 H         1 UNK         0.3005 
    107 H107       28.7490  -46.0477  -55.3775 H         1 UNK         0.1257 
    108 H108       29.1108  -46.1795  -52.3526 H         1 UNK         0.0775 
    109 H109       30.3684  -45.4196  -53.2668 H         1 UNK         0.0775 
    110 H110       29.1450  -41.8953  -53.4870 H         1 UNK         0.0840 
    111 H111       30.0392  -42.8675  -52.3430 H         1 UNK         0.0840 
    112 H112       31.1296  -47.1175  -54.4178 H         1 UNK         0.2987 
    113 H113       31.5287  -49.7933  -56.7636 H         1 UNK         0.0785 
    114 H114       32.3419  -47.7645  -57.9028 H         1 UNK         0.0798 
    115 H115       33.6736  -48.5427  -57.0626 H         1 UNK         0.0798 
    116 H116       32.9294  -47.0879  -56.3970 H         1 UNK         0.0798 
    117 H117       33.0520  -48.8205  -54.5141 H         1 UNK         0.3079 
    118 H118       31.5824  -51.0064  -52.0893 H         1 UNK         0.0794 
    119 H119       33.9762  -51.6072  -51.8055 H         1 UNK         0.0786 
    120 H120       34.3618  -50.9356  -53.3883 H         1 UNK         0.0786 
    121 H121       33.3288  -52.3533  -53.2583 H         1 UNK         0.0786 
    122 H122       33.6565  -49.0123  -51.9718 H         1 UNK         0.3032 
    123 H123       31.5518  -46.2087  -51.3862 H         1 UNK         0.1094 
    124 H124       31.5476  -47.2747  -49.1251 H         1 UNK         0.0794 
    125 H125       33.2360  -47.7263  -49.3199 H         1 UNK         0.0794 
    126 H126       32.7750  -46.0248  -49.2365 H         1 UNK         0.0794 
    127 H127       34.3730  -46.5273  -51.1817 H         1 UNK         0.3016 
@<TRIPOS>BOND
     1    1    2 1    
     2    1   67 1    
     3    1   68 1    
     4    1   69 1    
     5    2    3 2    
     6    2    4 am   BACKBONE|DICT|INTERRES
     7    4    5 1    
     8    4   70 1    
     9    5    6 1    
    10    5   65 1    
    11    5   71 1    
    12    6    7 1    
    13    6   72 1    
    14    6   73 1    
    15    7    8 1    
    16    8    9 1    
    17    8   74 1    
    18    8   75 1    
    19    9   10 ar   
    20    9   14 ar   
    21   10   11 ar   
    22   10   76 1    
    23   11   12 ar   
    24   11   48 1    
    25   12   13 ar   
    26   12   77 1    
    27   13   14 ar   
    28   13   15 1    
    29   14   78 1    
    30   15   16 1    
    31   15   79 1    
    32   15   80 1    
    33   16   17 1    
    34   17   18 1    
    35   17   81 1    
    36   17   82 1    
    37   18   19 1    
    38   18   22 1    
    39   18   83 1    
    40   19   20 am   BACKBONE|DICT|INTERRES
    41   19   21 2    
    42   20   84 1    
    43   20   85 1    
    44   22   23 am   BACKBONE|DICT|INTERRES
    45   22   86 1    
    46   23   24 2    
    47   23   25 1    
    48   25   26 1    
    49   25   27 1    
    50   25   87 1    
    51   26   88 1    
    52   26   89 1    
    53   26   90 1    
    54   27   28 am   BACKBONE|DICT|INTERRES
    55   27   91 1    
    56   28   29 2    
    57   28   30 1    
    58   30   31 1    
    59   30   32 1    
    60   30   92 1    
    61   31   93 1    
    62   31   94 1    
    63   31   95 1    
    64   32   33 am   BACKBONE|DICT|INTERRES
    65   32   96 1    
    66   33   34 2    
    67   33   35 1    
    68   35   36 1    
    69   35   37 1    
    70   35   97 1    
    71   36   98 1    
    72   36   99 1    
    73   36  100 1    
    74   37   38 am   BACKBONE|DICT|INTERRES
    75   37  101 1    
    76   38   39 2    
    77   38   40 1    
    78   40   41 1    
    79   40   42 1    
    80   40  102 1    
    81   41  103 1    
    82   41  104 1    
    83   41  105 1    
    84   42   43 am   BACKBONE|DICT|INTERRES
    85   42  106 1    
    86   43   44 2    
    87   43   45 1    
    88   45   46 1    
    89   45   49 1    
    90   45  107 1    
    91   46   47 1    
    92   46  108 1    
    93   46  109 1    
    94   47   48 1    
    95   48  110 1    
    96   48  111 1    
    97   49   50 am   BACKBONE|DICT|INTERRES
    98   49  112 1    
    99   50   51 2    
   100   50   52 1    
   101   52   53 1    
   102   52   54 1    
   103   52  113 1    
   104   53  114 1    
   105   53  115 1    
   106   53  116 1    
   107   54   55 am   BACKBONE|DICT|INTERRES
   108   54  117 1    
   109   55   56 2    
   110   55   57 1    
   111   57   58 1    
   112   57   59 1    
   113   57  118 1    
   114   58  119 1    
   115   58  120 1    
   116   58  121 1    
   117   59   60 am   BACKBONE|DICT|INTERRES
   118   59  122 1    
   119   60   61 2    
   120   60   62 1    
   121   62   63 1    
   122   62   64 1    
   123   62  123 1    
   124   63  124 1    
   125   63  125 1    
   126   63  126 1    
   127   64   65 am   BACKBONE|DICT|INTERRES
   128   64  127 1    
   129   65   66 2    
@<TRIPOS>SUBSTRUCTURE
     1 UNK         1 GROUP             0       ****    0 ROOT    
