@<TRIPOS>MOLECULE
3R134
127   129    1
SMALL
USER_CHARGES


@<TRIPOS>ATOM
      1 CA         34.0278  -46.8010  -48.7524 C.3       0 UNK        -0.1968 
      2 C          34.0325  -46.7213  -50.2711 C.2       0 UNK         0.4852 
      3 O          33.9721  -47.7538  -50.9374 O.2       0 UNK        -0.5359 
      4 N          34.0859  -45.5046  -50.8283 N.am      1 UNK        -0.4300 
      5 CA         34.1206  -45.2361  -52.2723 C.3       1 UNK         0.0863 
      6 C6         34.3994  -43.7335  -52.5463 C.3       11 UNK        -0.0953 
      7 S7         35.5015  -43.4671  -53.9719 S.3       11 UNK        -0.2369 
      8 C8         34.5508  -42.2687  -54.9573 C.3       11 UNK         0.0226 
      9 C9         33.3574  -42.9243  -55.6314 C.ar      11 UNK        -0.0699 
     10 C10        33.5610  -43.7857  -56.7121 C.ar      11 UNK        -0.0804 
     11 C11        32.4791  -44.4129  -57.3327 C.ar      11 UNK        -0.0871 
     12 C12        31.1820  -44.1597  -56.8753 C.ar      11 UNK        -0.1008 
     13 C13        30.9667  -43.3037  -55.7912 C.ar      11 UNK        -0.0735 
     14 C14        32.0577  -42.6828  -55.1758 C.ar      11 UNK        -0.0945 
     15 C15        29.5579  -43.0763  -55.2695 C.3       11 UNK         0.0169 
     16 S16        28.6170  -41.9695  -56.3584 S.3       11 UNK        -0.2669 
     17 C17        26.9883  -41.9755  -55.5269 C.3       11 UNK        -0.0850 
     18 CA         25.9456  -42.9397  -56.1595 C.3       10 UNK         0.0855 
     19 C          25.5729  -42.5802  -57.6229 C.2       10 UNK         0.5543 
     20 N          24.9140  -41.4490  -57.8341 N.am      10 UNK        -0.7343 
     21 O          25.8773  -43.3089  -58.5666 O.2       10 UNK        -0.5027 
     22 N          26.3422  -44.3467  -56.0504 N.am      10 UNK        -0.4495 
     23 C          26.1525  -45.1356  -54.9880 C.2       10 UNK         0.4903 
     24 O          25.6991  -44.7269  -53.9182 O.2       10 UNK        -0.4860 
     25 CA         26.5484  -46.6237  -55.1213 C.3       9 UNK         0.0227 
     26 CB         25.5799  -47.5573  -54.3672 C.3       9 UNK        -0.1964 
     27 N          26.7509  -47.1005  -56.4965 N.am      9 UNK        -0.4231 
     28 C          25.8704  -47.1073  -57.5104 C.2       9 UNK         0.5014 
     29 O          24.7089  -46.7081  -57.4253 O.2       9 UNK        -0.5270 
     30 CA         26.3848  -47.6442  -58.8516 C.3       8 UNK         0.0284 
     31 CB         27.5077  -46.7522  -59.4129 C.3       8 UNK        -0.1977 
     32 N          26.8775  -49.0111  -58.6907 N.am      8 UNK        -0.4342 
     33 C          26.2471  -50.1107  -59.1247 C.2       8 UNK         0.5039 
     34 O          25.1931  -50.0916  -59.7624 O.2       8 UNK        -0.5547 
     35 CA         26.8984  -51.4719  -58.8109 C.3       7 UNK         0.0281 
     36 CB         27.6707  -51.9908  -60.0351 C.3       7 UNK        -0.1963 
     37 N          27.7987  -51.4412  -57.6557 N.am      7 UNK        -0.4444 
     38 C          27.4069  -51.2774  -56.3848 C.2       7 UNK         0.5104 
     39 O          26.2288  -51.2009  -56.0357 O.2       7 UNK        -0.5100 
     40 CA         28.5166  -51.1686  -55.3227 C.3       6 UNK         0.0396 
     41 CB         28.7560  -52.5485  -54.6895 C.3       6 UNK        -0.1801 
     42 N          29.7970  -50.6192  -55.7977 N.am      6 UNK        -0.4747 
     43 C          29.9696  -49.4335  -56.4040 C.2       6 UNK         0.5012 
     44 O          29.0300  -48.7093  -56.7426 O.2       6 UNK        -0.5003 
     45 CA         31.4196  -48.9845  -56.6961 C.3       5 UNK         0.0782 
     46 C46        31.4622  -47.5370  -57.2406 C.3       11 UNK        -0.0868 
     47 S47        33.1022  -47.0523  -57.8629 S.3       11 UNK        -0.2515 
     48 C48        32.7235  -45.3811  -58.4799 C.3       11 UNK         0.0199 
     49 N          32.2645  -49.1341  -55.5061 N.am      5 UNK        -0.4607 
     50 C          32.9220  -50.2486  -55.1644 C.2       4 UNK         0.5031 
     51 O          32.9027  -51.2822  -55.8328 O.2       4 UNK        -0.5119 
     52 CA         33.6708  -50.2249  -53.8217 C.3       4 UNK         0.0263 
     53 CB         34.9771  -49.4214  -53.9280 C.3       4 UNK        -0.1967 
     54 N          32.8366  -49.6806  -52.7485 N.am      4 UNK        -0.4237 
     55 C          31.7313  -50.2733  -52.2724 C.2       3 UNK         0.4908 
     56 O          31.3744  -51.4061  -52.5923 O.2       3 UNK        -0.5102 
     57 CA         30.8641  -49.4672  -51.2922 C.3       3 UNK         0.0241 
     58 CB         31.3104  -49.6991  -49.8393 C.3       3 UNK        -0.1971 
     59 N          30.8738  -48.0350  -51.6008 N.am      3 UNK        -0.4139 
     60 C          30.1830  -47.4774  -52.6063 C.2       2 UNK         0.5016 
     61 O          29.4093  -48.1016  -53.3292 O.2       2 UNK        -0.5319 
     62 CA         30.3811  -45.9707  -52.8530 C.3       2 UNK         0.0286 
     63 CB         29.2613  -45.1685  -52.1702 C.3       2 UNK        -0.1963 
     64 N          31.6811  -45.4714  -52.3944 N.am      2 UNK        -0.4790 
     65 C          32.8508  -45.7505  -52.9902 C.2       1 UNK         0.5024 
     66 O          32.9468  -46.4482  -54.0007 O.2       1 UNK        -0.4888 
     67 H67        34.8469  -47.4327  -48.4096 H         1 UNK         0.0892 
     68 H68        34.1413  -45.8201  -48.2914 H         1 UNK         0.0892 
     69 H69        33.0926  -47.2359  -48.4013 H         1 UNK         0.0892 
     70 H70        34.1311  -44.6928  -50.2289 H         1 UNK         0.3107 
     71 H71        34.9573  -45.8218  -52.6605 H         1 UNK         0.0773 
     72 H72        33.4757  -43.1628  -52.6556 H         1 UNK         0.0680 
     73 H73        34.9134  -43.2805  -51.6969 H         1 UNK         0.0680 
     74 H74        35.2047  -41.8431  -55.7198 H         1 UNK         0.0650 
     75 H75        34.2387  -41.4375  -54.3230 H         1 UNK         0.0650 
     76 H76        34.5671  -43.9858  -57.0548 H         1 UNK         0.1397 
     77 H77        30.3385  -44.6423  -57.3499 H         1 UNK         0.1363 
     78 H78        31.8960  -42.0210  -54.3362 H         1 UNK         0.1355 
     79 H79        29.5860  -42.6495  -54.2661 H         1 UNK         0.0707 
     80 H80        29.0436  -44.0342  -55.1880 H         1 UNK         0.0707 
     81 H81        27.1187  -42.2172  -54.4710 H         1 UNK         0.1034 
     82 H82        26.6047  -40.9541  -55.5372 H         1 UNK         0.1034 
     83 H83        25.0154  -42.8308  -55.5979 H         1 UNK         0.0482 
     84 H84        24.6672  -41.1976  -58.7787 H         1 UNK         0.3460 
     85 H85        24.6540  -40.8429  -57.0718 H         1 UNK         0.3460 
     86 H86        26.6711  -44.7517  -56.9159 H         1 UNK         0.2989 
     87 H87        27.5232  -46.7094  -54.6414 H         1 UNK         0.0559 
     88 H88        25.5337  -47.3049  -53.3073 H         1 UNK         0.0848 
     89 H89        25.9018  -48.5968  -54.4355 H         1 UNK         0.0848 
     90 H90        24.5662  -47.4925  -54.7636 H         1 UNK         0.0848 
     91 H91        27.6669  -47.5143  -56.6633 H         1 UNK         0.3144 
     92 H92        25.5546  -47.6171  -59.5607 H         1 UNK         0.0727 
     93 H93        28.3896  -46.7431  -58.7716 H         1 UNK         0.0790 
     94 H94        27.1693  -45.7204  -59.5192 H         1 UNK         0.0790 
     95 H95        27.8206  -47.0918  -60.4003 H         1 UNK         0.0790 
     96 H96        27.7085  -49.1251  -58.1183 H         1 UNK         0.3215 
     97 H97        26.0918  -52.1750  -58.5914 H         1 UNK         0.0863 
     98 H98        28.0722  -52.9889  -59.8587 H         1 UNK         0.0808 
     99 H99        28.5010  -51.3341  -60.2979 H         1 UNK         0.0808 
    100 H100       27.0191  -52.0562  -60.9077 H         1 UNK         0.0808 
    101 H101       28.7887  -51.5104  -57.8406 H         1 UNK         0.3118 
    102 H102       28.1511  -50.4941  -54.5456 H         1 UNK         0.0546 
    103 H103       29.1992  -53.2477  -55.3993 H         1 UNK         0.0828 
    104 H104       27.8204  -52.9878  -54.3401 H         1 UNK         0.0828 
    105 H105       29.4149  -52.4839  -53.8259 H         1 UNK         0.0828 
    106 H106       30.6279  -51.1478  -55.5625 H         1 UNK         0.3005 
    107 H107       31.7896  -49.6435  -57.4849 H         1 UNK         0.1257 
    108 H108       30.7606  -47.4088  -58.0671 H         1 UNK         0.0775 
    109 H109       31.1569  -46.8428  -56.4564 H         1 UNK         0.0775 
    110 H110       33.5593  -45.0305  -59.0872 H         1 UNK         0.0840 
    111 H111       31.8594  -45.4175  -59.1452 H         1 UNK         0.0840 
    112 H112       32.3458  -48.3171  -54.9112 H         1 UNK         0.2987 
    113 H113       33.9255  -51.2544  -53.5609 H         1 UNK         0.0785 
    114 H114       35.6287  -49.8380  -54.6970 H         1 UNK         0.0798 
    115 H115       35.5296  -49.4390  -52.9883 H         1 UNK         0.0798 
    116 H116       34.7945  -48.3780  -54.1864 H         1 UNK         0.0798 
    117 H117       33.1263  -48.7950  -52.3423 H         1 UNK         0.3079 
    118 H118       29.8380  -49.8298  -51.3875 H         1 UNK         0.0794 
    119 H119       30.6908  -49.1397  -49.1383 H         1 UNK         0.0786 
    120 H120       32.3484  -49.4096  -49.6780 H         1 UNK         0.0786 
    121 H121       31.2263  -50.7539  -49.5745 H         1 UNK         0.0786 
    122 H122       31.5149  -47.4575  -51.0775 H         1 UNK         0.3032 
    123 H123       30.3172  -45.8099  -53.9318 H         1 UNK         0.1094 
    124 H124       29.2643  -45.3115  -51.0889 H         1 UNK         0.0794 
    125 H125       29.3561  -44.1010  -52.3650 H         1 UNK         0.0794 
    126 H126       28.2807  -45.4776  -52.5346 H         1 UNK         0.0794 
    127 H127       31.6870  -44.9074  -51.5565 H         1 UNK         0.3016 
@<TRIPOS>BOND
     1    1    2 1    
     2    1   67 1    
     3    1   68 1    
     4    1   69 1    
     5    2    3 2    
     6    2    4 am   BACKBONE|DICT|INTERRES
     7    4    5 1    
     8    4   70 1    
     9    5    6 1    
    10    5   65 1    
    11    5   71 1    
    12    6    7 1    
    13    6   72 1    
    14    6   73 1    
    15    7    8 1    
    16    8    9 1    
    17    8   74 1    
    18    8   75 1    
    19    9   10 ar   
    20    9   14 ar   
    21   10   11 ar   
    22   10   76 1    
    23   11   12 ar   
    24   11   48 1    
    25   12   13 ar   
    26   12   77 1    
    27   13   14 ar   
    28   13   15 1    
    29   14   78 1    
    30   15   16 1    
    31   15   79 1    
    32   15   80 1    
    33   16   17 1    
    34   17   18 1    
    35   17   81 1    
    36   17   82 1    
    37   18   19 1    
    38   18   22 1    
    39   18   83 1    
    40   19   20 am   BACKBONE|DICT|INTERRES
    41   19   21 2    
    42   20   84 1    
    43   20   85 1    
    44   22   23 am   BACKBONE|DICT|INTERRES
    45   22   86 1    
    46   23   24 2    
    47   23   25 1    
    48   25   26 1    
    49   25   27 1    
    50   25   87 1    
    51   26   88 1    
    52   26   89 1    
    53   26   90 1    
    54   27   28 am   BACKBONE|DICT|INTERRES
    55   27   91 1    
    56   28   29 2    
    57   28   30 1    
    58   30   31 1    
    59   30   32 1    
    60   30   92 1    
    61   31   93 1    
    62   31   94 1    
    63   31   95 1    
    64   32   33 am   BACKBONE|DICT|INTERRES
    65   32   96 1    
    66   33   34 2    
    67   33   35 1    
    68   35   36 1    
    69   35   37 1    
    70   35   97 1    
    71   36   98 1    
    72   36   99 1    
    73   36  100 1    
    74   37   38 am   BACKBONE|DICT|INTERRES
    75   37  101 1    
    76   38   39 2    
    77   38   40 1    
    78   40   41 1    
    79   40   42 1    
    80   40  102 1    
    81   41  103 1    
    82   41  104 1    
    83   41  105 1    
    84   42   43 am   BACKBONE|DICT|INTERRES
    85   42  106 1    
    86   43   44 2    
    87   43   45 1    
    88   45   46 1    
    89   45   49 1    
    90   45  107 1    
    91   46   47 1    
    92   46  108 1    
    93   46  109 1    
    94   47   48 1    
    95   48  110 1    
    96   48  111 1    
    97   49   50 am   BACKBONE|DICT|INTERRES
    98   49  112 1    
    99   50   51 2    
   100   50   52 1    
   101   52   53 1    
   102   52   54 1    
   103   52  113 1    
   104   53  114 1    
   105   53  115 1    
   106   53  116 1    
   107   54   55 am   BACKBONE|DICT|INTERRES
   108   54  117 1    
   109   55   56 2    
   110   55   57 1    
   111   57   58 1    
   112   57   59 1    
   113   57  118 1    
   114   58  119 1    
   115   58  120 1    
   116   58  121 1    
   117   59   60 am   BACKBONE|DICT|INTERRES
   118   59  122 1    
   119   60   61 2    
   120   60   62 1    
   121   62   63 1    
   122   62   64 1    
   123   62  123 1    
   124   63  124 1    
   125   63  125 1    
   126   63  126 1    
   127   64   65 am   BACKBONE|DICT|INTERRES
   128   64  127 1    
   129   65   66 2    
@<TRIPOS>SUBSTRUCTURE
     1 UNK         1 GROUP             0       ****    0 ROOT    
