@<TRIPOS>MOLECULE
3R134
127   129    1
SMALL
USER_CHARGES


@<TRIPOS>ATOM
      1 CA         36.3050  -44.5151  -49.2057 C.3       0 UNK        -0.1968 
      2 C          36.3887  -45.0569  -50.6254 C.2       0 UNK         0.4852 
      3 O          37.4432  -44.9587  -51.2553 O.2       0 UNK        -0.5359 
      4 N          35.2851  -45.6197  -51.1347 N.am      1 UNK        -0.4300 
      5 CA         35.2045  -46.2545  -52.4528 C.3       1 UNK         0.0863 
      6 C6         33.7291  -46.3879  -52.9169 C.3       11 UNK        -0.0953 
      7 S7         33.5714  -46.5142  -54.7312 S.3       11 UNK        -0.2369 
      8 C8         33.5249  -44.7578  -55.2182 C.3       11 UNK         0.0226 
      9 C9         32.1027  -44.2198  -55.2839 C.ar      11 UNK        -0.0699 
     10 C10        31.4745  -43.7302  -54.1354 C.ar      11 UNK        -0.0804 
     11 C11        30.1590  -43.2633  -54.1905 C.ar      11 UNK        -0.0871 
     12 C12        29.4823  -43.2534  -55.4124 C.ar      11 UNK        -0.1008 
     13 C13        30.1070  -43.7146  -56.5764 C.ar      11 UNK        -0.0735 
     14 C14        31.4144  -44.2054  -56.5013 C.ar      11 UNK        -0.0945 
     15 C15        29.3603  -43.7481  -57.9045 C.3       11 UNK         0.0169 
     16 S16        28.3964  -42.2334  -58.2327 S.3       11 UNK        -0.2669 
     17 C17        26.9128  -42.9868  -58.9715 C.3       11 UNK        -0.0850 
     18 CA         25.9684  -43.5982  -57.8832 C.3       10 UNK         0.0855 
     19 C          24.6337  -42.8192  -57.6900 C.2       10 UNK         0.5543 
     20 N          24.6931  -41.4962  -57.6157 N.am      10 UNK        -0.7343 
     21 O          23.5528  -43.3917  -57.5621 O.2       10 UNK        -0.5027 
     22 N          25.8064  -45.0498  -58.0449 N.am      10 UNK        -0.4495 
     23 C          25.2670  -45.6745  -59.0991 C.2       10 UNK         0.4903 
     24 O          24.8184  -45.0939  -60.0898 O.2       10 UNK        -0.4860 
     25 CA         25.2605  -47.2137  -59.0358 C.3       9 UNK         0.0227 
     26 CB         24.8479  -47.8739  -60.3683 C.3       9 UNK        -0.1964 
     27 N          26.5309  -47.7705  -58.5539 N.am      9 UNK        -0.4231 
     28 C          27.7550  -47.6281  -59.0898 C.2       9 UNK         0.5014 
     29 O          27.9869  -46.9744  -60.1076 O.2       9 UNK        -0.5270 
     30 CA         28.9325  -48.3295  -58.3786 C.3       8 UNK         0.0284 
     31 CB         29.9234  -47.3030  -57.8048 C.3       8 UNK        -0.1977 
     32 N          28.5168  -49.2230  -57.2969 N.am      8 UNK        -0.4342 
     33 C          27.9630  -50.4318  -57.4543 C.2       8 UNK         0.5039 
     34 O          27.8130  -50.9847  -58.5440 O.2       8 UNK        -0.5547 
     35 CA         27.4414  -51.1099  -56.1771 C.3       7 UNK         0.0281 
     36 CB         28.5719  -51.8579  -55.4514 C.3       7 UNK        -0.1963 
     37 N          26.8073  -50.1543  -55.2613 N.am      7 UNK        -0.4444 
     38 C          25.6436  -49.5308  -55.4989 C.2       7 UNK         0.5104 
     39 O          24.9680  -49.7067  -56.5117 O.2       7 UNK        -0.5100 
     40 CA         25.1669  -48.5157  -54.4471 C.3       6 UNK         0.0396 
     41 CB         24.3943  -49.2250  -53.3241 C.3       6 UNK        -0.1801 
     42 N          26.2675  -47.7406  -53.8715 N.am      6 UNK        -0.4747 
     43 C          26.9393  -46.7759  -54.5181 C.2       6 UNK         0.5012 
     44 O          26.6801  -46.4079  -55.6649 O.2       6 UNK        -0.5003 
     45 CA         28.1268  -46.1465  -53.7615 C.3       5 UNK         0.0782 
     46 C46        27.6396  -44.9702  -52.8760 C.3       11 UNK        -0.0868 
     47 S47        28.9673  -44.2036  -51.8822 S.3       11 UNK        -0.2515 
     48 C48        29.4629  -42.7941  -52.9231 C.3       11 UNK         0.0199 
     49 N          28.9142  -47.1354  -53.0113 N.am      5 UNK        -0.4607 
     50 C          29.5503  -48.1714  -53.5686 C.2       4 UNK         0.5031 
     51 O          29.4574  -48.4719  -54.7617 O.2       4 UNK        -0.5119 
     52 CA         30.4043  -49.0439  -52.6469 C.3       4 UNK         0.0263 
     53 CB         29.5347  -50.0565  -51.8796 C.3       4 UNK        -0.1967 
     54 N          31.3632  -49.7391  -53.4962 N.am      4 UNK        -0.4237 
     55 C          32.5300  -50.2676  -53.1216 C.2       3 UNK         0.4908 
     56 O          32.9213  -50.2958  -51.9541 O.2       3 UNK        -0.5102 
     57 CA         33.4294  -50.8387  -54.2310 C.3       3 UNK         0.0241 
     58 CB         32.7898  -50.8338  -55.6374 C.3       3 UNK        -0.1971 
     59 N          34.6470  -50.0359  -54.2619 N.am      3 UNK        -0.4139 
     60 C          35.8741  -50.4510  -53.9238 C.2       2 UNK         0.5016 
     61 O          36.1626  -51.6185  -53.6574 O.2       2 UNK        -0.5319 
     62 CA         36.9713  -49.3697  -53.8658 C.3       2 UNK         0.0286 
     63 CB         37.7853  -49.3570  -55.1699 C.3       2 UNK        -0.1963 
     64 N          36.4305  -48.0270  -53.6215 N.am      2 UNK        -0.4790 
     65 C          35.9209  -47.6214  -52.4499 C.2       1 UNK         0.5024 
     66 O          35.9577  -48.2977  -51.4190 O.2       1 UNK        -0.4888 
     67 H67        35.3145  -44.6556  -48.7726 H         1 UNK         0.0892 
     68 H68        37.0287  -45.0222  -48.5676 H         1 UNK         0.0892 
     69 H69        36.5303  -43.4489  -49.1972 H         1 UNK         0.0892 
     70 H70        34.4630  -45.7068  -50.5549 H         1 UNK         0.3107 
     71 H71        35.7300  -45.5994  -53.1514 H         1 UNK         0.0773 
     72 H72        33.2459  -47.2530  -52.4587 H         1 UNK         0.0680 
     73 H73        33.1492  -45.5281  -52.5853 H         1 UNK         0.0680 
     74 H74        34.0022  -44.6589  -56.1943 H         1 UNK         0.0650 
     75 H75        34.1240  -44.1598  -54.5301 H         1 UNK         0.0650 
     76 H76        31.9975  -43.7274  -53.1901 H         1 UNK         0.1397 
     77 H77        28.4615  -42.9000  -55.4543 H         1 UNK         0.1363 
     78 H78        31.8967  -44.5874  -57.3907 H         1 UNK         0.1355 
     79 H79        30.0490  -43.9049  -58.7360 H         1 UNK         0.0707 
     80 H80        28.6969  -44.6128  -57.8876 H         1 UNK         0.0707 
     81 H81        26.4071  -42.2378  -59.5835 H         1 UNK         0.1034 
     82 H82        27.2455  -43.7403  -59.6878 H         1 UNK         0.1034 
     83 H83        26.4500  -43.5199  -56.9079 H         1 UNK         0.0482 
     84 H84        23.8431  -40.9730  -57.4742 H         1 UNK         0.3460 
     85 H85        25.5751  -41.0126  -57.6882 H         1 UNK         0.3460 
     86 H86        26.1173  -45.6111  -57.2547 H         1 UNK         0.2989 
     87 H87        24.5106  -47.4822  -58.2904 H         1 UNK         0.0559 
     88 H88        23.8517  -47.5508  -60.6729 H         1 UNK         0.0848 
     89 H89        24.8225  -48.9601  -60.2804 H         1 UNK         0.0848 
     90 H90        25.5339  -47.6181  -61.1764 H         1 UNK         0.0848 
     91 H91        26.4603  -48.3214  -57.7092 H         1 UNK         0.3144 
     92 H92        29.4550  -48.9222  -59.1322 H         1 UNK         0.0727 
     93 H93        29.4686  -46.7085  -57.0118 H         1 UNK         0.0790 
     94 H94        30.2732  -46.6168  -58.5767 H         1 UNK         0.0790 
     95 H95        30.8029  -47.7920  -57.3853 H         1 UNK         0.0790 
     96 H96        28.6749  -48.8830  -56.3488 H         1 UNK         0.3215 
     97 H97        26.6874  -51.8416  -56.4760 H         1 UNK         0.0863 
     98 H98        28.1968  -52.3978  -54.5819 H         1 UNK         0.0808 
     99 H99        29.3566  -51.1817  -55.1144 H         1 UNK         0.0808 
    100 H100       29.0375  -52.5918  -56.1106 H         1 UNK         0.0808 
    101 H101       27.3173  -49.9133  -54.4250 H         1 UNK         0.3118 
    102 H102       24.4831  -47.8216  -54.9411 H         1 UNK         0.0546 
    103 H103       25.0252  -49.9238  -52.7734 H         1 UNK         0.0828 
    104 H104       23.5551  -49.7933  -53.7279 H         1 UNK         0.0828 
    105 H105       23.9841  -48.5093  -52.6115 H         1 UNK         0.0828 
    106 H106       26.5508  -47.9715  -52.9299 H         1 UNK         0.3005 
    107 H107       28.7938  -45.7462  -54.5267 H         1 UNK         0.1257 
    108 H108       26.8735  -45.3131  -52.1778 H         1 UNK         0.0775 
    109 H109       27.1630  -44.2023  -53.4885 H         1 UNK         0.0775 
    110 H110       28.5898  -42.1825  -53.1563 H         1 UNK         0.0840 
    111 H111       30.1389  -42.1543  -52.3541 H         1 UNK         0.0840 
    112 H112       29.0393  -46.9446  -52.0274 H         1 UNK         0.2987 
    113 H113       30.9399  -48.3994  -51.9467 H         1 UNK         0.0785 
    114 H114       28.7987  -49.5500  -51.2542 H         1 UNK         0.0798 
    115 H115       30.1406  -50.6790  -51.2210 H         1 UNK         0.0798 
    116 H116       28.9924  -50.7187  -52.5551 H         1 UNK         0.0798 
    117 H117       31.1274  -49.6922  -54.4804 H         1 UNK         0.3079 
    118 H118       33.6534  -51.8724  -53.9594 H         1 UNK         0.0794 
    119 H119       33.4675  -51.2718  -56.3705 H         1 UNK         0.0786 
    120 H120       32.5484  -49.8264  -55.9805 H         1 UNK         0.0786 
    121 H121       31.8754  -51.4281  -55.6602 H         1 UNK         0.0786 
    122 H122       34.5190  -49.0473  -54.4266 H         1 UNK         0.3032 
    123 H123       37.6418  -49.6286  -53.0429 H         1 UNK         0.1094 
    124 H124       37.1676  -49.0982  -56.0308 H         1 UNK         0.0794 
    125 H125       38.6075  -48.6431  -55.1179 H         1 UNK         0.0794 
    126 H126       38.2220  -50.3375  -55.3656 H         1 UNK         0.0794 
    127 H127       36.3667  -47.4103  -54.4200 H         1 UNK         0.3016 
@<TRIPOS>BOND
     1    1    2 1    
     2    1   67 1    
     3    1   68 1    
     4    1   69 1    
     5    2    3 2    
     6    2    4 am   BACKBONE|DICT|INTERRES
     7    4    5 1    
     8    4   70 1    
     9    5    6 1    
    10    5   65 1    
    11    5   71 1    
    12    6    7 1    
    13    6   72 1    
    14    6   73 1    
    15    7    8 1    
    16    8    9 1    
    17    8   74 1    
    18    8   75 1    
    19    9   10 ar   
    20    9   14 ar   
    21   10   11 ar   
    22   10   76 1    
    23   11   12 ar   
    24   11   48 1    
    25   12   13 ar   
    26   12   77 1    
    27   13   14 ar   
    28   13   15 1    
    29   14   78 1    
    30   15   16 1    
    31   15   79 1    
    32   15   80 1    
    33   16   17 1    
    34   17   18 1    
    35   17   81 1    
    36   17   82 1    
    37   18   19 1    
    38   18   22 1    
    39   18   83 1    
    40   19   20 am   BACKBONE|DICT|INTERRES
    41   19   21 2    
    42   20   84 1    
    43   20   85 1    
    44   22   23 am   BACKBONE|DICT|INTERRES
    45   22   86 1    
    46   23   24 2    
    47   23   25 1    
    48   25   26 1    
    49   25   27 1    
    50   25   87 1    
    51   26   88 1    
    52   26   89 1    
    53   26   90 1    
    54   27   28 am   BACKBONE|DICT|INTERRES
    55   27   91 1    
    56   28   29 2    
    57   28   30 1    
    58   30   31 1    
    59   30   32 1    
    60   30   92 1    
    61   31   93 1    
    62   31   94 1    
    63   31   95 1    
    64   32   33 am   BACKBONE|DICT|INTERRES
    65   32   96 1    
    66   33   34 2    
    67   33   35 1    
    68   35   36 1    
    69   35   37 1    
    70   35   97 1    
    71   36   98 1    
    72   36   99 1    
    73   36  100 1    
    74   37   38 am   BACKBONE|DICT|INTERRES
    75   37  101 1    
    76   38   39 2    
    77   38   40 1    
    78   40   41 1    
    79   40   42 1    
    80   40  102 1    
    81   41  103 1    
    82   41  104 1    
    83   41  105 1    
    84   42   43 am   BACKBONE|DICT|INTERRES
    85   42  106 1    
    86   43   44 2    
    87   43   45 1    
    88   45   46 1    
    89   45   49 1    
    90   45  107 1    
    91   46   47 1    
    92   46  108 1    
    93   46  109 1    
    94   47   48 1    
    95   48  110 1    
    96   48  111 1    
    97   49   50 am   BACKBONE|DICT|INTERRES
    98   49  112 1    
    99   50   51 2    
   100   50   52 1    
   101   52   53 1    
   102   52   54 1    
   103   52  113 1    
   104   53  114 1    
   105   53  115 1    
   106   53  116 1    
   107   54   55 am   BACKBONE|DICT|INTERRES
   108   54  117 1    
   109   55   56 2    
   110   55   57 1    
   111   57   58 1    
   112   57   59 1    
   113   57  118 1    
   114   58  119 1    
   115   58  120 1    
   116   58  121 1    
   117   59   60 am   BACKBONE|DICT|INTERRES
   118   59  122 1    
   119   60   61 2    
   120   60   62 1    
   121   62   63 1    
   122   62   64 1    
   123   62  123 1    
   124   63  124 1    
   125   63  125 1    
   126   63  126 1    
   127   64   65 am   BACKBONE|DICT|INTERRES
   128   64  127 1    
   129   65   66 2    
@<TRIPOS>SUBSTRUCTURE
     1 UNK         1 GROUP             0       ****    0 ROOT    
