@<TRIPOS>MOLECULE
3R134
127   129    1
SMALL
USER_CHARGES


@<TRIPOS>ATOM
      1 CA         29.1949  -44.7974  -49.6711 C.3       0 UNK        -0.1968 
      2 C          30.4996  -45.4554  -49.2449 C.2       0 UNK         0.4852 
      3 O          30.6040  -45.9316  -48.1131 O.2       0 UNK        -0.5359 
      4 N          31.4918  -45.4759  -50.1430 N.am      1 UNK        -0.4300 
      5 CA         32.7860  -46.1398  -49.9649 C.3       1 UNK         0.0863 
      6 C6         33.9149  -45.3711  -50.7076 C.3       11 UNK        -0.0953 
      7 S7         33.7477  -45.3688  -52.5238 S.3       11 UNK        -0.2369 
      8 C8         33.0772  -43.7050  -52.8569 C.3       11 UNK         0.0226 
      9 C9         32.3950  -43.6416  -54.2192 C.ar      11 UNK        -0.0699 
     10 C10        33.1234  -43.9235  -55.3783 C.ar      11 UNK        -0.0804 
     11 C11        32.5007  -43.9049  -56.6274 C.ar      11 UNK        -0.0871 
     12 C12        31.1515  -43.5662  -56.7187 C.ar      11 UNK        -0.1008 
     13 C13        30.3960  -43.3018  -55.5730 C.ar      11 UNK        -0.0735 
     14 C14        31.0317  -43.3337  -54.3244 C.ar      11 UNK        -0.0945 
     15 C15        28.8861  -43.0633  -55.6510 C.3       11 UNK         0.0169 
     16 S16        28.3314  -42.0051  -57.0336 S.3       11 UNK        -0.2669 
     17 C17        28.0794  -43.1849  -58.4121 C.3       11 UNK        -0.0850 
     18 CA         26.6212  -43.6968  -58.5194 C.3       10 UNK         0.0855 
     19 C          26.3565  -44.3275  -59.9111 C.2       10 UNK         0.5543 
     20 N          25.6237  -43.6411  -60.7767 N.am      10 UNK        -0.7343 
     21 O          26.8485  -45.4089  -60.2269 O.2       10 UNK        -0.5027 
     22 N          26.3286  -44.6748  -57.4664 N.am      10 UNK        -0.4495 
     23 C          25.1117  -44.8999  -56.9595 C.2       10 UNK         0.4903 
     24 O          24.1113  -44.2458  -57.2607 O.2       10 UNK        -0.4860 
     25 CA         25.0079  -46.0488  -55.9398 C.3       9 UNK         0.0227 
     26 CB         23.5677  -46.2971  -55.4427 C.3       9 UNK        -0.1964 
     27 N          25.6174  -47.2915  -56.4269 N.am      9 UNK        -0.4231 
     28 C          25.2624  -48.0155  -57.5013 C.2       9 UNK         0.5014 
     29 O          24.3151  -47.7312  -58.2358 O.2       9 UNK        -0.5270 
     30 CA         26.0950  -49.2727  -57.8330 C.3       8 UNK         0.0284 
     31 CB         26.8707  -49.0631  -59.1442 C.3       8 UNK        -0.1977 
     32 N          27.0395  -49.6644  -56.7826 N.am      8 UNK        -0.4342 
     33 C          26.7114  -50.2162  -55.6062 C.2       8 UNK         0.5039 
     34 O          25.5667  -50.5531  -55.3026 O.2       8 UNK        -0.5547 
     35 CA         27.8448  -50.3602  -54.5717 C.3       7 UNK         0.0281 
     36 CB         28.5978  -51.6868  -54.7581 C.3       7 UNK        -0.1963 
     37 N          28.7924  -49.2387  -54.6040 N.am      7 UNK        -0.4444 
     38 C          28.4631  -47.9633  -54.3500 C.2       7 UNK         0.5104 
     39 O          27.3381  -47.6014  -54.0092 O.2       7 UNK        -0.5100 
     40 CA         29.5471  -46.9031  -54.5713 C.3       6 UNK         0.0396 
     41 CB         30.4737  -46.8174  -53.3569 C.3       6 UNK        -0.1801 
     42 N          30.3145  -47.1577  -55.7927 N.am      6 UNK        -0.4747 
     43 C          29.8467  -46.9186  -57.0279 C.2       6 UNK         0.5012 
     44 O          28.7602  -46.3776  -57.2411 O.2       6 UNK        -0.5003 
     45 CA         30.6789  -47.4311  -58.2263 C.3       5 UNK         0.0782 
     46 C46        31.5479  -46.3341  -58.9008 C.3       11 UNK        -0.0868 
     47 S47        33.2037  -46.0870  -58.1565 S.3       11 UNK        -0.2515 
     48 C48        33.2726  -44.2891  -57.8769 C.3       11 UNK         0.0199 
     49 N          31.4551  -48.6316  -57.9047 N.am      5 UNK        -0.4607 
     50 C          30.9342  -49.8344  -57.6367 C.2       4 UNK         0.5031 
     51 O          29.7313  -50.0812  -57.6958 O.2       4 UNK        -0.5119 
     52 CA         31.9151  -50.9258  -57.1723 C.3       4 UNK         0.0263 
     53 CB         32.4941  -51.6783  -58.3803 C.3       4 UNK        -0.1967 
     54 N          33.0092  -50.4017  -56.3447 N.am      4 UNK        -0.4237 
     55 C          32.8383  -49.8040  -55.1571 C.2       3 UNK         0.4908 
     56 O          31.7355  -49.6521  -54.6278 O.2       3 UNK        -0.5102 
     57 CA         34.0999  -49.2055  -54.5105 C.3       3 UNK         0.0241 
     58 CB         34.3969  -47.8254  -55.1193 C.3       3 UNK        -0.1971 
     59 N          33.9966  -49.0663  -53.0548 N.am      3 UNK        -0.4139 
     60 C          33.9702  -50.0879  -52.1872 C.2       2 UNK         0.5016 
     61 O          34.0055  -51.2705  -52.5326 O.2       2 UNK        -0.5319 
     62 CA         33.9554  -49.7578  -50.6793 C.3       2 UNK         0.0286 
     63 CB         35.2208  -50.3048  -49.9950 C.3       2 UNK        -0.1963 
     64 N          33.8469  -48.3255  -50.3731 N.am      2 UNK        -0.4790 
     65 C          32.6947  -47.6435  -50.3317 C.2       1 UNK         0.5024 
     66 O          31.6033  -48.1663  -50.5684 O.2       1 UNK        -0.4888 
     67 H67        29.2518  -44.3907  -50.6807 H         1 UNK         0.0892 
     68 H68        28.3835  -45.5244  -49.6445 H         1 UNK         0.0892 
     69 H69        28.9455  -43.9828  -48.9917 H         1 UNK         0.0892 
     70 H70        31.3318  -45.1021  -51.0654 H         1 UNK         0.3107 
     71 H71        33.0366  -46.1115  -48.9022 H         1 UNK         0.0773 
     72 H72        34.8916  -45.7890  -50.4597 H         1 UNK         0.0680 
     73 H73        33.9530  -44.3401  -50.3519 H         1 UNK         0.0680 
     74 H74        33.8893  -42.9777  -52.8220 H         1 UNK         0.0650 
     75 H75        32.3771  -43.4271  -52.0682 H         1 UNK         0.0650 
     76 H76        34.1690  -44.1896  -55.3027 H         1 UNK         0.1397 
     77 H77        30.6943  -43.5385  -57.6919 H         1 UNK         0.1363 
     78 H78        30.4573  -43.1409  -53.4289 H         1 UNK         0.1355 
     79 H79        28.3754  -44.0231  -55.7083 H         1 UNK         0.0707 
     80 H80        28.5429  -42.5944  -54.7277 H         1 UNK         0.0707 
     81 H81        28.3641  -42.6565  -59.3243 H         1 UNK         0.1034 
     82 H82        28.7576  -44.0325  -58.3388 H         1 UNK         0.1034 
     83 H83        25.9566  -42.8382  -58.4001 H         1 UNK         0.0482 
     84 H84        25.4557  -44.0288  -61.6919 H         1 UNK         0.3460 
     85 H85        25.2225  -42.7498  -60.5287 H         1 UNK         0.3460 
     86 H86        27.0876  -45.3109  -57.2394 H         1 UNK         0.2989 
     87 H87        25.5996  -45.7396  -55.0771 H         1 UNK         0.0559 
     88 H88        22.8971  -46.5731  -56.2571 H         1 UNK         0.0848 
     89 H89        23.1572  -45.4015  -54.9749 H         1 UNK         0.0848 
     90 H90        23.5377  -47.0933  -54.6989 H         1 UNK         0.0848 
     91 H91        26.3985  -47.6215  -55.8720 H         1 UNK         0.3144 
     92 H92        25.3937  -50.0968  -57.9792 H         1 UNK         0.0727 
     93 H93        27.4479  -49.9476  -59.4145 H         1 UNK         0.0790 
     94 H94        27.5573  -48.2194  -59.0715 H         1 UNK         0.0790 
     95 H95        26.1910  -48.8539  -59.9715 H         1 UNK         0.0790 
     96 H96        28.0271  -49.5307  -56.9862 H         1 UNK         0.3215 
     97 H97        27.3855  -50.3680  -53.5809 H         1 UNK         0.0863 
     98 H98        29.3950  -51.7993  -54.0228 H         1 UNK         0.0808 
     99 H99        29.0420  -51.7659  -55.7497 H         1 UNK         0.0808 
    100 H100       27.9225  -52.5349  -54.6382 H         1 UNK         0.0808 
    101 H101       29.7628  -49.4505  -54.8198 H         1 UNK         0.3118 
    102 H102       29.0517  -45.9370  -54.6688 H         1 UNK         0.0546 
    103 H103       29.9133  -46.5570  -52.4587 H         1 UNK         0.0828 
    104 H104       31.2278  -46.0527  -53.5083 H         1 UNK         0.0828 
    105 H105       30.9853  -47.7567  -53.1555 H         1 UNK         0.0828 
    106 H106       31.1876  -47.6548  -55.6871 H         1 UNK         0.3005 
    107 H107       29.9372  -47.7332  -58.9694 H         1 UNK         0.1257 
    108 H108       31.0066  -45.3904  -58.9651 H         1 UNK         0.0775 
    109 H109       31.7230  -46.6232  -59.9382 H         1 UNK         0.0775 
    110 H110       34.3163  -43.9893  -57.7717 H         1 UNK         0.0840 
    111 H111       32.8915  -43.7590  -58.7512 H         1 UNK         0.0840 
    112 H112       32.4541  -48.5005  -57.8383 H         1 UNK         0.2987 
    113 H113       31.3522  -51.6372  -56.5649 H         1 UNK         0.0785 
    114 H114       31.6967  -52.0939  -58.9983 H         1 UNK         0.0798 
    115 H115       33.1235  -52.5108  -58.0652 H         1 UNK         0.0798 
    116 H116       33.0927  -51.0253  -59.0168 H         1 UNK         0.0798 
    117 H117       33.9428  -50.4825  -56.7221 H         1 UNK         0.3079 
    118 H118       34.9423  -49.8683  -54.7196 H         1 UNK         0.0794 
    119 H119       33.5551  -47.1406  -55.0038 H         1 UNK         0.0786 
    120 H120       34.6079  -47.9053  -56.1859 H         1 UNK         0.0786 
    121 H121       35.2694  -47.3632  -54.6570 H         1 UNK         0.0786 
    122 H122       33.9354  -48.1275  -52.6889 H         1 UNK         0.3032 
    123 H123       33.0927  -50.2767  -50.2545 H         1 UNK         0.1094 
    124 H124       36.1257  -49.8385  -50.3868 H         1 UNK         0.0794 
    125 H125       35.1943  -50.1371  -48.9181 H         1 UNK         0.0794 
    126 H126       35.3171  -51.3808  -50.1482 H         1 UNK         0.0794 
    127 H127       34.7109  -47.8398  -50.1774 H         1 UNK         0.3016 
@<TRIPOS>BOND
     1    1    2 1    
     2    1   67 1    
     3    1   68 1    
     4    1   69 1    
     5    2    3 2    
     6    2    4 am   BACKBONE|DICT|INTERRES
     7    4    5 1    
     8    4   70 1    
     9    5    6 1    
    10    5   65 1    
    11    5   71 1    
    12    6    7 1    
    13    6   72 1    
    14    6   73 1    
    15    7    8 1    
    16    8    9 1    
    17    8   74 1    
    18    8   75 1    
    19    9   10 ar   
    20    9   14 ar   
    21   10   11 ar   
    22   10   76 1    
    23   11   12 ar   
    24   11   48 1    
    25   12   13 ar   
    26   12   77 1    
    27   13   14 ar   
    28   13   15 1    
    29   14   78 1    
    30   15   16 1    
    31   15   79 1    
    32   15   80 1    
    33   16   17 1    
    34   17   18 1    
    35   17   81 1    
    36   17   82 1    
    37   18   19 1    
    38   18   22 1    
    39   18   83 1    
    40   19   20 am   BACKBONE|DICT|INTERRES
    41   19   21 2    
    42   20   84 1    
    43   20   85 1    
    44   22   23 am   BACKBONE|DICT|INTERRES
    45   22   86 1    
    46   23   24 2    
    47   23   25 1    
    48   25   26 1    
    49   25   27 1    
    50   25   87 1    
    51   26   88 1    
    52   26   89 1    
    53   26   90 1    
    54   27   28 am   BACKBONE|DICT|INTERRES
    55   27   91 1    
    56   28   29 2    
    57   28   30 1    
    58   30   31 1    
    59   30   32 1    
    60   30   92 1    
    61   31   93 1    
    62   31   94 1    
    63   31   95 1    
    64   32   33 am   BACKBONE|DICT|INTERRES
    65   32   96 1    
    66   33   34 2    
    67   33   35 1    
    68   35   36 1    
    69   35   37 1    
    70   35   97 1    
    71   36   98 1    
    72   36   99 1    
    73   36  100 1    
    74   37   38 am   BACKBONE|DICT|INTERRES
    75   37  101 1    
    76   38   39 2    
    77   38   40 1    
    78   40   41 1    
    79   40   42 1    
    80   40  102 1    
    81   41  103 1    
    82   41  104 1    
    83   41  105 1    
    84   42   43 am   BACKBONE|DICT|INTERRES
    85   42  106 1    
    86   43   44 2    
    87   43   45 1    
    88   45   46 1    
    89   45   49 1    
    90   45  107 1    
    91   46   47 1    
    92   46  108 1    
    93   46  109 1    
    94   47   48 1    
    95   48  110 1    
    96   48  111 1    
    97   49   50 am   BACKBONE|DICT|INTERRES
    98   49  112 1    
    99   50   51 2    
   100   50   52 1    
   101   52   53 1    
   102   52   54 1    
   103   52  113 1    
   104   53  114 1    
   105   53  115 1    
   106   53  116 1    
   107   54   55 am   BACKBONE|DICT|INTERRES
   108   54  117 1    
   109   55   56 2    
   110   55   57 1    
   111   57   58 1    
   112   57   59 1    
   113   57  118 1    
   114   58  119 1    
   115   58  120 1    
   116   58  121 1    
   117   59   60 am   BACKBONE|DICT|INTERRES
   118   59  122 1    
   119   60   61 2    
   120   60   62 1    
   121   62   63 1    
   122   62   64 1    
   123   62  123 1    
   124   63  124 1    
   125   63  125 1    
   126   63  126 1    
   127   64   65 am   BACKBONE|DICT|INTERRES
   128   64  127 1    
   129   65   66 2    
@<TRIPOS>SUBSTRUCTURE
     1 UNK         1 GROUP             0       ****    0 ROOT    
