@<TRIPOS>MOLECULE
3R134
127   129    1
SMALL
USER_CHARGES


@<TRIPOS>ATOM
      1 CA         38.1195  -46.9204  -51.8109 C.3       0 UNK        -0.1968 
      2 C          36.7977  -47.1078  -52.5394 C.2       0 UNK         0.4852 
      3 O          36.2191  -48.1953  -52.4906 O.2       0 UNK        -0.5359 
      4 N          36.2958  -46.0522  -53.1982 N.am      1 UNK        -0.4300 
      5 CA         35.0543  -46.0674  -53.9855 C.3       1 UNK         0.0863 
      6 C6         34.9126  -44.8139  -54.8822 C.3       11 UNK        -0.0953 
      7 S7         34.6081  -43.2671  -53.9599 S.3       11 UNK        -0.2369 
      8 C8         33.3678  -42.4454  -55.0136 C.3       11 UNK         0.0226 
      9 C9         32.0608  -43.2226  -55.1366 C.ar      11 UNK        -0.0699 
     10 C10        31.2594  -43.4465  -54.0116 C.ar      11 UNK        -0.0804 
     11 C11        30.0320  -44.1089  -54.1266 C.ar      11 UNK        -0.0871 
     12 C12        29.6062  -44.5319  -55.3902 C.ar      11 UNK        -0.1008 
     13 C13        30.3998  -44.3270  -56.5205 C.ar      11 UNK        -0.0735 
     14 C14        31.6303  -43.6782  -56.3878 C.ar      11 UNK        -0.0945 
     15 C15        29.9043  -44.7903  -57.8832 C.3       11 UNK         0.0169 
     16 S16        29.3773  -43.4196  -58.9734 S.3       11 UNK        -0.2669 
     17 C17        28.3953  -42.3068  -57.8945 C.3       11 UNK        -0.0850 
     18 CA         26.8740  -42.6082  -57.8398 C.3       10 UNK         0.0855 
     19 C          26.1272  -42.2260  -59.1527 C.2       10 UNK         0.5543 
     20 N          25.3192  -43.0955  -59.7485 N.am      10 UNK        -0.7343 
     21 O          26.2669  -41.1031  -59.6317 O.2       10 UNK        -0.5027 
     22 N          26.6189  -43.9739  -57.3657 N.am      10 UNK        -0.4495 
     23 C          25.5823  -44.3573  -56.6121 C.2       10 UNK         0.4903 
     24 O          24.7491  -43.5794  -56.1445 O.2       10 UNK        -0.4860 
     25 CA         25.4611  -45.8734  -56.3530 C.3       9 UNK         0.0227 
     26 CB         24.0490  -46.2908  -55.8936 C.3       9 UNK        -0.1964 
     27 N          25.8927  -46.6959  -57.4921 N.am      9 UNK        -0.4231 
     28 C          25.4356  -46.6648  -58.7519 C.2       9 UNK         0.5014 
     29 O          24.5611  -45.8899  -59.1407 O.2       9 UNK        -0.5270 
     30 CA         26.0667  -47.6349  -59.7709 C.3       8 UNK         0.0284 
     31 CB         27.2990  -46.9898  -60.4372 C.3       8 UNK        -0.1977 
     32 N          26.3750  -48.9854  -59.2677 N.am      8 UNK        -0.4342 
     33 C          27.2462  -49.3437  -58.3152 C.2       8 UNK         0.5039 
     34 O          27.9309  -48.5382  -57.6790 O.2       8 UNK        -0.5547 
     35 CA         27.3718  -50.8477  -58.0335 C.3       7 UNK         0.0281 
     36 CB         28.4660  -51.4657  -58.9186 C.3       7 UNK        -0.1963 
     37 N          27.7397  -51.0287  -56.6328 N.am      7 UNK        -0.4444 
     38 C          26.9386  -51.5098  -55.6730 C.2       7 UNK         0.5104 
     39 O          25.8376  -52.0173  -55.8911 O.2       7 UNK        -0.5100 
     40 CA         27.4307  -51.3926  -54.2136 C.3       6 UNK         0.0396 
     41 CB         28.0772  -52.7100  -53.7577 C.3       6 UNK        -0.1801 
     42 N          28.3801  -50.2966  -53.9985 N.am      6 UNK        -0.4747 
     43 C          28.1176  -48.9964  -54.2040 C.2       6 UNK         0.5012 
     44 O          26.9861  -48.5714  -54.4399 O.2       6 UNK        -0.5003 
     45 CA         29.3103  -48.0101  -54.1784 C.3       5 UNK         0.0782 
     46 C46        29.2964  -47.1435  -52.8902 C.3       11 UNK        -0.0868 
     47 S47        28.0839  -45.7803  -52.9233 S.3       11 UNK        -0.2515 
     48 C48        29.1669  -44.3070  -52.8819 C.3       11 UNK         0.0199 
     49 N          30.6353  -48.6251  -54.3553 N.am      5 UNK        -0.4607 
     50 C          31.0579  -49.4522  -55.3231 C.2       4 UNK         0.5031 
     51 O          30.3487  -49.8686  -56.2357 O.2       4 UNK        -0.5119 
     52 CA         32.5170  -49.9361  -55.2420 C.3       4 UNK         0.0263 
     53 CB         33.4046  -49.1298  -56.2042 C.3       4 UNK        -0.1967 
     54 N          33.0757  -49.8746  -53.8869 N.am      4 UNK        -0.4237 
     55 C          32.7155  -50.6745  -52.8715 C.2       3 UNK         0.4908 
     56 O          31.8934  -51.5853  -52.9767 O.2       3 UNK        -0.5102 
     57 CA         33.3644  -50.3946  -51.5052 C.3       3 UNK         0.0241 
     58 CB         34.7202  -51.1099  -51.3911 C.3       3 UNK        -0.1971 
     59 N          33.5395  -48.9585  -51.2688 N.am      3 UNK        -0.4139 
     60 C          32.5439  -48.1374  -50.8963 C.2       2 UNK         0.5016 
     61 O          31.4111  -48.5265  -50.6140 O.2       2 UNK        -0.5319 
     62 CA         32.8395  -46.6242  -50.8616 C.3       2 UNK         0.0286 
     63 CB         33.2615  -46.1901  -49.4494 C.3       2 UNK        -0.1963 
     64 N          33.8637  -46.2044  -51.8213 N.am      2 UNK        -0.4790 
     65 C          33.7834  -46.3546  -53.1525 C.2       1 UNK         0.5024 
     66 O          32.7774  -46.7725  -53.7202 O.2       1 UNK        -0.4888 
     67 H67        37.9921  -47.1166  -50.7468 H         1 UNK         0.0892 
     68 H68        38.8619  -47.6169  -52.1995 H         1 UNK         0.0892 
     69 H69        38.5093  -45.9092  -51.9263 H         1 UNK         0.0892 
     70 H70        36.7940  -45.1729  -53.1890 H         1 UNK         0.3107 
     71 H71        35.1497  -46.9178  -54.6638 H         1 UNK         0.0773 
     72 H72        35.8148  -44.6802  -55.4808 H         1 UNK         0.0680 
     73 H73        34.1110  -44.9772  -55.6038 H         1 UNK         0.0680 
     74 H74        33.8077  -42.2678  -55.9962 H         1 UNK         0.0650 
     75 H75        33.1526  -41.4616  -54.5947 H         1 UNK         0.0650 
     76 H76        31.5923  -43.0922  -53.0455 H         1 UNK         0.1397 
     77 H77        28.6456  -45.0128  -55.5022 H         1 UNK         0.1363 
     78 H78        32.2369  -43.5051  -57.2661 H         1 UNK         0.1355 
     79 H79        29.0799  -45.4957  -57.7702 H         1 UNK         0.0707 
     80 H80        30.6999  -45.3457  -58.3820 H         1 UNK         0.0707 
     81 H81        28.7996  -42.3076  -56.8833 H         1 UNK         0.1034 
     82 H82        28.5588  -41.2853  -58.2428 H         1 UNK         0.1034 
     83 H83        26.4651  -41.9254  -57.0926 H         1 UNK         0.0482 
     84 H84        24.8427  -42.8180  -60.5915 H         1 UNK         0.3460 
     85 H85        25.1527  -44.0185  -59.3622 H         1 UNK         0.3460 
     86 H86        27.2283  -44.6825  -57.7435 H         1 UNK         0.2989 
     87 H87        26.1521  -46.0969  -55.5391 H         1 UNK         0.0559 
     88 H88        23.2946  -46.0614  -56.6469 H         1 UNK         0.0848 
     89 H89        23.7650  -45.7717  -54.9774 H         1 UNK         0.0848 
     90 H90        24.0029  -47.3596  -55.6843 H         1 UNK         0.0848 
     91 H91        26.6533  -47.3536  -57.3116 H         1 UNK         0.3144 
     92 H92        25.3181  -47.7816  -60.5514 H         1 UNK         0.0727 
     93 H93        28.1097  -46.8230  -59.7276 H         1 UNK         0.0790 
     94 H94        27.0465  -46.0210  -60.8710 H         1 UNK         0.0790 
     95 H95        27.6848  -47.6141  -61.2430 H         1 UNK         0.0790 
     96 H96        25.8430  -49.7248  -59.7074 H         1 UNK         0.3215 
     97 H97        26.4188  -51.3353  -58.2500 H         1 UNK         0.0863 
     98 H98        28.5788  -52.5319  -58.7214 H         1 UNK         0.0808 
     99 H99        29.4341  -50.9906  -58.7510 H         1 UNK         0.0808 
    100 H100       28.2256  -51.3541  -59.9766 H         1 UNK         0.0808 
    101 H101       28.6060  -50.5643  -56.3627 H         1 UNK         0.3118 
    102 H102       26.5574  -51.2025  -53.5866 H         1 UNK         0.0546 
    103 H103       27.3882  -53.5467  -53.8814 H         1 UNK         0.0828 
    104 H104       28.3546  -52.6734  -52.7041 H         1 UNK         0.0828 
    105 H105       28.9753  -52.9385  -54.3333 H         1 UNK         0.0828 
    106 H106       29.3383  -50.5577  -53.8098 H         1 UNK         0.3005 
    107 H107       29.1786  -47.3596  -55.0447 H         1 UNK         0.1257 
    108 H108       30.2788  -46.6981  -52.7356 H         1 UNK         0.0775 
    109 H109       29.1160  -47.7567  -52.0051 H         1 UNK         0.0775 
    110 H110       28.5395  -43.4233  -52.7589 H         1 UNK         0.0840 
    111 H111       29.7947  -44.3644  -51.9912 H         1 UNK         0.0840 
    112 H112       31.3500  -48.2791  -53.7268 H         1 UNK         0.2987 
    113 H113       32.5322  -50.9803  -55.5617 H         1 UNK         0.0785 
    114 H114       33.3814  -48.0630  -55.9817 H         1 UNK         0.0798 
    115 H115       33.0638  -49.2493  -57.2336 H         1 UNK         0.0798 
    116 H116       34.4420  -49.4625  -56.1666 H         1 UNK         0.0798 
    117 H117       33.7488  -49.1444  -53.7061 H         1 UNK         0.3079 
    118 H118       32.7055  -50.7992  -50.7337 H         1 UNK         0.0794 
    119 H119       35.4261  -50.7679  -52.1489 H         1 UNK         0.0786 
    120 H120       34.6033  -52.1870  -51.5179 H         1 UNK         0.0786 
    121 H121       35.1736  -50.9460  -50.4134 H         1 UNK         0.0786 
    122 H122       34.4469  -48.5648  -51.4995 H         1 UNK         0.3032 
    123 H123       31.9143  -46.1039  -51.1169 H         1 UNK         0.1094 
    124 H124       33.3893  -45.1091  -49.3876 H         1 UNK         0.0794 
    125 H125       32.5044  -46.4671  -48.7142 H         1 UNK         0.0794 
    126 H126       34.1983  -46.6586  -49.1451 H         1 UNK         0.0794 
    127 H127       34.7280  -45.8482  -51.4401 H         1 UNK         0.3016 
@<TRIPOS>BOND
     1    1    2 1    
     2    1   67 1    
     3    1   68 1    
     4    1   69 1    
     5    2    3 2    
     6    2    4 am   BACKBONE|DICT|INTERRES
     7    4    5 1    
     8    4   70 1    
     9    5    6 1    
    10    5   65 1    
    11    5   71 1    
    12    6    7 1    
    13    6   72 1    
    14    6   73 1    
    15    7    8 1    
    16    8    9 1    
    17    8   74 1    
    18    8   75 1    
    19    9   10 ar   
    20    9   14 ar   
    21   10   11 ar   
    22   10   76 1    
    23   11   12 ar   
    24   11   48 1    
    25   12   13 ar   
    26   12   77 1    
    27   13   14 ar   
    28   13   15 1    
    29   14   78 1    
    30   15   16 1    
    31   15   79 1    
    32   15   80 1    
    33   16   17 1    
    34   17   18 1    
    35   17   81 1    
    36   17   82 1    
    37   18   19 1    
    38   18   22 1    
    39   18   83 1    
    40   19   20 am   BACKBONE|DICT|INTERRES
    41   19   21 2    
    42   20   84 1    
    43   20   85 1    
    44   22   23 am   BACKBONE|DICT|INTERRES
    45   22   86 1    
    46   23   24 2    
    47   23   25 1    
    48   25   26 1    
    49   25   27 1    
    50   25   87 1    
    51   26   88 1    
    52   26   89 1    
    53   26   90 1    
    54   27   28 am   BACKBONE|DICT|INTERRES
    55   27   91 1    
    56   28   29 2    
    57   28   30 1    
    58   30   31 1    
    59   30   32 1    
    60   30   92 1    
    61   31   93 1    
    62   31   94 1    
    63   31   95 1    
    64   32   33 am   BACKBONE|DICT|INTERRES
    65   32   96 1    
    66   33   34 2    
    67   33   35 1    
    68   35   36 1    
    69   35   37 1    
    70   35   97 1    
    71   36   98 1    
    72   36   99 1    
    73   36  100 1    
    74   37   38 am   BACKBONE|DICT|INTERRES
    75   37  101 1    
    76   38   39 2    
    77   38   40 1    
    78   40   41 1    
    79   40   42 1    
    80   40  102 1    
    81   41  103 1    
    82   41  104 1    
    83   41  105 1    
    84   42   43 am   BACKBONE|DICT|INTERRES
    85   42  106 1    
    86   43   44 2    
    87   43   45 1    
    88   45   46 1    
    89   45   49 1    
    90   45  107 1    
    91   46   47 1    
    92   46  108 1    
    93   46  109 1    
    94   47   48 1    
    95   48  110 1    
    96   48  111 1    
    97   49   50 am   BACKBONE|DICT|INTERRES
    98   49  112 1    
    99   50   51 2    
   100   50   52 1    
   101   52   53 1    
   102   52   54 1    
   103   52  113 1    
   104   53  114 1    
   105   53  115 1    
   106   53  116 1    
   107   54   55 am   BACKBONE|DICT|INTERRES
   108   54  117 1    
   109   55   56 2    
   110   55   57 1    
   111   57   58 1    
   112   57   59 1    
   113   57  118 1    
   114   58  119 1    
   115   58  120 1    
   116   58  121 1    
   117   59   60 am   BACKBONE|DICT|INTERRES
   118   59  122 1    
   119   60   61 2    
   120   60   62 1    
   121   62   63 1    
   122   62   64 1    
   123   62  123 1    
   124   63  124 1    
   125   63  125 1    
   126   63  126 1    
   127   64   65 am   BACKBONE|DICT|INTERRES
   128   64  127 1    
   129   65   66 2    
@<TRIPOS>SUBSTRUCTURE
     1 UNK         1 GROUP             0       ****    0 ROOT    
