@<TRIPOS>MOLECULE
3R134
127   129    1
SMALL
USER_CHARGES


@<TRIPOS>ATOM
      1 CA         38.5438  -43.6517  -48.7582 C.3       0 UNK        -0.1968 
      2 C          37.7103  -43.9922  -49.9851 C.2       0 UNK         0.4852 
      3 O          38.2451  -44.0345  -51.0945 O.2       0 UNK        -0.5359 
      4 N          36.4049  -44.2267  -49.7964 N.am      1 UNK        -0.4300 
      5 CA         35.4679  -44.6337  -50.8461 C.3       1 UNK         0.0863 
      6 C6         34.0022  -44.4004  -50.3935 C.3       11 UNK        -0.0953 
      7 S7         32.7652  -44.6682  -51.7084 S.3       11 UNK        -0.2369 
      8 C8         32.8274  -43.0722  -52.5764 C.3       11 UNK         0.0226 
      9 C9         32.0424  -43.1387  -53.8757 C.ar      11 UNK        -0.0699 
     10 C10        32.5882  -43.7875  -54.9878 C.ar      11 UNK        -0.0804 
     11 C11        31.8626  -43.8834  -56.1779 C.ar      11 UNK        -0.0871 
     12 C12        30.5972  -43.2958  -56.2627 C.ar      11 UNK        -0.1008 
     13 C13        30.0388  -42.6515  -55.1558 C.ar      11 UNK        -0.0735 
     14 C14        30.7669  -42.5725  -53.9646 C.ar      11 UNK        -0.0945 
     15 C15        28.6484  -42.0424  -55.2475 C.3       11 UNK         0.0169 
     16 S16        27.3781  -43.0966  -54.4748 S.3       11 UNK        -0.2669 
     17 C17        27.2908  -44.5354  -55.5974 C.3       11 UNK        -0.0850 
     18 CA         26.2582  -44.3374  -56.7422 C.3       10 UNK         0.0855 
     19 C          26.9104  -43.7705  -58.0286 C.2       10 UNK         0.5543 
     20 N          26.5332  -42.5702  -58.4465 N.am      10 UNK        -0.7343 
     21 O          27.7819  -44.3969  -58.6268 O.2       10 UNK        -0.5027 
     22 N          25.5426  -45.5831  -57.0420 N.am      10 UNK        -0.4495 
     23 C          24.2758  -45.6330  -57.4767 C.2       10 UNK         0.4903 
     24 O          23.5756  -44.6337  -57.6510 O.2       10 UNK        -0.4860 
     25 CA         23.6790  -47.0320  -57.7236 C.3       9 UNK         0.0227 
     26 CB         22.3401  -46.9976  -58.4924 C.3       9 UNK        -0.1964 
     27 N          24.6234  -47.9629  -58.3470 N.am      9 UNK        -0.4231 
     28 C          25.1826  -47.8758  -59.5656 C.2       9 UNK         0.5014 
     29 O          24.9373  -46.9743  -60.3683 O.2       9 UNK        -0.5270 
     30 CA         26.1889  -48.9751  -59.9654 C.3       8 UNK         0.0284 
     31 CB         27.5011  -48.3629  -60.4897 C.3       8 UNK        -0.1977 
     32 N          26.4987  -49.8698  -58.8477 N.am      8 UNK        -0.4342 
     33 C          25.8881  -51.0346  -58.5890 C.2       8 UNK         0.5039 
     34 O          25.0482  -51.5455  -59.3300 O.2       8 UNK        -0.5547 
     35 CA         26.2475  -51.7360  -57.2646 C.3       7 UNK         0.0281 
     36 CB         27.2539  -52.8708  -57.5128 C.3       7 UNK        -0.1963 
     37 N          26.7806  -50.8171  -56.2510 N.am      7 UNK        -0.4444 
     38 C          26.0467  -49.8884  -55.6156 C.2       7 UNK         0.5104 
     39 O          24.8370  -49.7470  -55.7903 O.2       7 UNK        -0.5100 
     40 CA         26.7866  -48.8989  -54.6932 C.3       6 UNK         0.0396 
     41 CB         26.8011  -49.4196  -53.2489 C.3       6 UNK        -0.1801 
     42 N          28.1583  -48.6151  -55.1256 N.am      6 UNK        -0.4747 
     43 C          28.4888  -48.0948  -56.3191 C.2       6 UNK         0.5012 
     44 O          27.6477  -47.6828  -57.1176 O.2       6 UNK        -0.5003 
     45 CA         29.9814  -48.0720  -56.7205 C.3       5 UNK         0.0782 
     46 C46        30.5180  -46.6262  -56.6442 C.3       11 UNK        -0.0868 
     47 S47        32.2826  -46.4681  -57.0854 S.3       11 UNK        -0.2515 
     48 C48        32.4189  -44.6695  -57.3564 C.3       11 UNK         0.0199 
     49 N          30.8071  -49.0054  -55.9461 N.am      5 UNK        -0.4607 
     50 C          30.6462  -50.3335  -55.8726 C.2       4 UNK         0.5031 
     51 O          29.7894  -50.9505  -56.5050 O.2       4 UNK        -0.5119 
     52 CA         31.5459  -51.0937  -54.8820 C.3       4 UNK         0.0263 
     53 CB         32.7250  -51.7417  -55.6242 C.3       4 UNK        -0.1967 
     54 N          32.0659  -50.2742  -53.7800 N.am      4 UNK        -0.4237 
     55 C          31.3477  -49.5736  -52.8917 C.2       3 UNK         0.4908 
     56 O          30.1173  -49.5236  -52.9040 O.2       3 UNK        -0.5102 
     57 CA         32.1172  -48.7567  -51.8354 C.3       3 UNK         0.0241 
     58 CB         32.3807  -49.6000  -50.5735 C.3       3 UNK        -0.1971 
     59 N          33.3510  -48.1083  -52.3119 N.am      3 UNK        -0.4139 
     60 C          34.4952  -48.6654  -52.7413 C.2       2 UNK         0.5016 
     61 O          34.6706  -49.8796  -52.8475 O.2       2 UNK        -0.5319 
     62 CA         35.6292  -47.7126  -53.1615 C.3       2 UNK         0.0286 
     63 CB         35.6603  -47.5741  -54.6929 C.3       2 UNK        -0.1963 
     64 N          35.5293  -46.3770  -52.5658 N.am      2 UNK        -0.4790 
     65 C          35.7250  -46.0964  -51.2697 C.2       1 UNK         0.5024 
     66 O          36.0539  -46.9356  -50.4277 O.2       1 UNK        -0.4888 
     67 H67        37.9435  -43.6340  -47.8488 H         1 UNK         0.0892 
     68 H68        39.0056  -42.6721  -48.8781 H         1 UNK         0.0892 
     69 H69        39.3359  -44.3885  -48.6270 H         1 UNK         0.0892 
     70 H70        36.0309  -44.2093  -48.8583 H         1 UNK         0.3107 
     71 H71        35.6610  -43.9942  -51.7100 H         1 UNK         0.0773 
     72 H72        33.8833  -43.3817  -50.0204 H         1 UNK         0.0680 
     73 H73        33.7530  -45.0554  -49.5563 H         1 UNK         0.0680 
     74 H74        32.4345  -42.2904  -51.9244 H         1 UNK         0.0650 
     75 H75        33.8625  -42.8059  -52.7934 H         1 UNK         0.0650 
     76 H76        33.5641  -44.2475  -54.9176 H         1 UNK         0.1397 
     77 H77        30.0313  -43.3694  -57.1818 H         1 UNK         0.1363 
     78 H78        30.3336  -42.0802  -53.1046 H         1 UNK         0.1355 
     79 H79        28.3807  -41.8416  -56.2853 H         1 UNK         0.0707 
     80 H80        28.6479  -41.0735  -54.7459 H         1 UNK         0.0707 
     81 H81        26.9964  -45.3805  -54.9730 H         1 UNK         0.1034 
     82 H82        28.2804  -44.7966  -55.9705 H         1 UNK         0.1034 
     83 H83        25.5164  -43.6170  -56.3899 H         1 UNK         0.0482 
     84 H84        25.8138  -42.0548  -57.9636 H         1 UNK         0.3460 
     85 H85        26.9553  -42.1848  -59.2765 H         1 UNK         0.3460 
     86 H86        26.1013  -46.4307  -57.0286 H         1 UNK         0.2989 
     87 H87        23.4706  -47.4417  -56.7342 H         1 UNK         0.0559 
     88 H88        21.9365  -48.0003  -58.6323 H         1 UNK         0.0848 
     89 H89        22.4470  -46.5381  -59.4754 H         1 UNK         0.0848 
     90 H90        21.5911  -46.4224  -57.9468 H         1 UNK         0.0848 
     91 H91        24.8903  -48.7454  -57.7628 H         1 UNK         0.3144 
     92 H92        25.7357  -49.5463  -60.7781 H         1 UNK         0.0727 
     93 H93        28.2236  -49.1354  -60.7534 H         1 UNK         0.0790 
     94 H94        27.9648  -47.7038  -59.7550 H         1 UNK         0.0790 
     95 H95        27.3232  -47.7691  -61.3872 H         1 UNK         0.0790 
     96 H96        27.1442  -49.4995  -58.1613 H         1 UNK         0.3215 
     97 H97        25.3299  -52.1776  -56.8693 H         1 UNK         0.0863 
     98 H98        27.5080  -53.3885  -56.5878 H         1 UNK         0.0808 
     99 H99        28.1790  -52.5016  -57.9569 H         1 UNK         0.0808 
    100 H100       26.8408  -53.6133  -58.1969 H         1 UNK         0.0808 
    101 H101       27.7837  -50.8494  -56.0936 H         1 UNK         0.3118 
    102 H102       26.2342  -47.9571  -54.7106 H         1 UNK         0.0546 
    103 H103       25.7885  -49.6107  -52.8911 H         1 UNK         0.0828 
    104 H104       27.2530  -48.6954  -52.5709 H         1 UNK         0.0828 
    105 H105       27.3610  -50.3517  -53.1619 H         1 UNK         0.0828 
    106 H106       28.9000  -48.9215  -54.5031 H         1 UNK         0.3005 
    107 H107       30.0267  -48.3969  -57.7623 H         1 UNK         0.1257 
    108 H108       30.3864  -46.2259  -55.6365 H         1 UNK         0.0775 
    109 H109       29.9437  -45.9834  -57.3149 H         1 UNK         0.0775 
    110 H110       33.4665  -44.4086  -57.5133 H         1 UNK         0.0840 
    111 H111       31.8960  -44.4060  -58.2773 H         1 UNK         0.0840 
    112 H112       31.5466  -48.5864  -55.4024 H         1 UNK         0.2987 
    113 H113       30.9385  -51.8854  -54.4392 H         1 UNK         0.0785 
    114 H114       33.3866  -50.9922  -56.0608 H         1 UNK         0.0798 
    115 H115       32.3734  -52.3808  -56.4356 H         1 UNK         0.0798 
    116 H116       33.3196  -52.3655  -54.9565 H         1 UNK         0.0798 
    117 H117       33.0754  -50.2709  -53.6445 H         1 UNK         0.3079 
    118 H118       31.4567  -47.9377  -51.5452 H         1 UNK         0.0794 
    119 H119       33.0281  -50.4530  -50.7793 H         1 UNK         0.0786 
    120 H120       31.4479  -49.9927  -50.1663 H         1 UNK         0.0786 
    121 H121       32.8506  -49.0040  -49.7909 H         1 UNK         0.0786 
    122 H122       33.3229  -47.0970  -52.3021 H         1 UNK         0.3032 
    123 H123       36.5687  -48.1640  -52.8340 H         1 UNK         0.1094 
    124 H124       34.7484  -47.1151  -55.0776 H         1 UNK         0.0794 
    125 H125       36.5057  -46.9686  -55.0202 H         1 UNK         0.0794 
    126 H126       35.7598  -48.5494  -55.1719 H         1 UNK         0.0794 
    127 H127       35.2629  -45.6266  -53.1870 H         1 UNK         0.3016 
@<TRIPOS>BOND
     1    1    2 1    
     2    1   67 1    
     3    1   68 1    
     4    1   69 1    
     5    2    3 2    
     6    2    4 am   BACKBONE|DICT|INTERRES
     7    4    5 1    
     8    4   70 1    
     9    5    6 1    
    10    5   65 1    
    11    5   71 1    
    12    6    7 1    
    13    6   72 1    
    14    6   73 1    
    15    7    8 1    
    16    8    9 1    
    17    8   74 1    
    18    8   75 1    
    19    9   10 ar   
    20    9   14 ar   
    21   10   11 ar   
    22   10   76 1    
    23   11   12 ar   
    24   11   48 1    
    25   12   13 ar   
    26   12   77 1    
    27   13   14 ar   
    28   13   15 1    
    29   14   78 1    
    30   15   16 1    
    31   15   79 1    
    32   15   80 1    
    33   16   17 1    
    34   17   18 1    
    35   17   81 1    
    36   17   82 1    
    37   18   19 1    
    38   18   22 1    
    39   18   83 1    
    40   19   20 am   BACKBONE|DICT|INTERRES
    41   19   21 2    
    42   20   84 1    
    43   20   85 1    
    44   22   23 am   BACKBONE|DICT|INTERRES
    45   22   86 1    
    46   23   24 2    
    47   23   25 1    
    48   25   26 1    
    49   25   27 1    
    50   25   87 1    
    51   26   88 1    
    52   26   89 1    
    53   26   90 1    
    54   27   28 am   BACKBONE|DICT|INTERRES
    55   27   91 1    
    56   28   29 2    
    57   28   30 1    
    58   30   31 1    
    59   30   32 1    
    60   30   92 1    
    61   31   93 1    
    62   31   94 1    
    63   31   95 1    
    64   32   33 am   BACKBONE|DICT|INTERRES
    65   32   96 1    
    66   33   34 2    
    67   33   35 1    
    68   35   36 1    
    69   35   37 1    
    70   35   97 1    
    71   36   98 1    
    72   36   99 1    
    73   36  100 1    
    74   37   38 am   BACKBONE|DICT|INTERRES
    75   37  101 1    
    76   38   39 2    
    77   38   40 1    
    78   40   41 1    
    79   40   42 1    
    80   40  102 1    
    81   41  103 1    
    82   41  104 1    
    83   41  105 1    
    84   42   43 am   BACKBONE|DICT|INTERRES
    85   42  106 1    
    86   43   44 2    
    87   43   45 1    
    88   45   46 1    
    89   45   49 1    
    90   45  107 1    
    91   46   47 1    
    92   46  108 1    
    93   46  109 1    
    94   47   48 1    
    95   48  110 1    
    96   48  111 1    
    97   49   50 am   BACKBONE|DICT|INTERRES
    98   49  112 1    
    99   50   51 2    
   100   50   52 1    
   101   52   53 1    
   102   52   54 1    
   103   52  113 1    
   104   53  114 1    
   105   53  115 1    
   106   53  116 1    
   107   54   55 am   BACKBONE|DICT|INTERRES
   108   54  117 1    
   109   55   56 2    
   110   55   57 1    
   111   57   58 1    
   112   57   59 1    
   113   57  118 1    
   114   58  119 1    
   115   58  120 1    
   116   58  121 1    
   117   59   60 am   BACKBONE|DICT|INTERRES
   118   59  122 1    
   119   60   61 2    
   120   60   62 1    
   121   62   63 1    
   122   62   64 1    
   123   62  123 1    
   124   63  124 1    
   125   63  125 1    
   126   63  126 1    
   127   64   65 am   BACKBONE|DICT|INTERRES
   128   64  127 1    
   129   65   66 2    
@<TRIPOS>SUBSTRUCTURE
     1 UNK         1 GROUP             0       ****    0 ROOT    
