@<TRIPOS>MOLECULE
3R134
127   129    1
SMALL
USER_CHARGES


@<TRIPOS>ATOM
      1 CA         34.6951  -44.0950  -48.0185 C.3       0 UNK        -0.1968 
      2 C          34.7001  -44.4828  -49.4901 C.2       0 UNK         0.4852 
      3 O          35.7713  -44.6841  -50.0654 O.2       0 UNK        -0.5359 
      4 N          33.5135  -44.5789  -50.1031 N.am      1 UNK        -0.4300 
      5 CA         33.3192  -44.9827  -51.5003 C.3       1 UNK         0.0863 
      6 C6         31.9188  -44.5818  -52.0334 C.3       11 UNK        -0.0953 
      7 S7         31.4945  -42.8260  -51.7481 S.3       11 UNK        -0.2369 
      8 C8         32.4750  -41.9547  -53.0129 C.3       11 UNK         0.0226 
      9 C9         31.9227  -42.1628  -54.4147 C.ar      11 UNK        -0.0699 
     10 C10        32.4810  -43.1321  -55.2515 C.ar      11 UNK        -0.0804 
     11 C11        31.9573  -43.3559  -56.5286 C.ar      11 UNK        -0.0871 
     12 C12        30.9016  -42.5608  -56.9848 C.ar      11 UNK        -0.1008 
     13 C13        30.3492  -41.5717  -56.1677 C.ar      11 UNK        -0.0735 
     14 C14        30.8590  -41.3824  -54.8790 C.ar      11 UNK        -0.0945 
     15 C15        29.2199  -40.6917  -56.6841 C.3       11 UNK         0.0169 
     16 S16        27.5789  -41.3287  -56.2186 S.3       11 UNK        -0.2669 
     17 C17        27.2687  -42.6279  -57.4697 C.3       11 UNK        -0.0850 
     18 CA         27.2794  -44.0683  -56.8880 C.3       10 UNK         0.0855 
     19 C          26.1171  -44.3246  -55.8937 C.2       10 UNK         0.5543 
     20 N          26.3589  -44.1885  -54.5970 N.am      10 UNK        -0.7343 
     21 O          24.9899  -44.6144  -56.2916 O.2       10 UNK        -0.5027 
     22 N          27.2361  -45.0861  -57.9436 N.am      10 UNK        -0.4495 
     23 C          28.2635  -45.4695  -58.7032 C.2       10 UNK         0.4903 
     24 O          29.3572  -44.9096  -58.6834 O.2       10 UNK        -0.4860 
     25 CA         28.0582  -46.6946  -59.6195 C.3       9 UNK         0.0227 
     26 CB         29.3715  -47.1749  -60.2691 C.3       9 UNK        -0.1964 
     27 N          27.4203  -47.8387  -58.9534 N.am      9 UNK        -0.4231 
     28 C          26.1001  -47.9553  -58.7571 C.2       9 UNK         0.5014 
     29 O          25.3033  -47.0371  -58.9558 O.2       9 UNK        -0.5270 
     30 CA         25.5576  -49.3224  -58.3279 C.3       8 UNK         0.0284 
     31 CB         25.5428  -50.2921  -59.5271 C.3       8 UNK        -0.1977 
     32 N          26.2735  -49.9174  -57.1961 N.am      8 UNK        -0.4342 
     33 C          25.7230  -50.8428  -56.3958 C.2       8 UNK         0.5039 
     34 O          24.5583  -51.2325  -56.5009 O.2       8 UNK        -0.5547 
     35 CA         26.6066  -51.4693  -55.3067 C.3       7 UNK         0.0281 
     36 CB         27.4491  -52.6102  -55.8995 C.3       7 UNK        -0.1963 
     37 N          27.4740  -50.5070  -54.6283 N.am      7 UNK        -0.4444 
     38 C          27.0426  -49.5430  -53.8027 C.2       7 UNK         0.5104 
     39 O          25.8599  -49.3718  -53.5049 O.2       7 UNK        -0.5100 
     40 CA         28.1101  -48.6042  -53.2109 C.3       6 UNK         0.0396 
     41 CB         28.7467  -49.2231  -51.9568 C.3       6 UNK        -0.1801 
     42 N          29.1638  -48.2531  -54.1642 N.am      6 UNK        -0.4747 
     43 C          28.9675  -47.5894  -55.3127 C.2       6 UNK         0.5012 
     44 O          27.8723  -47.1826  -55.6931 O.2       6 UNK        -0.5003 
     45 CA         30.2036  -47.4034  -56.2076 C.3       5 UNK         0.0782 
     46 C46        31.1092  -46.2797  -55.6548 C.3       11 UNK        -0.0868 
     47 S47        32.6851  -46.0752  -56.5593 S.3       11 UNK        -0.2515 
     48 C48        32.5051  -44.4700  -57.4148 C.3       11 UNK         0.0199 
     49 N          30.8936  -48.6789  -56.3864 N.am      5 UNK        -0.4607 
     50 C          30.3974  -49.7199  -57.0672 C.2       4 UNK         0.5031 
     51 O          29.3194  -49.6972  -57.6677 O.2       4 UNK        -0.5119 
     52 CA         31.2370  -51.0087  -57.0465 C.3       4 UNK         0.0263 
     53 CB         32.2505  -51.0031  -58.2013 C.3       4 UNK        -0.1967 
     54 N          31.9418  -51.2111  -55.7741 N.am      4 UNK        -0.4237 
     55 C          31.3285  -51.4504  -54.6053 C.2       3 UNK         0.4908 
     56 O          30.1105  -51.5601  -54.4852 O.2       3 UNK        -0.5102 
     57 CA         32.2106  -51.5351  -53.3488 C.3       3 UNK         0.0241 
     58 CB         32.8349  -52.9336  -53.2183 C.3       3 UNK        -0.1971 
     59 N          33.2622  -50.5143  -53.2869 N.am      3 UNK        -0.4139 
     60 C          33.0516  -49.1905  -53.3097 C.2       2 UNK         0.5016 
     61 O          31.9385  -48.6775  -53.4466 O.2       2 UNK        -0.5319 
     62 CA         34.3069  -48.3054  -53.2043 C.3       2 UNK         0.0286 
     63 CB         35.1042  -48.3380  -54.5195 C.3       2 UNK        -0.1963 
     64 N          33.9976  -46.9106  -52.8690 N.am      2 UNK        -0.4790 
     65 C          33.5661  -46.4992  -51.6684 C.2       1 UNK         0.5024 
     66 O          33.3679  -47.2629  -50.7187 O.2       1 UNK        -0.4888 
     67 H67        35.2659  -43.1787  -47.8698 H         1 UNK         0.0892 
     68 H68        33.6851  -43.9294  -47.6436 H         1 UNK         0.0892 
     69 H69        35.1532  -44.8833  -47.4217 H         1 UNK         0.0892 
     70 H70        32.6662  -44.4150  -49.5790 H         1 UNK         0.3107 
     71 H71        34.0693  -44.4615  -52.0986 H         1 UNK         0.0773 
     72 H72        31.1452  -45.1841  -51.5530 H         1 UNK         0.0680 
     73 H73        31.8381  -44.7910  -53.0991 H         1 UNK         0.0680 
     74 H74        33.5168  -42.2722  -52.9554 H         1 UNK         0.0650 
     75 H75        32.4729  -40.8891  -52.7791 H         1 UNK         0.0650 
     76 H76        33.3041  -43.7369  -54.8977 H         1 UNK         0.1397 
     77 H77        30.5015  -42.7164  -57.9769 H         1 UNK         0.1363 
     78 H78        30.4285  -40.6258  -54.2370 H         1 UNK         0.1355 
     79 H79        29.2831  -40.5768  -57.7673 H         1 UNK         0.0707 
     80 H80        29.3292  -39.6874  -56.2719 H         1 UNK         0.0707 
     81 H81        26.3107  -42.4233  -57.9510 H         1 UNK         0.1034 
     82 H82        28.0154  -42.5399  -58.2593 H         1 UNK         0.1034 
     83 H83        28.2167  -44.2108  -56.3450 H         1 UNK         0.0482 
     84 H84        25.6113  -44.3415  -53.9394 H         1 UNK         0.3460 
     85 H85        27.2722  -43.9188  -54.2680 H         1 UNK         0.3460 
     86 H86        26.3651  -45.6065  -58.0076 H         1 UNK         0.2989 
     87 H87        27.4060  -46.3626  -60.4301 H         1 UNK         0.0559 
     88 H88        29.8452  -46.3733  -60.8374 H         1 UNK         0.0848 
     89 H89        29.1932  -47.9956  -60.9639 H         1 UNK         0.0848 
     90 H90        30.0931  -47.5173  -59.5270 H         1 UNK         0.0848 
     91 H91        28.0298  -48.6138  -58.7087 H         1 UNK         0.3144 
     92 H92        24.5226  -49.1499  -58.0229 H         1 UNK         0.0727 
     93 H93        25.0026  -51.2095  -59.2932 H         1 UNK         0.0790 
     94 H94        26.5524  -50.5684  -59.8335 H         1 UNK         0.0790 
     95 H95        25.0496  -49.8423  -60.3901 H         1 UNK         0.0790 
     96 H96        27.2357  -49.6351  -57.0445 H         1 UNK         0.3215 
     97 H97        25.9420  -51.9009  -54.5549 H         1 UNK         0.0863 
     98 H98        27.9954  -53.1450  -55.1225 H         1 UNK         0.0808 
     99 H99        28.1729  -52.2408  -56.6264 H         1 UNK         0.0808 
    100 H100       26.8176  -53.3394  -56.4088 H         1 UNK         0.0808 
    101 H101       28.4769  -50.6428  -54.7340 H         1 UNK         0.3118 
    102 H102       27.6115  -47.6779  -52.9184 H         1 UNK         0.0546 
    103 H103       29.2768  -50.1474  -52.1883 H         1 UNK         0.0828 
    104 H104       27.9880  -49.4592  -51.2096 H         1 UNK         0.0828 
    105 H105       29.4579  -48.5386  -51.4939 H         1 UNK         0.0828 
    106 H106       30.1139  -48.5336  -53.9257 H         1 UNK         0.3005 
    107 H107       29.8566  -47.0926  -57.1897 H         1 UNK         0.1257 
    108 H108       31.3675  -46.4735  -54.6143 H         1 UNK         0.0775 
    109 H109       30.5511  -45.3432  -55.6484 H         1 UNK         0.0775 
    110 H110       33.4805  -44.1665  -57.7965 H         1 UNK         0.0840 
    111 H111       31.8718  -44.6176  -58.2894 H         1 UNK         0.0840 
    112 H112       31.7626  -48.7852  -55.8844 H         1 UNK         0.2987 
    113 H113       30.5555  -51.8491  -57.1932 H         1 UNK         0.0785 
    114 H114       31.7464  -50.8741  -59.1604 H         1 UNK         0.0798 
    115 H115       32.8013  -51.9425  -58.2510 H         1 UNK         0.0798 
    116 H116       32.9739  -50.1927  -58.1024 H         1 UNK         0.0798 
    117 H117       32.9485  -51.1376  -55.7865 H         1 UNK         0.3079 
    118 H118       31.5584  -51.3754  -52.4875 H         1 UNK         0.0794 
    119 H119       33.3672  -53.0441  -52.2733 H         1 UNK         0.0786 
    120 H120       33.5371  -53.1426  -54.0263 H         1 UNK         0.0786 
    121 H121       32.0663  -53.7076  -53.2459 H         1 UNK         0.0786 
    122 H122       34.2085  -50.8520  -53.1832 H         1 UNK         0.3032 
    123 H123       34.9348  -48.7090  -52.4064 H         1 UNK         0.1094 
    124 H124       34.5073  -47.9980  -55.3651 H         1 UNK         0.0794 
    125 H125       35.9924  -47.7084  -54.4619 H         1 UNK         0.0794 
    126 H126       35.4453  -49.3477  -54.7512 H         1 UNK         0.0794 
    127 H127       34.0960  -46.2384  -53.6156 H         1 UNK         0.3016 
@<TRIPOS>BOND
     1    1    2 1    
     2    1   67 1    
     3    1   68 1    
     4    1   69 1    
     5    2    3 2    
     6    2    4 am   BACKBONE|DICT|INTERRES
     7    4    5 1    
     8    4   70 1    
     9    5    6 1    
    10    5   65 1    
    11    5   71 1    
    12    6    7 1    
    13    6   72 1    
    14    6   73 1    
    15    7    8 1    
    16    8    9 1    
    17    8   74 1    
    18    8   75 1    
    19    9   10 ar   
    20    9   14 ar   
    21   10   11 ar   
    22   10   76 1    
    23   11   12 ar   
    24   11   48 1    
    25   12   13 ar   
    26   12   77 1    
    27   13   14 ar   
    28   13   15 1    
    29   14   78 1    
    30   15   16 1    
    31   15   79 1    
    32   15   80 1    
    33   16   17 1    
    34   17   18 1    
    35   17   81 1    
    36   17   82 1    
    37   18   19 1    
    38   18   22 1    
    39   18   83 1    
    40   19   20 am   BACKBONE|DICT|INTERRES
    41   19   21 2    
    42   20   84 1    
    43   20   85 1    
    44   22   23 am   BACKBONE|DICT|INTERRES
    45   22   86 1    
    46   23   24 2    
    47   23   25 1    
    48   25   26 1    
    49   25   27 1    
    50   25   87 1    
    51   26   88 1    
    52   26   89 1    
    53   26   90 1    
    54   27   28 am   BACKBONE|DICT|INTERRES
    55   27   91 1    
    56   28   29 2    
    57   28   30 1    
    58   30   31 1    
    59   30   32 1    
    60   30   92 1    
    61   31   93 1    
    62   31   94 1    
    63   31   95 1    
    64   32   33 am   BACKBONE|DICT|INTERRES
    65   32   96 1    
    66   33   34 2    
    67   33   35 1    
    68   35   36 1    
    69   35   37 1    
    70   35   97 1    
    71   36   98 1    
    72   36   99 1    
    73   36  100 1    
    74   37   38 am   BACKBONE|DICT|INTERRES
    75   37  101 1    
    76   38   39 2    
    77   38   40 1    
    78   40   41 1    
    79   40   42 1    
    80   40  102 1    
    81   41  103 1    
    82   41  104 1    
    83   41  105 1    
    84   42   43 am   BACKBONE|DICT|INTERRES
    85   42  106 1    
    86   43   44 2    
    87   43   45 1    
    88   45   46 1    
    89   45   49 1    
    90   45  107 1    
    91   46   47 1    
    92   46  108 1    
    93   46  109 1    
    94   47   48 1    
    95   48  110 1    
    96   48  111 1    
    97   49   50 am   BACKBONE|DICT|INTERRES
    98   49  112 1    
    99   50   51 2    
   100   50   52 1    
   101   52   53 1    
   102   52   54 1    
   103   52  113 1    
   104   53  114 1    
   105   53  115 1    
   106   53  116 1    
   107   54   55 am   BACKBONE|DICT|INTERRES
   108   54  117 1    
   109   55   56 2    
   110   55   57 1    
   111   57   58 1    
   112   57   59 1    
   113   57  118 1    
   114   58  119 1    
   115   58  120 1    
   116   58  121 1    
   117   59   60 am   BACKBONE|DICT|INTERRES
   118   59  122 1    
   119   60   61 2    
   120   60   62 1    
   121   62   63 1    
   122   62   64 1    
   123   62  123 1    
   124   63  124 1    
   125   63  125 1    
   126   63  126 1    
   127   64   65 am   BACKBONE|DICT|INTERRES
   128   64  127 1    
   129   65   66 2    
@<TRIPOS>SUBSTRUCTURE
     1 UNK         1 GROUP             0       ****    0 ROOT    
