@<TRIPOS>MOLECULE
3R134
127   129    1
SMALL
USER_CHARGES


@<TRIPOS>ATOM
      1 CA         29.0637  -45.9411  -49.1909 C.3       0 UNK        -0.1968 
      2 C          30.5837  -45.9552  -49.2659 C.2       0 UNK         0.4852 
      3 O          31.2469  -46.0263  -48.2297 O.2       0 UNK        -0.5359 
      4 N          31.1363  -45.8790  -50.4830 N.am      1 UNK        -0.4300 
      5 CA         32.5759  -45.9374  -50.7600 C.3       1 UNK         0.0863 
      6 C6         32.9135  -45.4788  -52.2020 C.3       11 UNK        -0.0953 
      7 S7         32.2959  -43.8026  -52.5813 S.3       11 UNK        -0.2369 
      8 C8         30.8796  -44.1686  -53.6731 C.3       11 UNK         0.0226 
      9 C9         31.2286  -44.1437  -55.1593 C.ar      11 UNK        -0.0699 
     10 C10        32.3261  -44.8512  -55.6629 C.ar      11 UNK        -0.0804 
     11 C11        32.6260  -44.8297  -57.0279 C.ar      11 UNK        -0.0871 
     12 C12        31.8057  -44.1089  -57.9000 C.ar      11 UNK        -0.1008 
     13 C13        30.7082  -43.3917  -57.4142 C.ar      11 UNK        -0.0735 
     14 C14        30.4288  -43.4121  -56.0438 C.ar      11 UNK        -0.0945 
     15 C15        29.8577  -42.5626  -58.3685 C.3       11 UNK         0.0169 
     16 S16        28.1702  -43.2228  -58.5473 S.3       11 UNK        -0.2669 
     17 C17        27.2235  -42.0248  -57.5402 C.3       11 UNK        -0.0850 
     18 CA         25.7272  -42.3923  -57.3676 C.3       10 UNK         0.0855 
     19 C          24.9061  -42.1644  -58.6730 C.2       10 UNK         0.5543 
     20 N          24.2638  -43.1721  -59.2527 N.am      10 UNK        -0.7343 
     21 O          24.8388  -41.0388  -59.1612 O.2       10 UNK        -0.5027 
     22 N          25.5750  -43.7192  -56.7567 N.am      10 UNK        -0.4495 
     23 C          24.4868  -44.1525  -56.1099 C.2       10 UNK         0.4903 
     24 O          23.5224  -43.4348  -55.8396 O.2       10 UNK        -0.4860 
     25 CA         24.4782  -45.6417  -55.7054 C.3       9 UNK         0.0227 
     26 CB         23.0506  -46.1936  -55.5094 C.3       9 UNK        -0.1964 
     27 N          25.2406  -46.5103  -56.6146 N.am      9 UNK        -0.4231 
     28 C          25.0531  -46.6687  -57.9376 C.2       9 UNK         0.5014 
     29 O          24.2117  -46.0457  -58.5867 O.2       9 UNK        -0.5270 
     30 CA         25.9668  -47.6635  -58.6803 C.3       8 UNK         0.0284 
     31 CB         27.0138  -46.9040  -59.5113 C.3       8 UNK        -0.1977 
     32 N          26.6471  -48.6064  -57.7889 N.am      8 UNK        -0.4342 
     33 C          26.0329  -49.6019  -57.1294 C.2       8 UNK         0.5039 
     34 O          24.8521  -49.9039  -57.3064 O.2       8 UNK        -0.5547 
     35 CA         26.8456  -50.3767  -56.0728 C.3       7 UNK         0.0281 
     36 CB         27.2191  -51.7705  -56.6016 C.3       7 UNK        -0.1963 
     37 N          28.0586  -49.6880  -55.6183 N.am      7 UNK        -0.4444 
     38 C          28.0866  -48.5021  -54.9875 C.2       7 UNK         0.5104 
     39 O          27.0746  -47.8699  -54.6836 O.2       7 UNK        -0.5100 
     40 CA         29.4678  -47.8819  -54.7011 C.3       6 UNK         0.0396 
     41 CB         29.8816  -48.1817  -53.2531 C.3       6 UNK        -0.1801 
     42 N          30.5237  -48.3318  -55.6157 N.am      6 UNK        -0.4747 
     43 C          30.4933  -48.1948  -56.9534 C.2       6 UNK         0.5012 
     44 O          29.5909  -47.6056  -57.5492 O.2       6 UNK        -0.5003 
     45 CA         31.5831  -48.9114  -57.7822 C.3       5 UNK         0.0782 
     46 C46        32.5980  -47.9206  -58.4048 C.3       11 UNK        -0.0868 
     47 S47        33.8574  -47.3252  -57.2244 S.3       11 UNK        -0.2515 
     48 C48        33.8699  -45.5358  -57.5505 C.3       11 UNK         0.0199 
     49 N          32.2514  -50.0052  -57.0670 N.am      5 UNK        -0.4607 
     50 C          31.6598  -51.1072  -56.5893 C.2       4 UNK         0.5031 
     51 O          30.4646  -51.3572  -56.7429 O.2       4 UNK        -0.5119 
     52 CA         32.5323  -52.0704  -55.7642 C.3       4 UNK         0.0263 
     53 CB         33.0151  -53.2358  -56.6423 C.3       4 UNK        -0.1967 
     54 N          33.6897  -51.4431  -55.1102 N.am      4 UNK        -0.4237 
     55 C          33.6238  -50.4702  -54.1903 C.2       3 UNK         0.4908 
     56 O          32.5752  -49.9256  -53.8375 O.2       3 UNK        -0.5102 
     57 CA         34.9547  -50.0088  -53.5883 C.3       3 UNK         0.0241 
     58 CB         35.6103  -48.9264  -54.4652 C.3       3 UNK        -0.1971 
     59 N          34.7039  -49.4835  -52.2501 N.am      3 UNK        -0.4139 
     60 C          35.6121  -49.3326  -51.2803 C.2       2 UNK         0.5016 
     61 O          36.8019  -49.6271  -51.4141 O.2       2 UNK        -0.5319 
     62 CA         35.1105  -48.7336  -49.9488 C.3       2 UNK         0.0286 
     63 CB         36.2470  -48.5061  -48.9335 C.3       2 UNK        -0.1963 
     64 N          34.3988  -47.4665  -50.1516 N.am      2 UNK        -0.4790 
     65 C          33.1172  -47.3618  -50.5237 C.2       1 UNK         0.5024 
     66 O          32.3956  -48.3396  -50.7350 O.2       1 UNK        -0.4888 
     67 H67        28.7253  -45.0958  -48.5922 H         1 UNK         0.0892 
     68 H68        28.6062  -45.8625  -50.1770 H         1 UNK         0.0892 
     69 H69        28.7035  -46.8567  -48.7227 H         1 UNK         0.0892 
     70 H70        30.5398  -45.8302  -51.2935 H         1 UNK         0.3107 
     71 H71        33.0749  -45.2637  -50.0597 H         1 UNK         0.0773 
     72 H72        32.5261  -46.1893  -52.9324 H         1 UNK         0.0680 
     73 H73        33.9952  -45.4646  -52.3488 H         1 UNK         0.0680 
     74 H74        30.1056  -43.4301  -53.4589 H         1 UNK         0.0650 
     75 H75        30.4477  -45.1362  -53.4200 H         1 UNK         0.0650 
     76 H76        32.9644  -45.4121  -54.9972 H         1 UNK         0.1397 
     77 H77        32.0366  -44.0845  -58.9563 H         1 UNK         0.1363 
     78 H78        29.5845  -42.8556  -55.6644 H         1 UNK         0.1355 
     79 H79        30.3159  -42.5337  -59.3583 H         1 UNK         0.0707 
     80 H80        29.8284  -41.5281  -58.0236 H         1 UNK         0.0707 
     81 H81        27.6851  -41.9527  -56.5556 H         1 UNK         0.1034 
     82 H82        27.3259  -41.0314  -57.9819 H         1 UNK         0.1034 
     83 H83        25.3178  -41.6739  -56.6546 H         1 UNK         0.0482 
     84 H84        23.7349  -42.9973  -60.0918 H         1 UNK         0.3460 
     85 H85        24.3020  -44.1123  -58.8716 H         1 UNK         0.3460 
     86 H86        26.3138  -44.3769  -56.9576 H         1 UNK         0.2989 
     87 H87        24.9876  -45.6951  -54.7422 H         1 UNK         0.0559 
     88 H88        22.4605  -46.1192  -56.4236 H         1 UNK         0.0848 
     89 H89        22.5185  -45.6429  -54.7328 H         1 UNK         0.0848 
     90 H90        23.0686  -47.2406  -55.2066 H         1 UNK         0.0848 
     91 H91        25.9634  -47.0629  -56.1627 H         1 UNK         0.3144 
     92 H92        25.3375  -48.2356  -59.3653 H         1 UNK         0.0727 
     93 H93        27.6621  -46.2927  -58.8824 H         1 UNK         0.0790 
     94 H94        26.5348  -46.2347  -60.2274 H         1 UNK         0.0790 
     95 H95        27.6457  -47.5876  -60.0786 H         1 UNK         0.0790 
     96 H96        27.6266  -48.4201  -57.5990 H         1 UNK         0.3215 
     97 H97        26.1986  -50.5037  -55.2022 H         1 UNK         0.0863 
     98 H98        27.7496  -52.3541  -55.8489 H         1 UNK         0.0808 
     99 H99        27.8539  -51.7080  -57.4864 H         1 UNK         0.0808 
    100 H100       26.3280  -52.3349  -56.8799 H         1 UNK         0.0808 
    101 H101       28.9407  -50.1312  -55.8533 H         1 UNK         0.3118 
    102 H102       29.3735  -46.8013  -54.8216 H         1 UNK         0.0546 
    103 H103       29.9578  -49.2545  -53.0705 H         1 UNK         0.0828 
    104 H104       29.1548  -47.7816  -52.5451 H         1 UNK         0.0828 
    105 H105       30.8477  -47.7425  -53.0142 H         1 UNK         0.0828 
    106 H106       31.2901  -48.8496  -55.1985 H         1 UNK         0.3005 
    107 H107       31.0438  -49.3759  -58.6112 H         1 UNK         0.1257 
    108 H108       32.0812  -47.0757  -58.8646 H         1 UNK         0.0775 
    109 H109       33.1279  -48.4142  -59.2208 H         1 UNK         0.0775 
    110 H110       34.7454  -45.1010  -57.0664 H         1 UNK         0.0840 
    111 H111       34.0006  -45.3680  -58.6207 H         1 UNK         0.0840 
    112 H112       33.2322  -49.8628  -56.8749 H         1 UNK         0.2987 
    113 H113       31.8955  -52.4782  -54.9762 H         1 UNK         0.0785 
    114 H114       33.6841  -52.8953  -57.4338 H         1 UNK         0.0798 
    115 H115       32.1734  -53.7385  -57.1213 H         1 UNK         0.0798 
    116 H116       33.5433  -53.9859  -56.0534 H         1 UNK         0.0798 
    117 H117       34.5965  -51.8171  -55.3526 H         1 UNK         0.3079 
    118 H118       35.6190  -50.8722  -53.5113 H         1 UNK         0.0794 
    119 H119       34.9977  -48.0251  -54.5094 H         1 UNK         0.0786 
    120 H120       35.7550  -49.2775  -55.4876 H         1 UNK         0.0786 
    121 H121       36.5904  -48.6426  -54.0819 H         1 UNK         0.0786 
    122 H122       33.7319  -49.2525  -52.0589 H         1 UNK         0.3032 
    123 H123       34.4233  -49.4638  -49.5142 H         1 UNK         0.1094 
    124 H124       35.8629  -48.1264  -47.9865 H         1 UNK         0.0794 
    125 H125       36.7703  -49.4384  -48.7163 H         1 UNK         0.0794 
    126 H126       36.9862  -47.7957  -49.3059 H         1 UNK         0.0794 
    127 H127       34.9453  -46.6239  -50.0393 H         1 UNK         0.3016 
@<TRIPOS>BOND
     1    1    2 1    
     2    1   67 1    
     3    1   68 1    
     4    1   69 1    
     5    2    3 2    
     6    2    4 am   BACKBONE|DICT|INTERRES
     7    4    5 1    
     8    4   70 1    
     9    5    6 1    
    10    5   65 1    
    11    5   71 1    
    12    6    7 1    
    13    6   72 1    
    14    6   73 1    
    15    7    8 1    
    16    8    9 1    
    17    8   74 1    
    18    8   75 1    
    19    9   10 ar   
    20    9   14 ar   
    21   10   11 ar   
    22   10   76 1    
    23   11   12 ar   
    24   11   48 1    
    25   12   13 ar   
    26   12   77 1    
    27   13   14 ar   
    28   13   15 1    
    29   14   78 1    
    30   15   16 1    
    31   15   79 1    
    32   15   80 1    
    33   16   17 1    
    34   17   18 1    
    35   17   81 1    
    36   17   82 1    
    37   18   19 1    
    38   18   22 1    
    39   18   83 1    
    40   19   20 am   BACKBONE|DICT|INTERRES
    41   19   21 2    
    42   20   84 1    
    43   20   85 1    
    44   22   23 am   BACKBONE|DICT|INTERRES
    45   22   86 1    
    46   23   24 2    
    47   23   25 1    
    48   25   26 1    
    49   25   27 1    
    50   25   87 1    
    51   26   88 1    
    52   26   89 1    
    53   26   90 1    
    54   27   28 am   BACKBONE|DICT|INTERRES
    55   27   91 1    
    56   28   29 2    
    57   28   30 1    
    58   30   31 1    
    59   30   32 1    
    60   30   92 1    
    61   31   93 1    
    62   31   94 1    
    63   31   95 1    
    64   32   33 am   BACKBONE|DICT|INTERRES
    65   32   96 1    
    66   33   34 2    
    67   33   35 1    
    68   35   36 1    
    69   35   37 1    
    70   35   97 1    
    71   36   98 1    
    72   36   99 1    
    73   36  100 1    
    74   37   38 am   BACKBONE|DICT|INTERRES
    75   37  101 1    
    76   38   39 2    
    77   38   40 1    
    78   40   41 1    
    79   40   42 1    
    80   40  102 1    
    81   41  103 1    
    82   41  104 1    
    83   41  105 1    
    84   42   43 am   BACKBONE|DICT|INTERRES
    85   42  106 1    
    86   43   44 2    
    87   43   45 1    
    88   45   46 1    
    89   45   49 1    
    90   45  107 1    
    91   46   47 1    
    92   46  108 1    
    93   46  109 1    
    94   47   48 1    
    95   48  110 1    
    96   48  111 1    
    97   49   50 am   BACKBONE|DICT|INTERRES
    98   49  112 1    
    99   50   51 2    
   100   50   52 1    
   101   52   53 1    
   102   52   54 1    
   103   52  113 1    
   104   53  114 1    
   105   53  115 1    
   106   53  116 1    
   107   54   55 am   BACKBONE|DICT|INTERRES
   108   54  117 1    
   109   55   56 2    
   110   55   57 1    
   111   57   58 1    
   112   57   59 1    
   113   57  118 1    
   114   58  119 1    
   115   58  120 1    
   116   58  121 1    
   117   59   60 am   BACKBONE|DICT|INTERRES
   118   59  122 1    
   119   60   61 2    
   120   60   62 1    
   121   62   63 1    
   122   62   64 1    
   123   62  123 1    
   124   63  124 1    
   125   63  125 1    
   126   63  126 1    
   127   64   65 am   BACKBONE|DICT|INTERRES
   128   64  127 1    
   129   65   66 2    
@<TRIPOS>SUBSTRUCTURE
     1 UNK         1 GROUP             0       ****    0 ROOT    
