@<TRIPOS>MOLECULE
3R134
127   129    1
SMALL
USER_CHARGES


@<TRIPOS>ATOM
      1 CA         35.9775  -42.8428  -48.7264 C.3       0 UNK        -0.1968 
      2 C          35.9639  -43.4740  -50.1110 C.2       0 UNK         0.4852 
      3 O          36.6131  -42.9604  -51.0237 O.2       0 UNK        -0.5359 
      4 N          35.2349  -44.5822  -50.2712 N.am      1 UNK        -0.4300 
      5 CA         35.0894  -45.3328  -51.5167 C.3       1 UNK         0.0863 
      6 C6         34.1274  -44.6651  -52.5367 C.3       11 UNK        -0.0953 
      7 S7         32.5141  -44.1542  -51.8436 S.3       11 UNK        -0.2369 
      8 C8         32.0487  -42.8126  -52.9831 C.3       11 UNK         0.0226 
      9 C9         31.3831  -43.3608  -54.2360 C.ar      11 UNK        -0.0699 
     10 C10        32.1560  -43.8664  -55.2859 C.ar      11 UNK        -0.0804 
     11 C11        31.5454  -44.4245  -56.4147 C.ar      11 UNK        -0.0871 
     12 C12        30.1501  -44.4197  -56.5057 C.ar      11 UNK        -0.1008 
     13 C13        29.3665  -43.8856  -55.4800 C.ar      11 UNK        -0.0735 
     14 C14        29.9891  -43.3681  -54.3411 C.ar      11 UNK        -0.0945 
     15 C15        27.8506  -43.8651  -55.6052 C.3       11 UNK         0.0169 
     16 S16        27.3265  -42.6477  -56.8540 S.3       11 UNK        -0.2669 
     17 C17        25.6009  -42.2913  -56.3653 C.3       11 UNK        -0.0850 
     18 CA         24.5158  -43.0093  -57.2106 C.3       10 UNK         0.0855 
     19 C          24.5015  -42.5539  -58.6980 C.2       10 UNK         0.5543 
     20 N          23.9798  -41.3656  -58.9721 N.am      10 UNK        -0.7343 
     21 O          24.9766  -43.2452  -59.5969 O.2       10 UNK        -0.5027 
     22 N          24.5853  -44.4659  -57.0414 N.am      10 UNK        -0.4495 
     23 C          23.5752  -45.3100  -57.2805 C.2       10 UNK         0.4903 
     24 O          22.4547  -44.9533  -57.6502 O.2       10 UNK        -0.4860 
     25 CA         23.8683  -46.7987  -57.0200 C.3       9 UNK         0.0227 
     26 CB         22.7244  -47.7342  -57.4681 C.3       9 UNK        -0.1964 
     27 N          25.1547  -47.2368  -57.5722 N.am      9 UNK        -0.4231 
     28 C          25.5140  -47.2891  -58.8668 C.2       9 UNK         0.5014 
     29 O          24.7988  -46.9160  -59.7974 O.2       9 UNK        -0.5270 
     30 CA         26.9031  -47.8790  -59.1942 C.3       8 UNK         0.0284 
     31 CB         27.9080  -46.7448  -59.4522 C.3       8 UNK        -0.1977 
     32 N          27.4318  -48.7654  -58.1510 N.am      8 UNK        -0.4342 
     33 C          26.8523  -49.9082  -57.7474 C.2       8 UNK         0.5039 
     34 O          25.9079  -50.4318  -58.3401 O.2       8 UNK        -0.5547 
     35 CA         27.3623  -50.5673  -56.4479 C.3       7 UNK         0.0281 
     36 CB         28.1509  -51.8464  -56.7746 C.3       7 UNK        -0.1963 
     37 N          28.1821  -49.7091  -55.5848 N.am      7 UNK        -0.4444 
     38 C          27.8566  -48.5020  -55.0985 C.2       7 UNK         0.5104 
     39 O          26.7560  -47.9712  -55.2549 O.2       7 UNK        -0.5100 
     40 CA         28.9774  -47.7152  -54.3940 C.3       6 UNK         0.0396 
     41 CB         28.9262  -47.9426  -52.8771 C.3       6 UNK        -0.1801 
     42 N          30.3282  -48.0116  -54.8891 N.am      6 UNK        -0.4747 
     43 C          30.7397  -47.9003  -56.1643 C.2       6 UNK         0.5012 
     44 O          30.0016  -47.6006  -57.1037 O.2       6 UNK        -0.5003 
     45 CA         32.2166  -48.2405  -56.4301 C.3       5 UNK         0.0782 
     46 C46        33.1708  -47.1731  -55.8255 C.3       11 UNK        -0.0868 
     47 S47        33.8300  -45.9834  -57.0410 S.3       11 UNK        -0.2515 
     48 C48        32.3632  -45.0216  -57.5579 C.3       11 UNK         0.0199 
     49 N          32.4885  -49.5781  -55.9039 N.am      5 UNK        -0.4607 
     50 C          32.1607  -50.7202  -56.5237 C.2       4 UNK         0.5031 
     51 O          31.7235  -50.7708  -57.6727 O.2       4 UNK        -0.5119 
     52 CA         32.3348  -52.0310  -55.7324 C.3       4 UNK         0.0263 
     53 CB         33.6538  -52.7186  -56.1201 C.3       4 UNK        -0.1967 
     54 N          32.2978  -51.8486  -54.2785 N.am      4 UNK        -0.4237 
     55 C          31.2225  -51.4549  -53.5799 C.2       3 UNK         0.4908 
     56 O          30.1147  -51.2655  -54.0786 O.2       3 UNK        -0.5102 
     57 CA         31.4374  -51.1613  -52.0839 C.3       3 UNK         0.0241 
     58 CB         31.2129  -52.4310  -51.2477 C.3       3 UNK        -0.1971 
     59 N          32.7606  -50.5999  -51.7853 N.am      3 UNK        -0.4139 
     60 C          33.2357  -49.4528  -52.2909 C.2       2 UNK         0.5016 
     61 O          32.5981  -48.7249  -53.0577 O.2       2 UNK        -0.5319 
     62 CA         34.7016  -49.1298  -51.9663 C.3       2 UNK         0.0286 
     63 CB         35.6306  -49.9034  -52.9182 C.3       2 UNK        -0.1963 
     64 N          34.9885  -47.7014  -52.0980 N.am      2 UNK        -0.4790 
     65 C          34.6884  -46.7777  -51.1773 C.2       1 UNK         0.5024 
     66 O          34.1499  -47.0322  -50.0955 O.2       1 UNK        -0.4888 
     67 H67        36.9950  -42.8116  -48.3377 H         1 UNK         0.0892 
     68 H68        35.3609  -43.3978  -48.0195 H         1 UNK         0.0892 
     69 H69        35.5995  -41.8220  -48.7764 H         1 UNK         0.0892 
     70 H70        34.7380  -44.9974  -49.4923 H         1 UNK         0.3107 
     71 H71        36.0784  -45.3930  -51.9769 H         1 UNK         0.0773 
     72 H72        34.6198  -43.7827  -52.9469 H         1 UNK         0.0680 
     73 H73        33.9499  -45.3229  -53.3883 H         1 UNK         0.0680 
     74 H74        31.3674  -42.1383  -52.4621 H         1 UNK         0.0650 
     75 H75        32.9215  -42.2134  -53.2459 H         1 UNK         0.0650 
     76 H76        33.2340  -43.8486  -55.2116 H         1 UNK         0.1397 
     77 H77        29.6669  -44.8307  -57.3811 H         1 UNK         0.1363 
     78 H78        29.3891  -42.9672  -53.5356 H         1 UNK         0.1355 
     79 H79        27.3979  -43.6299  -54.6409 H         1 UNK         0.0707 
     80 H80        27.4910  -44.8560  -55.8861 H         1 UNK         0.0707 
     81 H81        25.4587  -41.2108  -56.4243 H         1 UNK         0.1034 
     82 H82        25.4609  -42.5329  -55.3109 H         1 UNK         0.1034 
     83 H83        23.5538  -42.7019  -56.7945 H         1 UNK         0.0482 
     84 H84        23.5889  -40.7850  -58.2464 H         1 UNK         0.3460 
     85 H85        23.9698  -41.0450  -59.9279 H         1 UNK         0.3460 
     86 H86        25.4879  -44.8427  -56.7983 H         1 UNK         0.2989 
     87 H87        23.9616  -46.9007  -55.9378 H         1 UNK         0.0559 
     88 H88        22.5260  -47.6508  -58.5371 H         1 UNK         0.0848 
     89 H89        21.7968  -47.4939  -56.9472 H         1 UNK         0.0848 
     90 H90        22.9568  -48.7768  -57.2509 H         1 UNK         0.0848 
     91 H91        25.8258  -47.5598  -56.8782 H         1 UNK         0.3144 
     92 H92        26.8034  -48.4672  -60.1086 H         1 UNK         0.0727 
     93 H93        27.5661  -46.0951  -60.2592 H         1 UNK         0.0790 
     94 H94        28.8848  -47.1343  -59.7399 H         1 UNK         0.0790 
     95 H95        28.0419  -46.1212  -58.5678 H         1 UNK         0.0790 
     96 H96        28.2434  -48.4253  -57.6418 H         1 UNK         0.3215 
     97 H97        26.4792  -50.8472  -55.8704 H         1 UNK         0.0863 
     98 H98        28.4102  -52.3966  -55.8701 H         1 UNK         0.0808 
     99 H99        29.0748  -51.6224  -57.3090 H         1 UNK         0.0808 
    100 H100       27.5658  -52.5199  -57.4023 H         1 UNK         0.0808 
    101 H101       29.0834  -50.0878  -55.3089 H         1 UNK         0.3118 
    102 H102       28.7990  -46.6556  -54.5826 H         1 UNK         0.0546 
    103 H103       27.9656  -47.6252  -52.4695 H         1 UNK         0.0828 
    104 H104       29.7017  -47.3753  -52.3615 H         1 UNK         0.0828 
    105 H105       29.0528  -48.9953  -52.6262 H         1 UNK         0.0828 
    106 H106       31.0192  -48.2723  -54.1905 H         1 UNK         0.3005 
    107 H107       32.3578  -48.2701  -57.5133 H         1 UNK         0.1257 
    108 H108       34.0464  -47.6606  -55.3938 H         1 UNK         0.0775 
    109 H109       32.7213  -46.6325  -54.9907 H         1 UNK         0.0775 
    110 H110       32.6935  -44.2089  -58.2059 H         1 UNK         0.0840 
    111 H111       31.7362  -45.6655  -58.1768 H         1 UNK         0.0840 
    112 H112       32.7824  -49.6125  -54.9360 H         1 UNK         0.2987 
    113 H113       31.5082  -52.6895  -56.0085 H         1 UNK         0.0785 
    114 H114       33.7002  -52.8947  -57.1958 H         1 UNK         0.0798 
    115 H115       33.7557  -53.6878  -55.6314 H         1 UNK         0.0798 
    116 H116       34.5202  -52.1125  -55.8519 H         1 UNK         0.0798 
    117 H117       33.1639  -51.9925  -53.7809 H         1 UNK         0.3079 
    118 H118       30.6943  -50.4213  -51.7832 H         1 UNK         0.0794 
    119 H119       31.9472  -53.2041  -51.4778 H         1 UNK         0.0786 
    120 H120       30.2249  -52.8529  -51.4383 H         1 UNK         0.0786 
    121 H121       31.2708  -52.2188  -50.1799 H         1 UNK         0.0786 
    122 H122       33.3519  -51.1439  -51.1728 H         1 UNK         0.3032 
    123 H123       34.9092  -49.4380  -50.9386 H         1 UNK         0.1094 
    124 H124       35.4482  -49.6453  -53.9626 H         1 UNK         0.0794 
    125 H125       36.6792  -49.6973  -52.7018 H         1 UNK         0.0794 
    126 H126       35.4916  -50.9807  -52.8195 H         1 UNK         0.0794 
    127 H127       35.3988  -47.4050  -52.9714 H         1 UNK         0.3016 
@<TRIPOS>BOND
     1    1    2 1    
     2    1   67 1    
     3    1   68 1    
     4    1   69 1    
     5    2    3 2    
     6    2    4 am   BACKBONE|DICT|INTERRES
     7    4    5 1    
     8    4   70 1    
     9    5    6 1    
    10    5   65 1    
    11    5   71 1    
    12    6    7 1    
    13    6   72 1    
    14    6   73 1    
    15    7    8 1    
    16    8    9 1    
    17    8   74 1    
    18    8   75 1    
    19    9   10 ar   
    20    9   14 ar   
    21   10   11 ar   
    22   10   76 1    
    23   11   12 ar   
    24   11   48 1    
    25   12   13 ar   
    26   12   77 1    
    27   13   14 ar   
    28   13   15 1    
    29   14   78 1    
    30   15   16 1    
    31   15   79 1    
    32   15   80 1    
    33   16   17 1    
    34   17   18 1    
    35   17   81 1    
    36   17   82 1    
    37   18   19 1    
    38   18   22 1    
    39   18   83 1    
    40   19   20 am   BACKBONE|DICT|INTERRES
    41   19   21 2    
    42   20   84 1    
    43   20   85 1    
    44   22   23 am   BACKBONE|DICT|INTERRES
    45   22   86 1    
    46   23   24 2    
    47   23   25 1    
    48   25   26 1    
    49   25   27 1    
    50   25   87 1    
    51   26   88 1    
    52   26   89 1    
    53   26   90 1    
    54   27   28 am   BACKBONE|DICT|INTERRES
    55   27   91 1    
    56   28   29 2    
    57   28   30 1    
    58   30   31 1    
    59   30   32 1    
    60   30   92 1    
    61   31   93 1    
    62   31   94 1    
    63   31   95 1    
    64   32   33 am   BACKBONE|DICT|INTERRES
    65   32   96 1    
    66   33   34 2    
    67   33   35 1    
    68   35   36 1    
    69   35   37 1    
    70   35   97 1    
    71   36   98 1    
    72   36   99 1    
    73   36  100 1    
    74   37   38 am   BACKBONE|DICT|INTERRES
    75   37  101 1    
    76   38   39 2    
    77   38   40 1    
    78   40   41 1    
    79   40   42 1    
    80   40  102 1    
    81   41  103 1    
    82   41  104 1    
    83   41  105 1    
    84   42   43 am   BACKBONE|DICT|INTERRES
    85   42  106 1    
    86   43   44 2    
    87   43   45 1    
    88   45   46 1    
    89   45   49 1    
    90   45  107 1    
    91   46   47 1    
    92   46  108 1    
    93   46  109 1    
    94   47   48 1    
    95   48  110 1    
    96   48  111 1    
    97   49   50 am   BACKBONE|DICT|INTERRES
    98   49  112 1    
    99   50   51 2    
   100   50   52 1    
   101   52   53 1    
   102   52   54 1    
   103   52  113 1    
   104   53  114 1    
   105   53  115 1    
   106   53  116 1    
   107   54   55 am   BACKBONE|DICT|INTERRES
   108   54  117 1    
   109   55   56 2    
   110   55   57 1    
   111   57   58 1    
   112   57   59 1    
   113   57  118 1    
   114   58  119 1    
   115   58  120 1    
   116   58  121 1    
   117   59   60 am   BACKBONE|DICT|INTERRES
   118   59  122 1    
   119   60   61 2    
   120   60   62 1    
   121   62   63 1    
   122   62   64 1    
   123   62  123 1    
   124   63  124 1    
   125   63  125 1    
   126   63  126 1    
   127   64   65 am   BACKBONE|DICT|INTERRES
   128   64  127 1    
   129   65   66 2    
@<TRIPOS>SUBSTRUCTURE
     1 UNK         1 GROUP             0       ****    0 ROOT    
