@<TRIPOS>MOLECULE
3R134
127   129    1
SMALL
USER_CHARGES


@<TRIPOS>ATOM
      1 CA         35.5216  -43.5611  -49.5207 C.3       0 UNK        -0.1968 
      2 C          35.6196  -43.9777  -50.9812 C.2       0 UNK         0.4852 
      3 O          36.0266  -43.1726  -51.8202 O.2       0 UNK        -0.5359 
      4 N          35.2524  -45.2258  -51.2884 N.am      1 UNK        -0.4300 
      5 CA         35.2916  -45.8187  -52.6217 C.3       1 UNK         0.0863 
      6 C6         34.0169  -45.4818  -53.4326 C.3       11 UNK        -0.0953 
      7 S7         34.2085  -45.7557  -55.2247 S.3       11 UNK        -0.2369 
      8 C8         32.5028  -46.1533  -55.7250 C.3       11 UNK         0.0226 
      9 C9         31.5667  -44.9545  -55.6400 C.ar      11 UNK        -0.0699 
     10 C10        30.9752  -44.6100  -54.4229 C.ar      11 UNK        -0.0804 
     11 C11        30.0896  -43.5317  -54.3320 C.ar      11 UNK        -0.0871 
     12 C12        29.8178  -42.7809  -55.4783 C.ar      11 UNK        -0.1008 
     13 C13        30.3921  -43.1151  -56.7116 C.ar      11 UNK        -0.0735 
     14 C14        31.2683  -44.2037  -56.7809 C.ar      11 UNK        -0.0945 
     15 C15        30.1322  -42.2849  -57.9680 C.3       11 UNK         0.0169 
     16 S16        28.4630  -41.5496  -58.0664 S.3       11 UNK        -0.2669 
     17 C17        27.4188  -42.9787  -58.5195 C.3       11 UNK        -0.0850 
     18 CA         26.5993  -43.5799  -57.3371 C.3       10 UNK         0.0855 
     19 C          25.3780  -42.7170  -56.8842 C.2       10 UNK         0.5543 
     20 N          24.3437  -43.3137  -56.3026 N.am      10 UNK        -0.7343 
     21 O          25.3610  -41.4987  -57.0372 O.2       10 UNK        -0.5027 
     22 N          26.2643  -44.9951  -57.5725 N.am      10 UNK        -0.4495 
     23 C          25.5205  -45.4669  -58.5842 C.2       10 UNK         0.4903 
     24 O          25.0211  -44.7607  -59.4619 O.2       10 UNK        -0.4860 
     25 CA         25.3119  -46.9927  -58.6115 C.3       9 UNK         0.0227 
     26 CB         24.6859  -47.5029  -59.9269 C.3       9 UNK        -0.1964 
     27 N          26.5433  -47.7219  -58.2929 N.am      9 UNK        -0.4231 
     28 C          27.7037  -47.7185  -58.9677 C.2       9 UNK         0.5014 
     29 O          27.8846  -47.1269  -60.0327 O.2       9 UNK        -0.5270 
     30 CA         28.8780  -48.4934  -58.3390 C.3       8 UNK         0.0284 
     31 CB         29.8747  -47.5164  -57.6983 C.3       8 UNK        -0.1977 
     32 N          28.4614  -49.4755  -57.3331 N.am      8 UNK        -0.4342 
     33 C          27.8096  -50.6145  -57.6105 C.2       8 UNK         0.5039 
     34 O          27.5643  -51.0026  -58.7532 O.2       8 UNK        -0.5547 
     35 CA         27.3113  -51.4405  -56.4158 C.3       7 UNK         0.0281 
     36 CB         28.4040  -52.3913  -55.9123 C.3       7 UNK        -0.1963 
     37 N          26.8494  -50.5903  -55.3162 N.am      7 UNK        -0.4444 
     38 C          25.6545  -49.9845  -55.2913 C.2       7 UNK         0.5104 
     39 O          24.8150  -50.0833  -56.1858 O.2       7 UNK        -0.5100 
     40 CA         25.3510  -49.1034  -54.0691 C.3       6 UNK         0.0396 
     41 CB         24.8494  -49.9592  -52.8952 C.3       6 UNK        -0.1801 
     42 N          26.5016  -48.3063  -53.6395 N.am      6 UNK        -0.4747 
     43 C          27.0179  -47.2851  -54.3380 C.2       6 UNK         0.5012 
     44 O          26.5912  -46.9122  -55.4310 O.2       6 UNK        -0.5003 
     45 CA         28.2215  -46.5583  -53.7156 C.3       5 UNK         0.0782 
     46 C46        27.7274  -45.3937  -52.8169 C.3       11 UNK        -0.0868 
     47 S47        29.0603  -44.5421  -51.9048 S.3       11 UNK        -0.2515 
     48 C48        29.4448  -43.1357  -53.0046 C.3       11 UNK         0.0199 
     49 N          29.1631  -47.4520  -53.0254 N.am      5 UNK        -0.4607 
     50 C          29.8456  -48.4534  -53.5960 C.2       4 UNK         0.5031 
     51 O          29.6279  -48.8611  -54.7390 O.2       4 UNK        -0.5119 
     52 CA         30.9521  -49.0830  -52.7291 C.3       4 UNK         0.0263 
     53 CB         30.4022  -50.2414  -51.8731 C.3       4 UNK        -0.1967 
     54 N          32.1337  -49.4692  -53.5166 N.am      4 UNK        -0.4237 
     55 C          32.2837  -50.5037  -54.3597 C.2       3 UNK         0.4908 
     56 O          31.4800  -51.4248  -54.4882 O.2       3 UNK        -0.5102 
     57 CA         33.5569  -50.5239  -55.2234 C.3       3 UNK         0.0241 
     58 CB         33.2632  -49.9544  -56.6212 C.3       3 UNK        -0.1971 
     59 N          34.6836  -49.7975  -54.6315 N.am      3 UNK        -0.4139 
     60 C          35.4635  -50.2857  -53.6567 C.2       2 UNK         0.5016 
     61 O          35.3074  -51.3930  -53.1409 O.2       2 UNK        -0.5319 
     62 CA         36.6206  -49.3909  -53.1804 C.3       2 UNK         0.0286 
     63 CB         37.8941  -49.6822  -53.9910 C.3       2 UNK        -0.1963 
     64 N          36.3177  -47.9573  -53.2513 N.am      2 UNK        -0.4790 
     65 C          35.4663  -47.3317  -52.4286 C.2       1 UNK         0.5024 
     66 O          34.8213  -47.9033  -51.5459 O.2       1 UNK        -0.4888 
     67 H67        35.1451  -44.3671  -48.8909 H         1 UNK         0.0892 
     68 H68        36.5026  -43.2689  -49.1470 H         1 UNK         0.0892 
     69 H69        34.8497  -42.7093  -49.4182 H         1 UNK         0.0892 
     70 H70        34.9555  -45.8699  -50.5652 H         1 UNK         0.3107 
     71 H71        36.1696  -45.4313  -53.1438 H         1 UNK         0.0773 
     72 H72        33.7563  -44.4301  -53.3027 H         1 UNK         0.0680 
     73 H73        33.1695  -46.0544  -53.0533 H         1 UNK         0.0680 
     74 H74        32.1187  -46.9731  -55.1175 H         1 UNK         0.0650 
     75 H75        32.5327  -46.5220  -56.7506 H         1 UNK         0.0650 
     76 H76        31.1951  -45.1922  -53.5416 H         1 UNK         0.1397 
     77 H77        29.1580  -41.9274  -55.4057 H         1 UNK         0.1363 
     78 H78        31.7274  -44.4639  -57.7249 H         1 UNK         0.1355 
     79 H79        30.8617  -41.4744  -57.9902 H         1 UNK         0.0707 
     80 H80        30.3099  -42.8795  -58.8656 H         1 UNK         0.0707 
     81 H81        28.0641  -43.7463  -58.9498 H         1 UNK         0.1034 
     82 H82        26.7514  -42.6751  -59.3278 H         1 UNK         0.1034 
     83 H83        27.2567  -43.6038  -56.4682 H         1 UNK         0.0482 
     84 H84        24.3429  -44.3113  -56.1627 H         1 UNK         0.3460 
     85 H85        23.5564  -42.7593  -56.0052 H         1 UNK         0.3460 
     86 H86        26.5675  -45.6530  -56.8593 H         1 UNK         0.2989 
     87 H87        24.6123  -47.2188  -57.8055 H         1 UNK         0.0559 
     88 H88        25.3045  -47.2622  -60.7920 H         1 UNK         0.0848 
     89 H89        23.7069  -47.0520  -60.0933 H         1 UNK         0.0848 
     90 H90        24.5451  -48.5836  -59.9051 H         1 UNK         0.0848 
     91 H91        26.5367  -48.1973  -57.4002 H         1 UNK         0.3144 
     92 H92        29.3890  -49.0264  -59.1435 H         1 UNK         0.0727 
     93 H93        30.7298  -48.0490  -57.2839 H         1 UNK         0.0790 
     94 H94        29.4158  -46.9405  -56.8937 H         1 UNK         0.0790 
     95 H95        30.2561  -46.8054  -58.4324 H         1 UNK         0.0790 
     96 H96        28.7022  -49.2662  -56.3660 H         1 UNK         0.3215 
     97 H97        26.4728  -52.0498  -56.7616 H         1 UNK         0.0863 
     98 H98        29.2658  -51.8383  -55.5452 H         1 UNK         0.0808 
     99 H99        28.7522  -53.0471  -56.7114 H         1 UNK         0.0808 
    100 H100       28.0409  -53.0261  -55.1039 H         1 UNK         0.0808 
    101 H101       27.4987  -50.4171  -54.5619 H         1 UNK         0.3118 
    102 H102       24.5512  -48.4141  -54.3492 H         1 UNK         0.0546 
    103 H103       24.5474  -49.3381  -52.0519 H         1 UNK         0.0828 
    104 H104       25.6116  -50.6558  -52.5440 H         1 UNK         0.0828 
    105 H105       23.9795  -50.5493  -53.1875 H         1 UNK         0.0828 
    106 H106       26.9229  -48.5417  -52.7523 H         1 UNK         0.3005 
    107 H107       28.7635  -46.1257  -54.5574 H         1 UNK         0.1257 
    108 H108       27.0212  -45.7637  -52.0707 H         1 UNK         0.0775 
    109 H109       27.1777  -44.6607  -53.4111 H         1 UNK         0.0775 
    110 H110       28.5290  -42.5681  -53.1776 H         1 UNK         0.0840 
    111 H111       30.1270  -42.4650  -52.4809 H         1 UNK         0.0840 
    112 H112       29.3858  -47.1861  -52.0766 H         1 UNK         0.2987 
    113 H113       31.3122  -48.3129  -52.0447 H         1 UNK         0.0785 
    114 H114       31.1942  -50.7206  -51.2976 H         1 UNK         0.0798 
    115 H115       29.6583  -49.8798  -51.1624 H         1 UNK         0.0798 
    116 H116       29.9173  -51.0065  -52.4801 H         1 UNK         0.0798 
    117 H117       32.8974  -48.8106  -53.4798 H         1 UNK         0.3079 
    118 H118       33.8468  -51.5703  -55.3449 H         1 UNK         0.0794 
    119 H119       32.4250  -50.4748  -57.0876 H         1 UNK         0.0786 
    120 H120       34.1216  -50.0665  -57.2837 H         1 UNK         0.0786 
    121 H121       33.0059  -48.8972  -56.5814 H         1 UNK         0.0786 
    122 H122       34.8985  -48.8852  -55.0075 H         1 UNK         0.3032 
    123 H123       36.8172  -49.6467  -52.1361 H         1 UNK         0.1094 
    124 H124       37.7711  -49.4302  -55.0451 H         1 UNK         0.0794 
    125 H125       38.7461  -49.1201  -53.6077 H         1 UNK         0.0794 
    126 H126       38.1568  -50.7398  -53.9377 H         1 UNK         0.0794 
    127 H127       36.8059  -47.4199  -53.9547 H         1 UNK         0.3016 
@<TRIPOS>BOND
     1    1    2 1    
     2    1   67 1    
     3    1   68 1    
     4    1   69 1    
     5    2    3 2    
     6    2    4 am   BACKBONE|DICT|INTERRES
     7    4    5 1    
     8    4   70 1    
     9    5    6 1    
    10    5   65 1    
    11    5   71 1    
    12    6    7 1    
    13    6   72 1    
    14    6   73 1    
    15    7    8 1    
    16    8    9 1    
    17    8   74 1    
    18    8   75 1    
    19    9   10 ar   
    20    9   14 ar   
    21   10   11 ar   
    22   10   76 1    
    23   11   12 ar   
    24   11   48 1    
    25   12   13 ar   
    26   12   77 1    
    27   13   14 ar   
    28   13   15 1    
    29   14   78 1    
    30   15   16 1    
    31   15   79 1    
    32   15   80 1    
    33   16   17 1    
    34   17   18 1    
    35   17   81 1    
    36   17   82 1    
    37   18   19 1    
    38   18   22 1    
    39   18   83 1    
    40   19   20 am   BACKBONE|DICT|INTERRES
    41   19   21 2    
    42   20   84 1    
    43   20   85 1    
    44   22   23 am   BACKBONE|DICT|INTERRES
    45   22   86 1    
    46   23   24 2    
    47   23   25 1    
    48   25   26 1    
    49   25   27 1    
    50   25   87 1    
    51   26   88 1    
    52   26   89 1    
    53   26   90 1    
    54   27   28 am   BACKBONE|DICT|INTERRES
    55   27   91 1    
    56   28   29 2    
    57   28   30 1    
    58   30   31 1    
    59   30   32 1    
    60   30   92 1    
    61   31   93 1    
    62   31   94 1    
    63   31   95 1    
    64   32   33 am   BACKBONE|DICT|INTERRES
    65   32   96 1    
    66   33   34 2    
    67   33   35 1    
    68   35   36 1    
    69   35   37 1    
    70   35   97 1    
    71   36   98 1    
    72   36   99 1    
    73   36  100 1    
    74   37   38 am   BACKBONE|DICT|INTERRES
    75   37  101 1    
    76   38   39 2    
    77   38   40 1    
    78   40   41 1    
    79   40   42 1    
    80   40  102 1    
    81   41  103 1    
    82   41  104 1    
    83   41  105 1    
    84   42   43 am   BACKBONE|DICT|INTERRES
    85   42  106 1    
    86   43   44 2    
    87   43   45 1    
    88   45   46 1    
    89   45   49 1    
    90   45  107 1    
    91   46   47 1    
    92   46  108 1    
    93   46  109 1    
    94   47   48 1    
    95   48  110 1    
    96   48  111 1    
    97   49   50 am   BACKBONE|DICT|INTERRES
    98   49  112 1    
    99   50   51 2    
   100   50   52 1    
   101   52   53 1    
   102   52   54 1    
   103   52  113 1    
   104   53  114 1    
   105   53  115 1    
   106   53  116 1    
   107   54   55 am   BACKBONE|DICT|INTERRES
   108   54  117 1    
   109   55   56 2    
   110   55   57 1    
   111   57   58 1    
   112   57   59 1    
   113   57  118 1    
   114   58  119 1    
   115   58  120 1    
   116   58  121 1    
   117   59   60 am   BACKBONE|DICT|INTERRES
   118   59  122 1    
   119   60   61 2    
   120   60   62 1    
   121   62   63 1    
   122   62   64 1    
   123   62  123 1    
   124   63  124 1    
   125   63  125 1    
   126   63  126 1    
   127   64   65 am   BACKBONE|DICT|INTERRES
   128   64  127 1    
   129   65   66 2    
@<TRIPOS>SUBSTRUCTURE
     1 UNK         1 GROUP             0       ****    0 ROOT    
