@<TRIPOS>MOLECULE
3R134
127   129    1
SMALL
USER_CHARGES


@<TRIPOS>ATOM
      1 CA         33.8399  -43.8691  -47.6563 C.3       0 UNK        -0.1968 
      2 C          34.6197  -43.9891  -48.9577 C.2       0 UNK         0.4852 
      3 O          35.8395  -43.8129  -48.9570 O.2       0 UNK        -0.5359 
      4 N          33.9254  -44.2791  -50.0657 N.am      1 UNK        -0.4300 
      5 CA         34.5170  -44.5031  -51.3880 C.3       1 UNK         0.0863 
      6 C6         33.4550  -44.3498  -52.5066 C.3       11 UNK        -0.0953 
      7 S7         34.1927  -43.8759  -54.1072 S.3       11 UNK        -0.2369 
      8 C8         32.8255  -42.9476  -54.8720 C.3       11 UNK         0.0226 
      9 C9         31.6755  -43.8699  -55.2449 C.ar      11 UNK        -0.0699 
     10 C10        30.5632  -43.9930  -54.4068 C.ar      11 UNK        -0.0804 
     11 C11        29.5254  -44.8716  -54.7306 C.ar      11 UNK        -0.0871 
     12 C12        29.6143  -45.6377  -55.8964 C.ar      11 UNK        -0.1008 
     13 C13        30.7084  -45.5036  -56.7568 C.ar      11 UNK        -0.0735 
     14 C14        31.7323  -44.6115  -56.4275 C.ar      11 UNK        -0.0945 
     15 C15        30.7973  -46.3293  -58.0340 C.3       11 UNK         0.0169 
     16 S16        29.3339  -46.1525  -59.1043 S.3       11 UNK        -0.2669 
     17 C17        29.3098  -44.3615  -59.4732 C.3       11 UNK        -0.0850 
     18 CA         28.4026  -43.5312  -58.5202 C.3       10 UNK         0.0855 
     19 C          28.3634  -42.0355  -58.9488 C.2       10 UNK         0.5543 
     20 N          27.2058  -41.4573  -59.2453 N.am      10 UNK        -0.7343 
     21 O          29.4047  -41.3868  -59.0124 O.2       10 UNK        -0.5027 
     22 N          27.0836  -44.1579  -58.3204 N.am      10 UNK        -0.4495 
     23 C          26.2959  -43.9668  -57.2541 C.2       10 UNK         0.4903 
     24 O          26.5539  -43.1798  -56.3433 O.2       10 UNK        -0.4860 
     25 CA         24.9913  -44.7853  -57.1790 C.3       9 UNK         0.0227 
     26 CB         23.7868  -43.9041  -57.5501 C.3       9 UNK        -0.1964 
     27 N          24.9766  -45.9946  -58.0122 N.am      9 UNK        -0.4231 
     28 C          25.7388  -47.0770  -57.8054 C.2       9 UNK         0.5014 
     29 O          26.5586  -47.1758  -56.8895 O.2       9 UNK        -0.5270 
     30 CA         25.5629  -48.2375  -58.7950 C.3       8 UNK         0.0284 
     31 CB         26.0308  -47.8421  -60.2129 C.3       8 UNK        -0.1977 
     32 N          26.3286  -49.3740  -58.2901 N.am      8 UNK        -0.4342 
     33 C          26.3365  -50.6232  -58.7669 C.2       8 UNK         0.5039 
     34 O          25.6639  -51.0025  -59.7266 O.2       8 UNK        -0.5547 
     35 CA         27.2461  -51.6259  -58.0386 C.3       7 UNK         0.0281 
     36 CB         28.7172  -51.4143  -58.4345 C.3       7 UNK        -0.1963 
     37 N          27.1090  -51.5456  -56.5823 N.am      7 UNK        -0.4444 
     38 C          26.0449  -52.0023  -55.9010 C.2       7 UNK         0.5104 
     39 O          25.0864  -52.5653  -56.4308 O.2       7 UNK        -0.5100 
     40 CA         26.0422  -51.8198  -54.3700 C.3       6 UNK         0.0396 
     41 CB         26.4873  -53.1170  -53.6756 C.3       6 UNK        -0.1801 
     42 N          26.8989  -50.7210  -53.9242 N.am      6 UNK        -0.4747 
     43 C          26.6455  -49.4197  -54.1265 C.2       6 UNK         0.5012 
     44 O          25.5719  -49.0076  -54.5649 O.2       6 UNK        -0.5003 
     45 CA         27.7797  -48.4171  -53.8118 C.3       5 UNK         0.0782 
     46 C46        27.3411  -47.3936  -52.7371 C.3       11 UNK        -0.0868 
     47 S47        28.5987  -46.1063  -52.4370 S.3       11 UNK        -0.2515 
     48 C48        28.3030  -44.9721  -53.8310 C.3       11 UNK         0.0199 
     49 N          29.0524  -49.0728  -53.4731 N.am      5 UNK        -0.4607 
     50 C          29.8420  -49.6995  -54.3525 C.2       4 UNK         0.5031 
     51 O          29.5762  -49.8120  -55.5506 O.2       4 UNK        -0.5119 
     52 CA         31.0845  -50.3973  -53.7840 C.3       4 UNK         0.0263 
     53 CB         30.9540  -51.9239  -53.9236 C.3       4 UNK        -0.1967 
     54 N          32.2922  -49.9490  -54.4737 N.am      4 UNK        -0.4237 
     55 C          32.9426  -48.8165  -54.1824 C.2       3 UNK         0.4908 
     56 O          32.5927  -48.0319  -53.2978 O.2       3 UNK        -0.5102 
     57 CA         34.1844  -48.5077  -55.0330 C.3       3 UNK         0.0241 
     58 CB         33.7967  -47.7169  -56.2903 C.3       3 UNK        -0.1971 
     59 N          35.1493  -47.7254  -54.2618 N.am      3 UNK        -0.4139 
     60 C          36.0739  -48.2461  -53.4445 C.2       2 UNK         0.5016 
     61 O          36.2815  -49.4545  -53.3237 O.2       2 UNK        -0.5319 
     62 CA         36.9166  -47.2531  -52.6225 C.3       2 UNK         0.0286 
     63 CB         38.2357  -46.9379  -53.3467 C.3       2 UNK        -0.1963 
     64 N          36.2100  -45.9996  -52.3400 N.am      2 UNK        -0.4790 
     65 C          35.2111  -45.8808  -51.4548 C.2       1 UNK         0.5024 
     66 O          34.8240  -46.8063  -50.7361 O.2       1 UNK        -0.4888 
     67 H67        34.1994  -44.6026  -46.9350 H         1 UNK         0.0892 
     68 H68        33.9737  -42.8759  -47.2285 H         1 UNK         0.0892 
     69 H69        32.7725  -44.0335  -47.8032 H         1 UNK         0.0892 
     70 H70        32.9329  -44.4519  -49.9962 H         1 UNK         0.3107 
     71 H71        35.2800  -43.7335  -51.5272 H         1 UNK         0.0773 
     72 H72        32.7469  -43.5667  -52.2312 H         1 UNK         0.0680 
     73 H73        32.8608  -45.2578  -52.6338 H         1 UNK         0.0680 
     74 H74        33.1972  -42.4462  -55.7668 H         1 UNK         0.0650 
     75 H75        32.4901  -42.1584  -54.1973 H         1 UNK         0.0650 
     76 H76        30.5073  -43.4117  -53.4968 H         1 UNK         0.1397 
     77 H77        28.8191  -46.3190  -56.1590 H         1 UNK         0.1363 
     78 H78        32.5901  -44.5101  -57.0783 H         1 UNK         0.1355 
     79 H79        30.8994  -47.3804  -57.7610 H         1 UNK         0.0707 
     80 H80        31.6881  -46.0699  -58.6081 H         1 UNK         0.0707 
     81 H81        30.3330  -43.9815  -59.4500 H         1 UNK         0.1034 
     82 H82        28.9723  -44.2462  -60.5047 H         1 UNK         0.1034 
     83 H83        28.8923  -43.5208  -57.5462 H         1 UNK         0.0482 
     84 H84        26.3478  -41.9813  -59.1879 H         1 UNK         0.3460 
     85 H85        27.1913  -40.4876  -59.5196 H         1 UNK         0.3460 
     86 H86        26.8048  -44.8334  -59.0150 H         1 UNK         0.2989 
     87 H87        24.8727  -45.1004  -56.1400 H         1 UNK         0.0559 
     88 H88        23.8297  -43.5754  -58.5892 H         1 UNK         0.0848 
     89 H89        23.7507  -43.0089  -56.9273 H         1 UNK         0.0848 
     90 H90        22.8455  -44.4339  -57.4027 H         1 UNK         0.0848 
     91 H91        24.3282  -46.0007  -58.7868 H         1 UNK         0.3144 
     92 H92        24.5063  -48.5110  -58.8162 H         1 UNK         0.0727 
     93 H93        25.8169  -48.6266  -60.9382 H         1 UNK         0.0790 
     94 H94        27.1031  -47.6515  -60.2429 H         1 UNK         0.0790 
     95 H95        25.5277  -46.9428  -60.5689 H         1 UNK         0.0790 
     96 H96        26.8836  -49.1400  -57.4741 H         1 UNK         0.3215 
     97 H97        26.9551  -52.6306  -58.3539 H         1 UNK         0.0863 
     98 H98        29.3669  -52.1476  -57.9566 H         1 UNK         0.0808 
     99 H99        29.0747  -50.4212  -58.1587 H         1 UNK         0.0808 
    100 H100       28.8480  -51.5182  -59.5124 H         1 UNK         0.0808 
    101 H101       27.8559  -51.0811  -56.0790 H         1 UNK         0.3118 
    102 H102       25.0169  -51.6021  -54.0634 H         1 UNK         0.0546 
    103 H103       25.8463  -53.9518  -53.9627 H         1 UNK         0.0828 
    104 H104       26.4309  -53.0271  -52.5907 H         1 UNK         0.0828 
    105 H105       27.5105  -53.3877  -53.9392 H         1 UNK         0.0828 
    106 H106       27.7934  -50.9705  -53.5291 H         1 UNK         0.3005 
    107 H107       27.9380  -47.8680  -54.7408 H         1 UNK         0.1257 
    108 H108       27.1436  -47.8998  -51.7905 H         1 UNK         0.0775 
    109 H109       26.4051  -46.9064  -53.0181 H         1 UNK         0.0775 
    110 H110       27.4368  -45.2896  -54.4142 H         1 UNK         0.0840 
    111 H111       28.0519  -43.9853  -53.4391 H         1 UNK         0.0840 
    112 H112       29.3421  -49.0047  -52.5079 H         1 UNK         0.2987 
    113 H113       31.1764  -50.1633  -52.7207 H         1 UNK         0.0785 
    114 H114       30.0747  -52.2920  -53.3936 H         1 UNK         0.0798 
    115 H115       31.8201  -52.4354  -53.5033 H         1 UNK         0.0798 
    116 H116       30.8578  -52.2303  -54.9664 H         1 UNK         0.0798 
    117 H117       32.6046  -50.5134  -55.2506 H         1 UNK         0.3079 
    118 H118       34.6457  -49.4483  -55.3425 H         1 UNK         0.0794 
    119 H119       33.3459  -46.7608  -56.0288 H         1 UNK         0.0786 
    120 H120       33.0758  -48.2677  -56.8955 H         1 UNK         0.0786 
    121 H121       34.6647  -47.5177  -56.9189 H         1 UNK         0.0786 
    122 H122       35.0065  -46.7260  -54.2439 H         1 UNK         0.3032 
    123 H123       37.1551  -47.7373  -51.6724 H         1 UNK         0.1094 
    124 H124       38.0647  -46.4420  -54.3030 H         1 UNK         0.0794 
    125 H125       38.8762  -46.2945  -52.7431 H         1 UNK         0.0794 
    126 H126       38.7965  -47.8516  -53.5494 H         1 UNK         0.0794 
    127 H127       36.4649  -45.1949  -52.8962 H         1 UNK         0.3016 
@<TRIPOS>BOND
     1    1    2 1    
     2    1   67 1    
     3    1   68 1    
     4    1   69 1    
     5    2    3 2    
     6    2    4 am   BACKBONE|DICT|INTERRES
     7    4    5 1    
     8    4   70 1    
     9    5    6 1    
    10    5   65 1    
    11    5   71 1    
    12    6    7 1    
    13    6   72 1    
    14    6   73 1    
    15    7    8 1    
    16    8    9 1    
    17    8   74 1    
    18    8   75 1    
    19    9   10 ar   
    20    9   14 ar   
    21   10   11 ar   
    22   10   76 1    
    23   11   12 ar   
    24   11   48 1    
    25   12   13 ar   
    26   12   77 1    
    27   13   14 ar   
    28   13   15 1    
    29   14   78 1    
    30   15   16 1    
    31   15   79 1    
    32   15   80 1    
    33   16   17 1    
    34   17   18 1    
    35   17   81 1    
    36   17   82 1    
    37   18   19 1    
    38   18   22 1    
    39   18   83 1    
    40   19   20 am   BACKBONE|DICT|INTERRES
    41   19   21 2    
    42   20   84 1    
    43   20   85 1    
    44   22   23 am   BACKBONE|DICT|INTERRES
    45   22   86 1    
    46   23   24 2    
    47   23   25 1    
    48   25   26 1    
    49   25   27 1    
    50   25   87 1    
    51   26   88 1    
    52   26   89 1    
    53   26   90 1    
    54   27   28 am   BACKBONE|DICT|INTERRES
    55   27   91 1    
    56   28   29 2    
    57   28   30 1    
    58   30   31 1    
    59   30   32 1    
    60   30   92 1    
    61   31   93 1    
    62   31   94 1    
    63   31   95 1    
    64   32   33 am   BACKBONE|DICT|INTERRES
    65   32   96 1    
    66   33   34 2    
    67   33   35 1    
    68   35   36 1    
    69   35   37 1    
    70   35   97 1    
    71   36   98 1    
    72   36   99 1    
    73   36  100 1    
    74   37   38 am   BACKBONE|DICT|INTERRES
    75   37  101 1    
    76   38   39 2    
    77   38   40 1    
    78   40   41 1    
    79   40   42 1    
    80   40  102 1    
    81   41  103 1    
    82   41  104 1    
    83   41  105 1    
    84   42   43 am   BACKBONE|DICT|INTERRES
    85   42  106 1    
    86   43   44 2    
    87   43   45 1    
    88   45   46 1    
    89   45   49 1    
    90   45  107 1    
    91   46   47 1    
    92   46  108 1    
    93   46  109 1    
    94   47   48 1    
    95   48  110 1    
    96   48  111 1    
    97   49   50 am   BACKBONE|DICT|INTERRES
    98   49  112 1    
    99   50   51 2    
   100   50   52 1    
   101   52   53 1    
   102   52   54 1    
   103   52  113 1    
   104   53  114 1    
   105   53  115 1    
   106   53  116 1    
   107   54   55 am   BACKBONE|DICT|INTERRES
   108   54  117 1    
   109   55   56 2    
   110   55   57 1    
   111   57   58 1    
   112   57   59 1    
   113   57  118 1    
   114   58  119 1    
   115   58  120 1    
   116   58  121 1    
   117   59   60 am   BACKBONE|DICT|INTERRES
   118   59  122 1    
   119   60   61 2    
   120   60   62 1    
   121   62   63 1    
   122   62   64 1    
   123   62  123 1    
   124   63  124 1    
   125   63  125 1    
   126   63  126 1    
   127   64   65 am   BACKBONE|DICT|INTERRES
   128   64  127 1    
   129   65   66 2    
@<TRIPOS>SUBSTRUCTURE
     1 UNK         1 GROUP             0       ****    0 ROOT    
