@<TRIPOS>MOLECULE
3R134
127   129    1
SMALL
USER_CHARGES


@<TRIPOS>ATOM
      1 CA         40.0444  -45.5499  -52.9891 C.3       0 UNK        -0.1968 
      2 C          38.7354  -45.8760  -53.6934 C.2       0 UNK         0.4852 
      3 O          38.7436  -46.6021  -54.6883 O.2       0 UNK        -0.5359 
      4 N          37.6157  -45.3393  -53.1879 N.am      1 UNK        -0.4300 
      5 CA         36.2623  -45.5650  -53.7076 C.3       1 UNK         0.0863 
      6 C6         35.2577  -44.5599  -53.0843 C.3       11 UNK        -0.0953 
      7 S7         33.5846  -44.6559  -53.8014 S.3       11 UNK        -0.2369 
      8 C8         32.6616  -43.5825  -52.6642 C.3       11 UNK         0.0226 
      9 C9         31.1826  -43.5595  -53.0171 C.ar      11 UNK        -0.0699 
     10 C10        30.2391  -44.1541  -52.1727 C.ar      11 UNK        -0.0804 
     11 C11        28.8781  -44.1180  -52.4920 C.ar      11 UNK        -0.0871 
     12 C12        28.4658  -43.4827  -53.6677 C.ar      11 UNK        -0.1008 
     13 C13        29.3997  -42.8943  -54.5241 C.ar      11 UNK        -0.0735 
     14 C14        30.7554  -42.9269  -54.1883 C.ar      11 UNK        -0.0945 
     15 C15        28.9422  -42.2116  -55.8034 C.3       11 UNK         0.0169 
     16 S16        29.4063  -43.1815  -57.2704 S.3       11 UNK        -0.2669 
     17 C17        28.4439  -42.3336  -58.5751 C.3       11 UNK        -0.0850 
     18 CA         27.4753  -43.2777  -59.3371 C.3       10 UNK         0.0855 
     19 C          28.2314  -44.1733  -60.3641 C.2       10 UNK         0.5543 
     20 N          28.2853  -45.4894  -60.1967 N.am      10 UNK        -0.7343 
     21 O          28.7690  -43.6582  -61.3416 O.2       10 UNK        -0.5027 
     22 N          26.5958  -44.0088  -58.4132 N.am      10 UNK        -0.4495 
     23 C          25.4309  -44.5720  -58.7480 C.2       10 UNK         0.4903 
     24 O          24.8802  -44.4344  -59.8420 O.2       10 UNK        -0.4860 
     25 CA         24.7917  -45.4820  -57.6843 C.3       9 UNK         0.0227 
     26 CB         23.3247  -45.0996  -57.4257 C.3       9 UNK        -0.1964 
     27 N          24.8691  -46.8900  -58.0841 N.am      9 UNK        -0.4231 
     28 C          26.0118  -47.5661  -58.2581 C.2       9 UNK         0.5014 
     29 O          27.1280  -47.0828  -58.0616 O.2       9 UNK        -0.5270 
     30 CA         25.9002  -49.0013  -58.7746 C.3       8 UNK         0.0284 
     31 CB         26.0035  -49.0178  -60.3128 C.3       8 UNK        -0.1977 
     32 N          26.9674  -49.7998  -58.1732 N.am      8 UNK        -0.4342 
     33 C          27.0313  -51.1377  -58.1834 C.2       8 UNK         0.5039 
     34 O          26.1971  -51.8618  -58.7290 O.2       8 UNK        -0.5547 
     35 CA         28.2041  -51.7832  -57.4329 C.3       7 UNK         0.0281 
     36 CB         29.5488  -51.4857  -58.1195 C.3       7 UNK        -0.1963 
     37 N          28.2280  -51.3171  -56.0476 N.am      7 UNK        -0.4444 
     38 C          27.5536  -51.8975  -55.0439 C.2       7 UNK         0.5104 
     39 O          26.9376  -52.9581  -55.1565 O.2       7 UNK        -0.5100 
     40 CA         27.5508  -51.1798  -53.6804 C.3       6 UNK         0.0396 
     41 CB         28.6197  -51.7808  -52.7547 C.3       6 UNK        -0.1801 
     42 N          27.7530  -49.7329  -53.7917 N.am      6 UNK        -0.4747 
     43 C          26.8513  -48.8846  -54.3125 C.2       6 UNK         0.5012 
     44 O          25.7250  -49.2327  -54.6696 O.2       6 UNK        -0.5003 
     45 CA         27.2634  -47.4076  -54.5038 C.3       5 UNK         0.0782 
     46 C46        26.6528  -46.5129  -53.3948 C.3       11 UNK        -0.0868 
     47 S47        27.6058  -46.5083  -51.8316 S.3       11 UNK        -0.2515 
     48 C48        27.8526  -44.7263  -51.5441 C.3       11 UNK         0.0199 
     49 N          28.7058  -47.1887  -54.6626 N.am      5 UNK        -0.4607 
     50 C          29.5099  -47.7871  -55.5516 C.2       4 UNK         0.5031 
     51 O          29.1173  -48.5763  -56.4110 O.2       4 UNK        -0.5119 
     52 CA         31.0209  -47.5354  -55.3999 C.3       4 UNK         0.0263 
     53 CB         31.4455  -46.3346  -56.2582 C.3       4 UNK        -0.1967 
     54 N          31.4806  -47.3365  -54.0167 N.am      4 UNK        -0.4237 
     55 C          31.2369  -48.1558  -52.9815 C.2       3 UNK         0.4908 
     56 O          30.5548  -49.1781  -53.0633 O.2       3 UNK        -0.5102 
     57 CA         31.8578  -47.7517  -51.6323 C.3       3 UNK         0.0241 
     58 CB         31.2118  -48.4840  -50.4369 C.3       3 UNK        -0.1971 
     59 N          33.3164  -47.9124  -51.6201 N.am      3 UNK        -0.4139 
     60 C          34.0317  -49.0309  -51.8305 C.2       2 UNK         0.5016 
     61 O          33.5413  -50.1444  -52.0234 O.2       2 UNK        -0.5319 
     62 CA         35.5688  -48.8674  -51.8072 C.3       2 UNK         0.0286 
     63 CB         36.3066  -50.0057  -52.5453 C.3       2 UNK        -0.1963 
     64 N          36.0208  -47.5529  -52.2899 N.am      2 UNK        -0.4790 
     65 C          35.8072  -47.0269  -53.5081 C.2       1 UNK         0.5024 
     66 O          35.2595  -47.6255  -54.4347 O.2       1 UNK        -0.4888 
     67 H67        40.7287  -45.0567  -53.6790 H         1 UNK         0.0892 
     68 H68        39.8955  -44.8928  -52.1325 H         1 UNK         0.0892 
     69 H69        40.5179  -46.4654  -52.6355 H         1 UNK         0.0892 
     70 H70        37.6825  -44.7384  -52.3785 H         1 UNK         0.3107 
     71 H71        36.2945  -45.3812  -54.7841 H         1 UNK         0.0773 
     72 H72        35.6180  -43.5404  -53.2317 H         1 UNK         0.0680 
     73 H73        35.1881  -44.7041  -52.0045 H         1 UNK         0.0680 
     74 H74        33.0648  -42.5699  -52.7143 H         1 UNK         0.0650 
     75 H75        32.8087  -43.9284  -51.6399 H         1 UNK         0.0650 
     76 H76        30.5580  -44.6294  -51.2556 H         1 UNK         0.1397 
     77 H77        27.4146  -43.4324  -53.9138 H         1 UNK         0.1363 
     78 H78        31.4814  -42.4696  -54.8470 H         1 UNK         0.1355 
     79 H79        27.8605  -42.0683  -55.7899 H         1 UNK         0.0707 
     80 H80        29.3876  -41.2179  -55.8700 H         1 UNK         0.0707 
     81 H81        27.8692  -41.5192  -58.1320 H         1 UNK         0.1034 
     82 H82        29.1384  -41.8477  -59.2634 H         1 UNK         0.1034 
     83 H83        26.8315  -42.6361  -59.9421 H         1 UNK         0.0482 
     84 H84        28.7773  -46.0503  -60.8725 H         1 UNK         0.3460 
     85 H85        27.8690  -45.9303  -59.3810 H         1 UNK         0.3460 
     86 H86        27.0077  -44.2300  -57.5181 H         1 UNK         0.2989 
     87 H87        25.3373  -45.3677  -56.7450 H         1 UNK         0.0559 
     88 H88        22.7078  -45.2282  -58.3162 H         1 UNK         0.0848 
     89 H89        23.2431  -44.0550  -57.1226 H         1 UNK         0.0848 
     90 H90        22.8914  -45.7019  -56.6269 H         1 UNK         0.0848 
     91 H91        23.9954  -47.3445  -58.3081 H         1 UNK         0.3144 
     92 H92        24.9380  -49.4147  -58.4650 H         1 UNK         0.0727 
     93 H93        26.9735  -48.6516  -60.6519 H         1 UNK         0.0790 
     94 H94        25.2398  -48.3829  -60.7641 H         1 UNK         0.0790 
     95 H95        25.8651  -50.0206  -60.7164 H         1 UNK         0.0790 
     96 H96        27.6837  -49.2585  -57.6902 H         1 UNK         0.3215 
     97 H97        28.0603  -52.8660  -57.4500 H         1 UNK         0.0863 
     98 H98        30.3736  -51.9712  -57.5978 H         1 UNK         0.0808 
     99 H99        29.7657  -50.4185  -58.1644 H         1 UNK         0.0808 
    100 H100       29.5496  -51.8589  -59.1444 H         1 UNK         0.0808 
    101 H101       28.6579  -50.4111  -55.8865 H         1 UNK         0.3118 
    102 H102       26.5748  -51.3478  -53.2202 H         1 UNK         0.0546 
    103 H103       29.6198  -51.6884  -53.1801 H         1 UNK         0.0828 
    104 H104       28.4359  -52.8425  -52.5856 H         1 UNK         0.0828 
    105 H105       28.6243  -51.2919  -51.7804 H         1 UNK         0.0828 
    106 H106       28.6712  -49.3816  -53.5279 H         1 UNK         0.3005 
    107 H107       26.8106  -47.1040  -55.4479 H         1 UNK         0.1257 
    108 H108       25.6248  -46.8056  -53.1708 H         1 UNK         0.0775 
    109 H109       26.5687  -45.4964  -53.7729 H         1 UNK         0.0775 
    110 H110       26.8965  -44.2069  -51.6273 H         1 UNK         0.0840 
    111 H111       28.1799  -44.5830  -50.5131 H         1 UNK         0.0840 
    112 H112       29.1256  -46.5767  -53.9775 H         1 UNK         0.2987 
    113 H113       31.5308  -48.4231  -55.7793 H         1 UNK         0.0785 
    114 H114       31.0922  -46.4397  -57.2853 H         1 UNK         0.0798 
    115 H115       32.5307  -46.2386  -56.2978 H         1 UNK         0.0798 
    116 H116       31.0388  -45.4006  -55.8690 H         1 UNK         0.0798 
    117 H117       32.0661  -46.5259  -53.8621 H         1 UNK         0.3079 
    118 H118       31.6633  -46.6874  -51.5023 H         1 UNK         0.0794 
    119 H119       31.6187  -48.1323  -49.4890 H         1 UNK         0.0786 
    120 H120       31.3643  -49.5626  -50.4879 H         1 UNK         0.0786 
    121 H121       30.1350  -48.3106  -50.4130 H         1 UNK         0.0786 
    122 H122       33.8429  -47.0617  -51.4835 H         1 UNK         0.3032 
    123 H123       35.8543  -48.9239  -50.7552 H         1 UNK         0.1094 
    124 H124       36.0110  -50.0687  -53.5930 H         1 UNK         0.0794 
    125 H125       37.3871  -49.8674  -52.5093 H         1 UNK         0.0794 
    126 H126       36.0899  -50.9727  -52.0896 H         1 UNK         0.0794 
    127 H127       36.4990  -46.9787  -51.6087 H         1 UNK         0.3016 
@<TRIPOS>BOND
     1    1    2 1    
     2    1   67 1    
     3    1   68 1    
     4    1   69 1    
     5    2    3 2    
     6    2    4 am   BACKBONE|DICT|INTERRES
     7    4    5 1    
     8    4   70 1    
     9    5    6 1    
    10    5   65 1    
    11    5   71 1    
    12    6    7 1    
    13    6   72 1    
    14    6   73 1    
    15    7    8 1    
    16    8    9 1    
    17    8   74 1    
    18    8   75 1    
    19    9   10 ar   
    20    9   14 ar   
    21   10   11 ar   
    22   10   76 1    
    23   11   12 ar   
    24   11   48 1    
    25   12   13 ar   
    26   12   77 1    
    27   13   14 ar   
    28   13   15 1    
    29   14   78 1    
    30   15   16 1    
    31   15   79 1    
    32   15   80 1    
    33   16   17 1    
    34   17   18 1    
    35   17   81 1    
    36   17   82 1    
    37   18   19 1    
    38   18   22 1    
    39   18   83 1    
    40   19   20 am   BACKBONE|DICT|INTERRES
    41   19   21 2    
    42   20   84 1    
    43   20   85 1    
    44   22   23 am   BACKBONE|DICT|INTERRES
    45   22   86 1    
    46   23   24 2    
    47   23   25 1    
    48   25   26 1    
    49   25   27 1    
    50   25   87 1    
    51   26   88 1    
    52   26   89 1    
    53   26   90 1    
    54   27   28 am   BACKBONE|DICT|INTERRES
    55   27   91 1    
    56   28   29 2    
    57   28   30 1    
    58   30   31 1    
    59   30   32 1    
    60   30   92 1    
    61   31   93 1    
    62   31   94 1    
    63   31   95 1    
    64   32   33 am   BACKBONE|DICT|INTERRES
    65   32   96 1    
    66   33   34 2    
    67   33   35 1    
    68   35   36 1    
    69   35   37 1    
    70   35   97 1    
    71   36   98 1    
    72   36   99 1    
    73   36  100 1    
    74   37   38 am   BACKBONE|DICT|INTERRES
    75   37  101 1    
    76   38   39 2    
    77   38   40 1    
    78   40   41 1    
    79   40   42 1    
    80   40  102 1    
    81   41  103 1    
    82   41  104 1    
    83   41  105 1    
    84   42   43 am   BACKBONE|DICT|INTERRES
    85   42  106 1    
    86   43   44 2    
    87   43   45 1    
    88   45   46 1    
    89   45   49 1    
    90   45  107 1    
    91   46   47 1    
    92   46  108 1    
    93   46  109 1    
    94   47   48 1    
    95   48  110 1    
    96   48  111 1    
    97   49   50 am   BACKBONE|DICT|INTERRES
    98   49  112 1    
    99   50   51 2    
   100   50   52 1    
   101   52   53 1    
   102   52   54 1    
   103   52  113 1    
   104   53  114 1    
   105   53  115 1    
   106   53  116 1    
   107   54   55 am   BACKBONE|DICT|INTERRES
   108   54  117 1    
   109   55   56 2    
   110   55   57 1    
   111   57   58 1    
   112   57   59 1    
   113   57  118 1    
   114   58  119 1    
   115   58  120 1    
   116   58  121 1    
   117   59   60 am   BACKBONE|DICT|INTERRES
   118   59  122 1    
   119   60   61 2    
   120   60   62 1    
   121   62   63 1    
   122   62   64 1    
   123   62  123 1    
   124   63  124 1    
   125   63  125 1    
   126   63  126 1    
   127   64   65 am   BACKBONE|DICT|INTERRES
   128   64  127 1    
   129   65   66 2    
@<TRIPOS>SUBSTRUCTURE
     1 UNK         1 GROUP             0       ****    0 ROOT    
