@<TRIPOS>MOLECULE
3R134
127   129    1
SMALL
USER_CHARGES


@<TRIPOS>ATOM
      1 CA         36.8835  -42.5714  -52.7804 C.3       0 UNK        -0.1968 
      2 C          36.6949  -43.9626  -53.3675 C.2       0 UNK         0.4852 
      3 O          37.5179  -44.4002  -54.1731 O.2       0 UNK        -0.5359 
      4 N          35.6205  -44.6514  -52.9675 N.am      1 UNK        -0.4300 
      5 CA         35.2821  -46.0170  -53.3700 C.3       1 UNK         0.0863 
      6 C6         34.0187  -46.0782  -54.2687 C.3       11 UNK        -0.0953 
      7 S7         34.1719  -45.1886  -55.8563 S.3       11 UNK        -0.2369 
      8 C8         33.4600  -43.5487  -55.4859 C.3       11 UNK         0.0226 
      9 C9         31.9604  -43.6033  -55.2280 C.ar      11 UNK        -0.0699 
     10 C10        31.4813  -43.7315  -53.9219 C.ar      11 UNK        -0.0804 
     11 C11        30.1114  -43.8258  -53.6720 C.ar      11 UNK        -0.0871 
     12 C12        29.2110  -43.7369  -54.7371 C.ar      11 UNK        -0.1008 
     13 C13        29.6742  -43.5667  -56.0455 C.ar      11 UNK        -0.0735 
     14 C14        31.0514  -43.5128  -56.2873 C.ar      11 UNK        -0.0945 
     15 C15        28.6817  -43.4628  -57.1929 C.3       11 UNK         0.0169 
     16 S16        27.7067  -41.9309  -57.0950 S.3       11 UNK        -0.2669 
     17 C17        26.5817  -42.1224  -58.5190 C.3       11 UNK        -0.0850 
     18 CA         25.2325  -42.7729  -58.1164 C.3       10 UNK         0.0855 
     19 C          24.1632  -42.5532  -59.2159 C.2       10 UNK         0.5543 
     20 N          23.2763  -41.5847  -59.0352 N.am      10 UNK        -0.7343 
     21 O          24.1550  -43.2233  -60.2468 O.2       10 UNK        -0.5027 
     22 N          25.3964  -44.2084  -57.8647 N.am      10 UNK        -0.4495 
     23 C          24.8464  -44.8993  -56.8641 C.2       10 UNK         0.4903 
     24 O          24.1693  -44.3858  -55.9728 O.2       10 UNK        -0.4860 
     25 CA         25.0814  -46.4232  -56.8290 C.3       9 UNK         0.0227 
     26 CB         23.9037  -47.1746  -57.4785 C.3       9 UNK        -0.1964 
     27 N          26.3679  -46.8969  -57.3655 N.am      9 UNK        -0.4231 
     28 C          26.8313  -46.8606  -58.6248 C.2       9 UNK         0.5014 
     29 O          26.2495  -46.3047  -59.5566 O.2       9 UNK        -0.5270 
     30 CA         28.1758  -47.5550  -58.8976 C.3       8 UNK         0.0284 
     31 CB         29.3540  -46.6168  -58.5948 C.3       8 UNK        -0.1977 
     32 N          28.3376  -48.7999  -58.1459 N.am      8 UNK        -0.4342 
     33 C          27.6636  -49.9320  -58.3942 C.2       8 UNK         0.5039 
     34 O          26.8475  -50.0607  -59.3077 O.2       8 UNK        -0.5547 
     35 CA         27.9460  -51.1238  -57.4648 C.3       7 UNK         0.0281 
     36 CB         29.2714  -51.8079  -57.8373 C.3       7 UNK        -0.1963 
     37 N          27.9650  -50.7275  -56.0556 N.am      7 UNK        -0.4444 
     38 C          26.8738  -50.3878  -55.3548 C.2       7 UNK         0.5104 
     39 O          25.7268  -50.4396  -55.7990 O.2       7 UNK        -0.5100 
     40 CA         27.0977  -49.8956  -53.9154 C.3       6 UNK         0.0396 
     41 CB         27.0324  -51.0688  -52.9252 C.3       6 UNK        -0.1801 
     42 N          28.3649  -49.1814  -53.7450 N.am      6 UNK        -0.4747 
     43 C          28.6284  -47.9740  -54.2679 C.2       6 UNK         0.5012 
     44 O          27.8392  -47.3513  -54.9790 O.2       6 UNK        -0.5003 
     45 CA         30.0343  -47.3932  -53.9944 C.3       5 UNK         0.0782 
     46 C46        30.1697  -46.8291  -52.5506 C.3       11 UNK        -0.0868 
     47 S47        28.8435  -45.6746  -52.0336 S.3       11 UNK        -0.2515 
     48 C48        29.6124  -44.0384  -52.2512 C.3       11 UNK         0.0199 
     49 N          31.0810  -48.3854  -54.2802 N.am      5 UNK        -0.4607 
     50 C          31.2445  -49.0110  -55.4593 C.2       4 UNK         0.5031 
     51 O          30.6009  -48.7294  -56.4681 O.2       4 UNK        -0.5119 
     52 CA         32.2310  -50.1936  -55.5378 C.3       4 UNK         0.0263 
     53 CB         33.5324  -49.7790  -56.2423 C.3       4 UNK        -0.1967 
     54 N          32.5467  -50.8059  -54.2473 N.am      4 UNK        -0.4237 
     55 C          31.6623  -51.3660  -53.4082 C.2       3 UNK         0.4908 
     56 O          30.4720  -51.5275  -53.6801 O.2       3 UNK        -0.5102 
     57 CA         32.1788  -51.7499  -52.0066 C.3       3 UNK         0.0241 
     58 CB         32.4338  -53.2634  -51.9264 C.3       3 UNK        -0.1971 
     59 N          33.3916  -51.0287  -51.5876 N.am      3 UNK        -0.4139 
     60 C          33.5105  -49.6950  -51.4911 C.2       2 UNK         0.5016 
     61 O          32.5830  -48.9202  -51.7349 O.2       2 UNK        -0.5319 
     62 CA         34.8967  -49.1203  -51.1380 C.3       2 UNK         0.0286 
     63 CB         36.0124  -50.1803  -51.0226 C.3       2 UNK        -0.1963 
     64 N          35.2749  -48.1437  -52.1625 N.am      2 UNK        -0.4790 
     65 C          35.0346  -46.8290  -52.0873 C.2       1 UNK         0.5024 
     66 O          34.5979  -46.2632  -51.0805 O.2       1 UNK        -0.4888 
     67 H67        36.0817  -42.3065  -52.0913 H         1 UNK         0.0892 
     68 H68        37.8277  -42.5169  -52.2392 H         1 UNK         0.0892 
     69 H69        36.9035  -41.8284  -53.5773 H         1 UNK         0.0892 
     70 H70        35.0306  -44.2818  -52.2339 H         1 UNK         0.3107 
     71 H71        36.1197  -46.4728  -53.9024 H         1 UNK         0.0773 
     72 H72        33.7960  -47.1151  -54.5187 H         1 UNK         0.0680 
     73 H73        33.1426  -45.7312  -53.7274 H         1 UNK         0.0680 
     74 H74        33.6603  -42.8868  -56.3295 H         1 UNK         0.0650 
     75 H75        33.9757  -43.1082  -54.6323 H         1 UNK         0.0650 
     76 H76        32.1795  -43.7828  -53.0980 H         1 UNK         0.1397 
     77 H77        28.1477  -43.8043  -54.5491 H         1 UNK         0.1363 
     78 H78        31.4185  -43.4010  -57.2984 H         1 UNK         0.1355 
     79 H79        28.0148  -44.3234  -57.1573 H         1 UNK         0.0707 
     80 H80        29.1953  -43.4968  -58.1545 H         1 UNK         0.0707 
     81 H81        26.4161  -41.1209  -58.9215 H         1 UNK         0.1034 
     82 H82        27.0703  -42.6861  -59.3162 H         1 UNK         0.1034 
     83 H83        24.8816  -42.2824  -57.2058 H         1 UNK         0.0482 
     84 H84        22.5820  -41.4162  -59.7467 H         1 UNK         0.3460 
     85 H85        23.2816  -41.0223  -58.1981 H         1 UNK         0.3460 
     86 H86        25.8228  -44.7473  -58.6139 H         1 UNK         0.2989 
     87 H87        25.0998  -46.7017  -55.7740 H         1 UNK         0.0559 
     88 H88        23.8108  -46.9460  -58.5407 H         1 UNK         0.0848 
     89 H89        22.9593  -46.9032  -57.0051 H         1 UNK         0.0848 
     90 H90        24.0197  -48.2539  -57.3758 H         1 UNK         0.0848 
     91 H91        26.9846  -47.2834  -56.6531 H         1 UNK         0.3144 
     92 H92        28.2083  -47.8002  -59.9614 H         1 UNK         0.0727 
     93 H93        29.3998  -46.3529  -57.5373 H         1 UNK         0.0790 
     94 H94        29.2743  -45.6936  -59.1691 H         1 UNK         0.0790 
     95 H95        30.3049  -47.0794  -58.8598 H         1 UNK         0.0790 
     96 H96        29.0458  -48.7968  -57.4125 H         1 UNK         0.3215 
     97 H97        27.1426  -51.8518  -57.5991 H         1 UNK         0.0863 
     98 H98        29.4970  -52.6369  -57.1661 H         1 UNK         0.0808 
     99 H99        30.1099  -51.1124  -57.8112 H         1 UNK         0.0808 
    100 H100       29.2234  -52.2134  -58.8487 H         1 UNK         0.0808 
    101 H101       28.8636  -50.6646  -55.5977 H         1 UNK         0.3118 
    102 H102       26.2881  -49.2034  -53.6739 H         1 UNK         0.0546 
    103 H103       26.0787  -51.5922  -53.0050 H         1 UNK         0.0828 
    104 H104       27.1270  -50.7255  -51.8950 H         1 UNK         0.0828 
    105 H105       27.8204  -51.7999  -53.1099 H         1 UNK         0.0828 
    106 H106       29.0955  -49.6652  -53.2390 H         1 UNK         0.3005 
    107 H107       30.1768  -46.5682  -54.6961 H         1 UNK         0.1257 
    108 H108       31.1376  -46.3413  -52.4292 H         1 UNK         0.0775 
    109 H109       30.1689  -47.6516  -51.8333 H         1 UNK         0.0775 
    110 H110       28.8802  -43.2671  -52.0082 H         1 UNK         0.0840 
    111 H111       30.4232  -43.9288  -51.5291 H         1 UNK         0.0840 
    112 H112       31.6465  -48.6718  -53.4864 H         1 UNK         0.2987 
    113 H113       31.7530  -50.9636  -56.1450 H         1 UNK         0.0785 
    114 H114       34.1202  -49.0853  -55.6428 H         1 UNK         0.0798 
    115 H115       33.3237  -49.2905  -57.1955 H         1 UNK         0.0798 
    116 H116       34.1576  -50.6459  -56.4573 H         1 UNK         0.0798 
    117 H117       33.5033  -50.7325  -53.9362 H         1 UNK         0.3079 
    118 H118       31.3882  -51.4970  -51.2971 H         1 UNK         0.0794 
    119 H119       33.2374  -53.5741  -52.5953 H         1 UNK         0.0786 
    120 H120       31.5413  -53.8251  -52.2066 H         1 UNK         0.0786 
    121 H121       32.7003  -53.5688  -50.9144 H         1 UNK         0.0786 
    122 H122       34.2010  -51.5950  -51.3768 H         1 UNK         0.3032 
    123 H123       34.7964  -48.6297  -50.1669 H         1 UNK         0.1094 
    124 H124       36.9642  -49.7132  -50.7680 H         1 UNK         0.0794 
    125 H125       35.7981  -50.9008  -50.2319 H         1 UNK         0.0794 
    126 H126       36.1589  -50.7311  -51.9528 H         1 UNK         0.0794 
    127 H127       35.6249  -48.5209  -53.0317 H         1 UNK         0.3016 
@<TRIPOS>BOND
     1    1    2 1    
     2    1   67 1    
     3    1   68 1    
     4    1   69 1    
     5    2    3 2    
     6    2    4 am   BACKBONE|DICT|INTERRES
     7    4    5 1    
     8    4   70 1    
     9    5    6 1    
    10    5   65 1    
    11    5   71 1    
    12    6    7 1    
    13    6   72 1    
    14    6   73 1    
    15    7    8 1    
    16    8    9 1    
    17    8   74 1    
    18    8   75 1    
    19    9   10 ar   
    20    9   14 ar   
    21   10   11 ar   
    22   10   76 1    
    23   11   12 ar   
    24   11   48 1    
    25   12   13 ar   
    26   12   77 1    
    27   13   14 ar   
    28   13   15 1    
    29   14   78 1    
    30   15   16 1    
    31   15   79 1    
    32   15   80 1    
    33   16   17 1    
    34   17   18 1    
    35   17   81 1    
    36   17   82 1    
    37   18   19 1    
    38   18   22 1    
    39   18   83 1    
    40   19   20 am   BACKBONE|DICT|INTERRES
    41   19   21 2    
    42   20   84 1    
    43   20   85 1    
    44   22   23 am   BACKBONE|DICT|INTERRES
    45   22   86 1    
    46   23   24 2    
    47   23   25 1    
    48   25   26 1    
    49   25   27 1    
    50   25   87 1    
    51   26   88 1    
    52   26   89 1    
    53   26   90 1    
    54   27   28 am   BACKBONE|DICT|INTERRES
    55   27   91 1    
    56   28   29 2    
    57   28   30 1    
    58   30   31 1    
    59   30   32 1    
    60   30   92 1    
    61   31   93 1    
    62   31   94 1    
    63   31   95 1    
    64   32   33 am   BACKBONE|DICT|INTERRES
    65   32   96 1    
    66   33   34 2    
    67   33   35 1    
    68   35   36 1    
    69   35   37 1    
    70   35   97 1    
    71   36   98 1    
    72   36   99 1    
    73   36  100 1    
    74   37   38 am   BACKBONE|DICT|INTERRES
    75   37  101 1    
    76   38   39 2    
    77   38   40 1    
    78   40   41 1    
    79   40   42 1    
    80   40  102 1    
    81   41  103 1    
    82   41  104 1    
    83   41  105 1    
    84   42   43 am   BACKBONE|DICT|INTERRES
    85   42  106 1    
    86   43   44 2    
    87   43   45 1    
    88   45   46 1    
    89   45   49 1    
    90   45  107 1    
    91   46   47 1    
    92   46  108 1    
    93   46  109 1    
    94   47   48 1    
    95   48  110 1    
    96   48  111 1    
    97   49   50 am   BACKBONE|DICT|INTERRES
    98   49  112 1    
    99   50   51 2    
   100   50   52 1    
   101   52   53 1    
   102   52   54 1    
   103   52  113 1    
   104   53  114 1    
   105   53  115 1    
   106   53  116 1    
   107   54   55 am   BACKBONE|DICT|INTERRES
   108   54  117 1    
   109   55   56 2    
   110   55   57 1    
   111   57   58 1    
   112   57   59 1    
   113   57  118 1    
   114   58  119 1    
   115   58  120 1    
   116   58  121 1    
   117   59   60 am   BACKBONE|DICT|INTERRES
   118   59  122 1    
   119   60   61 2    
   120   60   62 1    
   121   62   63 1    
   122   62   64 1    
   123   62  123 1    
   124   63  124 1    
   125   63  125 1    
   126   63  126 1    
   127   64   65 am   BACKBONE|DICT|INTERRES
   128   64  127 1    
   129   65   66 2    
@<TRIPOS>SUBSTRUCTURE
     1 UNK         1 GROUP             0       ****    0 ROOT    
