@<TRIPOS>MOLECULE
3R134
127   129    1
SMALL
USER_CHARGES


@<TRIPOS>ATOM
      1 CA         37.1454  -47.0947  -57.6731 C.3       0 UNK        -0.1968 
      2 C          36.1199  -47.8589  -56.8494 C.2       0 UNK         0.4852 
      3 O          36.0768  -49.0890  -56.9110 O.2       0 UNK        -0.5359 
      4 N          35.3029  -47.1455  -56.0636 N.am      1 UNK        -0.4300 
      5 CA         34.2262  -47.6841  -55.2195 C.3       1 UNK         0.0863 
      6 C6         33.1282  -46.6229  -54.9503 C.3       11 UNK        -0.0953 
      7 S7         32.3918  -45.9835  -56.4914 S.3       11 UNK        -0.2369 
      8 C8         32.6389  -44.1881  -56.3144 C.3       11 UNK         0.0226 
      9 C9         31.4985  -43.5472  -55.5376 C.ar      11 UNK        -0.0699 
     10 C10        31.5455  -43.4591  -54.1424 C.ar      11 UNK        -0.0804 
     11 C11        30.4784  -42.8992  -53.4323 C.ar      11 UNK        -0.0871 
     12 C12        29.3714  -42.4053  -54.1293 C.ar      11 UNK        -0.1008 
     13 C13        29.3168  -42.4806  -55.5229 C.ar      11 UNK        -0.0735 
     14 C14        30.3859  -43.0473  -56.2217 C.ar      11 UNK        -0.0945 
     15 C15        28.0970  -41.9574  -56.2656 C.3       11 UNK         0.0169 
     16 S16        26.7551  -43.1833  -56.2553 S.3       11 UNK        -0.2669 
     17 C17        25.4223  -42.2302  -57.0556 C.3       11 UNK        -0.0850 
     18 CA         24.1349  -43.0793  -57.2717 C.3       10 UNK         0.0855 
     19 C          22.9063  -42.2171  -57.6989 C.2       10 UNK         0.5543 
     20 N          21.9619  -42.7509  -58.4644 N.am      10 UNK        -0.7343 
     21 O          22.7855  -41.0587  -57.3069 O.2       10 UNK        -0.5027 
     22 N          24.3707  -44.2785  -58.0997 N.am      10 UNK        -0.4495 
     23 C          24.7139  -44.2926  -59.3936 C.2       10 UNK         0.4903 
     24 O          24.8799  -43.2823  -60.0792 O.2       10 UNK        -0.4860 
     25 CA         24.9428  -45.6802  -60.0146 C.3       9 UNK         0.0227 
     26 CB         24.6393  -45.6992  -61.5242 C.3       9 UNK        -0.1964 
     27 N          26.3285  -46.0913  -59.7982 N.am      9 UNK        -0.4231 
     28 C          26.7999  -46.6219  -58.6634 C.2       9 UNK         0.5014 
     29 O          26.0933  -46.9056  -57.6924 O.2       9 UNK        -0.5270 
     30 CA         28.3192  -46.8330  -58.6093 C.3       8 UNK         0.0284 
     31 CB         29.0249  -45.5195  -58.2440 C.3       8 UNK        -0.1977 
     32 N          28.6605  -47.8428  -57.6099 N.am      8 UNK        -0.4342 
     33 C          28.9249  -49.1279  -57.8815 C.2       8 UNK         0.5039 
     34 O          28.9891  -49.5857  -59.0239 O.2       8 UNK        -0.5547 
     35 CA         29.1614  -50.0764  -56.6891 C.3       7 UNK         0.0281 
     36 CB         30.6690  -50.2690  -56.4541 C.3       7 UNK        -0.1963 
     37 N          28.5310  -49.6162  -55.4492 N.am      7 UNK        -0.4444 
     38 C          27.2043  -49.5481  -55.2525 C.2       7 UNK         0.5104 
     39 O          26.3815  -50.0135  -56.0418 O.2       7 UNK        -0.5100 
     40 CA         26.6907  -48.8452  -53.9768 C.3       6 UNK         0.0396 
     41 CB         26.0455  -49.8656  -53.0242 C.3       6 UNK        -0.1801 
     42 N          27.7038  -48.0878  -53.2355 N.am      6 UNK        -0.4747 
     43 C          28.4053  -47.0371  -53.6897 C.2       6 UNK         0.5012 
     44 O          28.2410  -46.5401  -54.8028 O.2       6 UNK        -0.5003 
     45 CA         29.5370  -46.5154  -52.7766 C.3       5 UNK         0.0782 
     46 C46        29.0626  -45.3030  -51.9397 C.3       11 UNK        -0.0868 
     47 S47        30.4776  -44.4817  -51.1259 S.3       11 UNK        -0.2515 
     48 C48        30.5062  -42.8344  -51.9105 C.3       11 UNK         0.0199 
     49 N          30.1034  -47.5682  -51.9151 N.am      5 UNK        -0.4607 
     50 C          30.6746  -48.7004  -52.3430 C.2       4 UNK         0.5031 
     51 O          30.8224  -48.9876  -53.5333 O.2       4 UNK        -0.5119 
     52 CA         31.0641  -49.7194  -51.2685 C.3       4 UNK         0.0263 
     53 CB         29.8086  -50.4888  -50.8040 C.3       4 UNK        -0.1967 
     54 N          32.0450  -50.6228  -51.8605 N.am      4 UNK        -0.4237 
     55 C          32.7077  -51.6152  -51.2566 C.2       3 UNK         0.4908 
     56 O          32.5735  -51.9236  -50.0719 O.2       3 UNK        -0.5102 
     57 CA         33.7141  -52.3784  -52.1322 C.3       3 UNK         0.0241 
     58 CB         32.9968  -53.2199  -53.2025 C.3       3 UNK        -0.1971 
     59 N          34.6679  -51.4696  -52.7715 N.am      3 UNK        -0.4139 
     60 C          35.6449  -50.8197  -52.1227 C.2       2 UNK         0.5016 
     61 O          35.8966  -50.9714  -50.9265 O.2       2 UNK        -0.5319 
     62 CA         36.4911  -49.8339  -52.9447 C.3       2 UNK         0.0286 
     63 CB         37.7427  -50.5302  -53.5030 C.3       2 UNK        -0.1963 
     64 N          35.7584  -49.2059  -54.0477 N.am      2 UNK        -0.4790 
     65 C          34.7853  -48.2947  -53.9123 C.2       1 UNK         0.5024 
     66 O          34.3607  -47.9214  -52.8177 O.2       1 UNK        -0.4888 
     67 H67        38.1532  -47.4045  -57.3984 H         1 UNK         0.0892 
     68 H68        37.0022  -47.3007  -58.7335 H         1 UNK         0.0892 
     69 H69        37.0683  -46.0179  -57.5239 H         1 UNK         0.0892 
     70 H70        35.4027  -46.1412  -56.0390 H         1 UNK         0.3107 
     71 H71        33.7513  -48.5065  -55.7592 H         1 UNK         0.0773 
     72 H72        33.5313  -45.8008  -54.3578 H         1 UNK         0.0680 
     73 H73        32.3205  -47.0528  -54.3606 H         1 UNK         0.0680 
     74 H74        32.6974  -43.7486  -57.3113 H         1 UNK         0.0650 
     75 H75        33.5974  -43.9788  -55.8376 H         1 UNK         0.0650 
     76 H76        32.4004  -43.8441  -53.6043 H         1 UNK         0.1397 
     77 H77        28.5389  -41.9759  -53.5884 H         1 UNK         0.1363 
     78 H78        30.3455  -43.1140  -57.3000 H         1 UNK         0.1355 
     79 H79        27.7511  -41.0330  -55.8003 H         1 UNK         0.0707 
     80 H80        28.3534  -41.7105  -57.2970 H         1 UNK         0.0707 
     81 H81        25.2119  -41.3685  -56.4195 H         1 UNK         0.1034 
     82 H82        25.7830  -41.8276  -58.0034 H         1 UNK         0.1034 
     83 H83        23.8498  -43.4684  -56.2936 H         1 UNK         0.0482 
     84 H84        22.0413  -43.7036  -58.7816 H         1 UNK         0.3460 
     85 H85        21.1649  -42.1934  -58.7287 H         1 UNK         0.3460 
     86 H86        24.3188  -45.1632  -57.6126 H         1 UNK         0.2989 
     87 H87        24.2707  -46.3936  -59.5323 H         1 UNK         0.0559 
     88 H88        25.2990  -45.0345  -62.0835 H         1 UNK         0.0848 
     89 H89        23.6148  -45.3789  -61.7186 H         1 UNK         0.0848 
     90 H90        24.7476  -46.7023  -61.9372 H         1 UNK         0.0848 
     91 H91        26.9839  -45.8542  -60.5294 H         1 UNK         0.3144 
     92 H92        28.6617  -47.1457  -59.5981 H         1 UNK         0.0727 
     93 H93        28.7304  -44.7055  -58.9076 H         1 UNK         0.0790 
     94 H94        30.1066  -45.6216  -58.3198 H         1 UNK         0.0790 
     95 H95        28.7875  -45.2126  -57.2248 H         1 UNK         0.0790 
     96 H96        28.5442  -47.5563  -56.6429 H         1 UNK         0.3215 
     97 H97        28.7281  -51.0449  -56.9476 H         1 UNK         0.0863 
     98 H98        31.1615  -49.3257  -56.2129 H         1 UNK         0.0808 
     99 H99        31.1544  -50.6704  -57.3446 H         1 UNK         0.0808 
    100 H100       30.8596  -50.9662  -55.6381 H         1 UNK         0.0808 
    101 H101       29.1540  -49.2472  -54.7382 H         1 UNK         0.3118 
    102 H102       25.9220  -48.1374  -54.2936 H         1 UNK         0.0546 
    103 H103       26.7724  -50.5924  -52.6594 H         1 UNK         0.0828 
    104 H104       25.2527  -50.4227  -53.5256 H         1 UNK         0.0828 
    105 H105       25.5949  -49.3759  -52.1608 H         1 UNK         0.0828 
    106 H106       27.9265  -48.4290  -52.3121 H         1 UNK         0.3005 
    107 H107       30.3284  -46.1762  -53.4485 H         1 UNK         0.1257 
    108 H108       28.3543  -45.6183  -51.1714 H         1 UNK         0.0775 
    109 H109       28.5251  -44.5838  -52.5594 H         1 UNK         0.0775 
    110 H110       29.6629  -42.2541  -51.5324 H         1 UNK         0.0840 
    111 H111       31.4053  -42.3060  -51.5906 H         1 UNK         0.0840 
    112 H112       30.0333  -47.4026  -50.9213 H         1 UNK         0.2987 
    113 H113       31.5255  -49.1982  -50.4275 H         1 UNK         0.0785 
    114 H114       29.0508  -49.8101  -50.4109 H         1 UNK         0.0798 
    115 H115       30.0373  -51.1958  -50.0071 H         1 UNK         0.0798 
    116 H116       29.3544  -51.0470  -51.6239 H         1 UNK         0.0798 
    117 H117       32.2164  -50.4283  -52.8394 H         1 UNK         0.3079 
    118 H118       34.2707  -53.0601  -51.4849 H         1 UNK         0.0794 
    119 H119       32.2776  -53.9003  -52.7442 H         1 UNK         0.0786 
    120 H120       33.7044  -53.8303  -53.7640 H         1 UNK         0.0786 
    121 H121       32.4506  -52.6008  -53.9153 H         1 UNK         0.0786 
    122 H122       34.5501  -51.2881  -53.7574 H         1 UNK         0.3032 
    123 H123       36.8151  -49.0431  -52.2639 H         1 UNK         0.1094 
    124 H124       38.3243  -50.9895  -52.7023 H         1 UNK         0.0794 
    125 H125       37.4849  -51.3176  -54.2125 H         1 UNK         0.0794 
    126 H126       38.3971  -49.8217  -54.0112 H         1 UNK         0.0794 
    127 H127       36.0498  -49.4333  -54.9953 H         1 UNK         0.3016 
@<TRIPOS>BOND
     1    1    2 1    
     2    1   67 1    
     3    1   68 1    
     4    1   69 1    
     5    2    3 2    
     6    2    4 am   BACKBONE|DICT|INTERRES
     7    4    5 1    
     8    4   70 1    
     9    5    6 1    
    10    5   65 1    
    11    5   71 1    
    12    6    7 1    
    13    6   72 1    
    14    6   73 1    
    15    7    8 1    
    16    8    9 1    
    17    8   74 1    
    18    8   75 1    
    19    9   10 ar   
    20    9   14 ar   
    21   10   11 ar   
    22   10   76 1    
    23   11   12 ar   
    24   11   48 1    
    25   12   13 ar   
    26   12   77 1    
    27   13   14 ar   
    28   13   15 1    
    29   14   78 1    
    30   15   16 1    
    31   15   79 1    
    32   15   80 1    
    33   16   17 1    
    34   17   18 1    
    35   17   81 1    
    36   17   82 1    
    37   18   19 1    
    38   18   22 1    
    39   18   83 1    
    40   19   20 am   BACKBONE|DICT|INTERRES
    41   19   21 2    
    42   20   84 1    
    43   20   85 1    
    44   22   23 am   BACKBONE|DICT|INTERRES
    45   22   86 1    
    46   23   24 2    
    47   23   25 1    
    48   25   26 1    
    49   25   27 1    
    50   25   87 1    
    51   26   88 1    
    52   26   89 1    
    53   26   90 1    
    54   27   28 am   BACKBONE|DICT|INTERRES
    55   27   91 1    
    56   28   29 2    
    57   28   30 1    
    58   30   31 1    
    59   30   32 1    
    60   30   92 1    
    61   31   93 1    
    62   31   94 1    
    63   31   95 1    
    64   32   33 am   BACKBONE|DICT|INTERRES
    65   32   96 1    
    66   33   34 2    
    67   33   35 1    
    68   35   36 1    
    69   35   37 1    
    70   35   97 1    
    71   36   98 1    
    72   36   99 1    
    73   36  100 1    
    74   37   38 am   BACKBONE|DICT|INTERRES
    75   37  101 1    
    76   38   39 2    
    77   38   40 1    
    78   40   41 1    
    79   40   42 1    
    80   40  102 1    
    81   41  103 1    
    82   41  104 1    
    83   41  105 1    
    84   42   43 am   BACKBONE|DICT|INTERRES
    85   42  106 1    
    86   43   44 2    
    87   43   45 1    
    88   45   46 1    
    89   45   49 1    
    90   45  107 1    
    91   46   47 1    
    92   46  108 1    
    93   46  109 1    
    94   47   48 1    
    95   48  110 1    
    96   48  111 1    
    97   49   50 am   BACKBONE|DICT|INTERRES
    98   49  112 1    
    99   50   51 2    
   100   50   52 1    
   101   52   53 1    
   102   52   54 1    
   103   52  113 1    
   104   53  114 1    
   105   53  115 1    
   106   53  116 1    
   107   54   55 am   BACKBONE|DICT|INTERRES
   108   54  117 1    
   109   55   56 2    
   110   55   57 1    
   111   57   58 1    
   112   57   59 1    
   113   57  118 1    
   114   58  119 1    
   115   58  120 1    
   116   58  121 1    
   117   59   60 am   BACKBONE|DICT|INTERRES
   118   59  122 1    
   119   60   61 2    
   120   60   62 1    
   121   62   63 1    
   122   62   64 1    
   123   62  123 1    
   124   63  124 1    
   125   63  125 1    
   126   63  126 1    
   127   64   65 am   BACKBONE|DICT|INTERRES
   128   64  127 1    
   129   65   66 2    
@<TRIPOS>SUBSTRUCTURE
     1 UNK         1 GROUP             0       ****    0 ROOT    
