@<TRIPOS>MOLECULE
3R134
127   129    1
SMALL
USER_CHARGES


@<TRIPOS>ATOM
      1 CA         38.5825  -44.5339  -51.5540 C.3       0 UNK        -0.1968 
      2 C          37.8406  -45.4978  -52.4683 C.2       0 UNK         0.4852 
      3 O          38.4767  -46.2938  -53.1605 O.2       0 UNK        -0.5359 
      4 N          36.5020  -45.4305  -52.4759 N.am      1 UNK        -0.4300 
      5 CA         35.6222  -46.2773  -53.2922 C.3       1 UNK         0.0863 
      6 C6         34.1916  -45.6892  -53.3917 C.3       11 UNK        -0.0953 
      7 S7         34.1737  -44.2020  -54.4506 S.3       11 UNK        -0.2369 
      8 C8         32.9438  -44.6432  -55.7269 C.3       11 UNK         0.0226 
      9 C9         31.5953  -43.9735  -55.4870 C.ar      11 UNK        -0.0699 
     10 C10        30.9313  -44.1170  -54.2644 C.ar      11 UNK        -0.0804 
     11 C11        29.7022  -43.4880  -54.0435 C.ar      11 UNK        -0.0871 
     12 C12        29.1339  -42.7111  -55.0567 C.ar      11 UNK        -0.1008 
     13 C13        29.7811  -42.5666  -56.2865 C.ar      11 UNK        -0.0735 
     14 C14        31.0083  -43.2033  -56.4964 C.ar      11 UNK        -0.0945 
     15 C15        29.1731  -41.7033  -57.3818 C.3       11 UNK         0.0169 
     16 S16        27.9369  -42.6195  -58.3510 S.3       11 UNK        -0.2669 
     17 C17        26.3792  -42.0589  -57.5737 C.3       11 UNK        -0.0850 
     18 CA         25.1309  -42.8580  -58.0299 C.3       10 UNK         0.0855 
     19 C          24.7928  -42.6105  -59.5320 C.2       10 UNK         0.5543 
     20 N          24.9226  -43.5932  -60.4171 N.am      10 UNK        -0.7343 
     21 O          24.3940  -41.5062  -59.8940 O.2       10 UNK        -0.5027 
     22 N          25.2350  -44.2712  -57.6436 N.am      10 UNK        -0.4495 
     23 C          24.2170  -45.1409  -57.6252 C.2       10 UNK         0.4903 
     24 O          23.0395  -44.8105  -57.7753 O.2       10 UNK        -0.4860 
     25 CA         24.5678  -46.6276  -57.4056 C.3       9 UNK         0.0227 
     26 CB         23.6120  -47.5722  -58.1634 C.3       9 UNK        -0.1964 
     27 N          25.9643  -46.9772  -57.7012 N.am      9 UNK        -0.4231 
     28 C          26.6214  -46.8330  -58.8638 C.2       9 UNK         0.5014 
     29 O          26.1395  -46.3082  -59.8693 O.2       9 UNK        -0.5270 
     30 CA         28.0678  -47.3539  -58.9050 C.3       8 UNK         0.0284 
     31 CB         29.0353  -46.3250  -58.2955 C.3       8 UNK        -0.1977 
     32 N          28.2311  -48.6389  -58.2219 N.am      8 UNK        -0.4342 
     33 C          27.6901  -49.7990  -58.6220 C.2       8 UNK         0.5039 
     34 O          27.0061  -49.9267  -59.6381 O.2       8 UNK        -0.5547 
     35 CA         27.9549  -51.0256  -57.7362 C.3       7 UNK         0.0281 
     36 CB         29.3486  -51.6141  -58.0139 C.3       7 UNK        -0.1963 
     37 N          27.8322  -50.6929  -56.3165 N.am      7 UNK        -0.4444 
     38 C          26.6746  -50.6746  -55.6418 C.2       7 UNK         0.5104 
     39 O          25.5922  -51.0029  -56.1281 O.2       7 UNK        -0.5100 
     40 CA         26.7255  -50.2121  -54.1733 C.3       6 UNK         0.0396 
     41 CB         26.8906  -51.4195  -53.2372 C.3       6 UNK        -0.1801 
     42 N          27.7892  -49.2432  -53.8969 N.am      6 UNK        -0.4747 
     43 C          27.8286  -47.9932  -54.3849 C.2       6 UNK         0.5012 
     44 O          26.9673  -47.5236  -55.1272 O.2       6 UNK        -0.5003 
     45 CA         29.0764  -47.1512  -54.0383 C.3       5 UNK         0.0782 
     46 C46        28.9133  -46.4551  -52.6629 C.3       11 UNK        -0.0868 
     47 S47        27.8039  -45.0083  -52.7231 S.3       11 UNK        -0.2515 
     48 C48        28.9918  -43.6299  -52.7062 C.3       11 UNK         0.0199 
     49 N          30.3146  -47.9384  -54.0790 N.am      5 UNK        -0.4607 
     50 C          30.7306  -48.7143  -55.0905 C.2       4 UNK         0.5031 
     51 O          30.1606  -48.7683  -56.1791 O.2       4 UNK        -0.5119 
     52 CA         31.9456  -49.6291  -54.8422 C.3       4 UNK         0.0263 
     53 CB         33.1122  -49.2166  -55.7523 C.3       4 UNK        -0.1967 
     54 N          32.3838  -49.6941  -53.4371 N.am      4 UNK        -0.4237 
     55 C          31.6521  -50.2252  -52.4406 C.2       3 UNK         0.4908 
     56 O          30.5507  -50.7456  -52.6297 O.2       3 UNK        -0.5102 
     57 CA         32.1559  -50.0788  -50.9895 C.3       3 UNK         0.0241 
     58 CB         31.9406  -51.3644  -50.1612 C.3       3 UNK        -0.1971 
     59 N          33.5227  -49.5567  -50.8506 N.am      3 UNK        -0.4139 
     60 C          34.6769  -50.1874  -51.1119 C.2       2 UNK         0.5016 
     61 O          34.7561  -51.3465  -51.5224 O.2       2 UNK        -0.5319 
     62 CA         35.9537  -49.3413  -50.9104 C.3       2 UNK         0.0286 
     63 CB         37.2305  -50.0673  -51.3857 C.3       2 UNK        -0.1963 
     64 N          35.8714  -48.0075  -51.5315 N.am      2 UNK        -0.4790 
     65 C          35.5835  -47.7445  -52.8177 C.2       1 UNK         0.5024 
     66 O          35.2788  -48.6138  -53.6316 O.2       1 UNK        -0.4888 
     67 H67        39.2509  -43.9024  -52.1385 H         1 UNK         0.0892 
     68 H68        39.1816  -45.0878  -50.8318 H         1 UNK         0.0892 
     69 H69        37.9006  -43.8863  -51.0032 H         1 UNK         0.0892 
     70 H70        36.0372  -44.7384  -51.9053 H         1 UNK         0.3107 
     71 H71        36.0424  -46.3096  -54.3004 H         1 UNK         0.0773 
     72 H72        33.4910  -46.4232  -53.7928 H         1 UNK         0.0680 
     73 H73        33.8093  -45.4246  -52.4043 H         1 UNK         0.0680 
     74 H74        32.8069  -45.7228  -55.7916 H         1 UNK         0.0650 
     75 H75        33.3489  -44.3369  -56.6925 H         1 UNK         0.0650 
     76 H76        31.3807  -44.7099  -53.4808 H         1 UNK         0.1397 
     77 H77        28.1882  -42.2167  -54.8845 H         1 UNK         0.1363 
     78 H78        31.5113  -43.0895  -57.4471 H         1 UNK         0.1355 
     79 H79        29.9547  -41.3558  -58.0592 H         1 UNK         0.0707 
     80 H80        28.7288  -40.8043  -56.9518 H         1 UNK         0.0707 
     81 H81        26.4771  -42.1357  -56.4906 H         1 UNK         0.1034 
     82 H82        26.2458  -40.9956  -57.7825 H         1 UNK         0.1034 
     83 H83        24.2836  -42.4512  -57.4744 H         1 UNK         0.0482 
     84 H84        24.6965  -43.4208  -61.3833 H         1 UNK         0.3460 
     85 H85        25.2782  -44.5011  -60.1353 H         1 UNK         0.3460 
     86 H86        26.1727  -44.6261  -57.5301 H         1 UNK         0.2989 
     87 H87        24.4355  -46.8112  -56.3385 H         1 UNK         0.0559 
     88 H88        23.6509  -47.4052  -59.2404 H         1 UNK         0.0848 
     89 H89        22.5784  -47.4252  -57.8478 H         1 UNK         0.0848 
     90 H90        23.8597  -48.6176  -57.9774 H         1 UNK         0.0848 
     91 H91        26.4753  -47.3524  -56.9038 H         1 UNK         0.3144 
     92 H92        28.3399  -47.4990  -59.9525 H         1 UNK         0.0727 
     93 H93        28.7958  -46.1051  -57.2546 H         1 UNK         0.0790 
     94 H94        28.9969  -45.3841  -58.8451 H         1 UNK         0.0790 
     95 H95        30.0665  -46.6768  -58.3323 H         1 UNK         0.0790 
     96 H96        28.8446  -48.6484  -57.4081 H         1 UNK         0.3215 
     97 H97        27.2144  -51.7879  -57.9898 H         1 UNK         0.0863 
     98 H98        29.5260  -52.5095  -57.4181 H         1 UNK         0.0808 
     99 H99        30.1462  -50.9034  -57.7959 H         1 UNK         0.0808 
    100 H100       29.4464  -51.8990  -59.0624 H         1 UNK         0.0808 
    101 H101       28.6646  -50.3515  -55.8552 H         1 UNK         0.3118 
    102 H102       25.7703  -49.7335  -53.9470 H         1 UNK         0.0546 
    103 H103       26.1036  -52.1560  -53.4059 H         1 UNK         0.0828 
    104 H104       26.8337  -51.1211  -52.1903 H         1 UNK         0.0828 
    105 H105       27.8468  -51.9219  -53.3907 H         1 UNK         0.0828 
    106 H106       28.5610  -49.5669  -53.3268 H         1 UNK         0.3005 
    107 H107       29.1727  -46.3867  -54.8122 H         1 UNK         0.1257 
    108 H108       29.8820  -46.1271  -52.2849 H         1 UNK         0.0775 
    109 H109       28.5375  -47.1512  -51.9101 H         1 UNK         0.0775 
    110 H110       28.4543  -42.7086  -52.4765 H         1 UNK         0.0840 
    111 H111       29.7116  -43.7650  -51.8972 H         1 UNK         0.0840 
    112 H112       30.8497  -47.9670  -53.2255 H         1 UNK         0.2987 
    113 H113       31.6399  -50.6362  -55.1335 H         1 UNK         0.0785 
    114 H114       33.4560  -48.2047  -55.5381 H         1 UNK         0.0798 
    115 H115       32.8167  -49.2411  -56.8022 H         1 UNK         0.0798 
    116 H116       33.9598  -49.8932  -55.6430 H         1 UNK         0.0798 
    117 H117       33.3063  -49.3255  -53.2351 H         1 UNK         0.3079 
    118 H118       31.5165  -49.3133  -50.5472 H         1 UNK         0.0794 
    119 H119       32.4671  -52.2183  -50.5881 H         1 UNK         0.0786 
    120 H120       30.8834  -51.6297  -50.1189 H         1 UNK         0.0786 
    121 H121       32.2811  -51.2378  -49.1335 H         1 UNK         0.0786 
    122 H122       33.5868  -48.5986  -50.5337 H         1 UNK         0.3032 
    123 H123       36.0466  -49.1854  -49.8341 H         1 UNK         0.1094 
    124 H124       37.3624  -51.0139  -50.8599 H         1 UNK         0.0794 
    125 H125       37.1958  -50.2898  -52.4529 H         1 UNK         0.0794 
    126 H126       38.1209  -49.4669  -51.1986 H         1 UNK         0.0794 
    127 H127       36.0959  -47.2249  -50.9322 H         1 UNK         0.3016 
@<TRIPOS>BOND
     1    1    2 1    
     2    1   67 1    
     3    1   68 1    
     4    1   69 1    
     5    2    3 2    
     6    2    4 am   BACKBONE|DICT|INTERRES
     7    4    5 1    
     8    4   70 1    
     9    5    6 1    
    10    5   65 1    
    11    5   71 1    
    12    6    7 1    
    13    6   72 1    
    14    6   73 1    
    15    7    8 1    
    16    8    9 1    
    17    8   74 1    
    18    8   75 1    
    19    9   10 ar   
    20    9   14 ar   
    21   10   11 ar   
    22   10   76 1    
    23   11   12 ar   
    24   11   48 1    
    25   12   13 ar   
    26   12   77 1    
    27   13   14 ar   
    28   13   15 1    
    29   14   78 1    
    30   15   16 1    
    31   15   79 1    
    32   15   80 1    
    33   16   17 1    
    34   17   18 1    
    35   17   81 1    
    36   17   82 1    
    37   18   19 1    
    38   18   22 1    
    39   18   83 1    
    40   19   20 am   BACKBONE|DICT|INTERRES
    41   19   21 2    
    42   20   84 1    
    43   20   85 1    
    44   22   23 am   BACKBONE|DICT|INTERRES
    45   22   86 1    
    46   23   24 2    
    47   23   25 1    
    48   25   26 1    
    49   25   27 1    
    50   25   87 1    
    51   26   88 1    
    52   26   89 1    
    53   26   90 1    
    54   27   28 am   BACKBONE|DICT|INTERRES
    55   27   91 1    
    56   28   29 2    
    57   28   30 1    
    58   30   31 1    
    59   30   32 1    
    60   30   92 1    
    61   31   93 1    
    62   31   94 1    
    63   31   95 1    
    64   32   33 am   BACKBONE|DICT|INTERRES
    65   32   96 1    
    66   33   34 2    
    67   33   35 1    
    68   35   36 1    
    69   35   37 1    
    70   35   97 1    
    71   36   98 1    
    72   36   99 1    
    73   36  100 1    
    74   37   38 am   BACKBONE|DICT|INTERRES
    75   37  101 1    
    76   38   39 2    
    77   38   40 1    
    78   40   41 1    
    79   40   42 1    
    80   40  102 1    
    81   41  103 1    
    82   41  104 1    
    83   41  105 1    
    84   42   43 am   BACKBONE|DICT|INTERRES
    85   42  106 1    
    86   43   44 2    
    87   43   45 1    
    88   45   46 1    
    89   45   49 1    
    90   45  107 1    
    91   46   47 1    
    92   46  108 1    
    93   46  109 1    
    94   47   48 1    
    95   48  110 1    
    96   48  111 1    
    97   49   50 am   BACKBONE|DICT|INTERRES
    98   49  112 1    
    99   50   51 2    
   100   50   52 1    
   101   52   53 1    
   102   52   54 1    
   103   52  113 1    
   104   53  114 1    
   105   53  115 1    
   106   53  116 1    
   107   54   55 am   BACKBONE|DICT|INTERRES
   108   54  117 1    
   109   55   56 2    
   110   55   57 1    
   111   57   58 1    
   112   57   59 1    
   113   57  118 1    
   114   58  119 1    
   115   58  120 1    
   116   58  121 1    
   117   59   60 am   BACKBONE|DICT|INTERRES
   118   59  122 1    
   119   60   61 2    
   120   60   62 1    
   121   62   63 1    
   122   62   64 1    
   123   62  123 1    
   124   63  124 1    
   125   63  125 1    
   126   63  126 1    
   127   64   65 am   BACKBONE|DICT|INTERRES
   128   64  127 1    
   129   65   66 2    
@<TRIPOS>SUBSTRUCTURE
     1 UNK         1 GROUP             0       ****    0 ROOT    
