@<TRIPOS>MOLECULE
3R134
127   129    1
SMALL
USER_CHARGES


@<TRIPOS>ATOM
      1 CA         36.7933  -46.6650  -51.7262 C.3       0 UNK        -0.1968 
      2 C          35.3499  -46.3811  -52.1121 C.2       0 UNK         0.4852 
      3 O          34.7028  -47.2282  -52.7291 O.2       0 UNK        -0.5359 
      4 N          34.8253  -45.2084  -51.7313 N.am      1 UNK        -0.4300 
      5 CA         33.4817  -44.7006  -52.0579 C.3       1 UNK         0.0863 
      6 C6         33.4224  -43.1495  -51.9688 C.3       11 UNK        -0.0953 
      7 S7         34.6837  -42.3416  -53.0212 S.3       11 UNK        -0.2369 
      8 C8         33.7036  -41.6710  -54.4088 C.3       11 UNK         0.0226 
      9 C9         32.7883  -42.7105  -55.0425 C.ar      11 UNK        -0.0699 
     10 C10        33.3156  -43.8912  -55.5752 C.ar      11 UNK        -0.0804 
     11 C11        32.4679  -44.8930  -56.0562 C.ar      11 UNK        -0.0871 
     12 C12        31.0868  -44.6743  -56.0687 C.ar      11 UNK        -0.1008 
     13 C13        30.5493  -43.4867  -55.5642 C.ar      11 UNK        -0.0735 
     14 C14        31.4048  -42.5099  -55.0496 C.ar      11 UNK        -0.0945 
     15 C15        29.0438  -43.2738  -55.5419 C.3       11 UNK         0.0169 
     16 S16        28.2803  -44.1573  -54.1475 S.3       11 UNK        -0.2669 
     17 C17        26.5156  -43.7396  -54.3613 C.3       11 UNK        -0.0850 
     18 CA         25.6783  -44.9127  -54.9560 C.3       10 UNK         0.0855 
     19 C          24.1396  -44.6944  -54.8108 C.2       10 UNK         0.5543 
     20 N          23.3134  -45.1462  -55.7477 N.am      10 UNK        -0.7343 
     21 O          23.6796  -44.1360  -53.8177 O.2       10 UNK        -0.5027 
     22 N          26.1089  -45.3105  -56.3096 N.am      10 UNK        -0.4495 
     23 C          26.0582  -44.5452  -57.4095 C.2       10 UNK         0.4903 
     24 O          25.6806  -43.3736  -57.4185 O.2       10 UNK        -0.4860 
     25 CA         26.5052  -45.1848  -58.7336 C.3       9 UNK         0.0227 
     26 CB         27.9478  -44.7732  -59.0720 C.3       9 UNK        -0.1964 
     27 N          26.4068  -46.6463  -58.7499 N.am      9 UNK        -0.4231 
     28 C          25.2615  -47.3360  -58.8403 C.2       9 UNK         0.5014 
     29 O          24.1469  -46.8124  -58.8214 O.2       9 UNK        -0.5270 
     30 CA         25.3756  -48.8600  -58.9813 C.3       8 UNK         0.0284 
     31 CB         25.9436  -49.2419  -60.3595 C.3       8 UNK        -0.1977 
     32 N          26.2178  -49.4346  -57.9308 N.am      8 UNK        -0.4342 
     33 C          25.8289  -50.3918  -57.0754 C.2       8 UNK         0.5039 
     34 O          24.7113  -50.9100  -57.0889 O.2       8 UNK        -0.5547 
     35 CA         26.8504  -50.8713  -56.0236 C.3       7 UNK         0.0281 
     36 CB         27.4730  -52.2102  -56.4512 C.3       7 UNK        -0.1963 
     37 N          27.9237  -49.9106  -55.7636 N.am      7 UNK        -0.4444 
     38 C          27.7517  -48.7120  -55.1887 C.2       7 UNK         0.5104 
     39 O          26.6776  -48.3199  -54.7351 O.2       7 UNK        -0.5100 
     40 CA         28.9624  -47.7641  -55.1638 C.3       6 UNK         0.0396 
     41 CB         29.5682  -47.6971  -53.7559 C.3       6 UNK        -0.1801 
     42 N          30.0108  -48.0947  -56.1353 N.am      6 UNK        -0.4747 
     43 C          29.8562  -48.0665  -57.4689 C.2       6 UNK         0.5012 
     44 O          28.7738  -47.8530  -58.0163 O.2       6 UNK        -0.5003 
     45 CA         31.0896  -48.3450  -58.3516 C.3       5 UNK         0.0782 
     46 C46        31.7118  -47.0123  -58.8862 C.3       11 UNK        -0.0868 
     47 S47        33.3326  -46.4770  -58.2151 S.3       11 UNK        -0.2515 
     48 C48        33.0417  -46.2509  -56.4333 C.3       11 UNK         0.0199 
     49 N          32.0639  -49.2586  -57.7419 N.am      5 UNK        -0.4607 
     50 C          31.8105  -50.4839  -57.2579 C.2       4 UNK         0.5031 
     51 O          30.7077  -51.0301  -57.3166 O.2       4 UNK        -0.5119 
     52 CA         32.9640  -51.2082  -56.5372 C.3       4 UNK         0.0263 
     53 CB         34.3624  -50.6306  -56.8589 C.3       4 UNK        -0.1967 
     54 N          32.7560  -51.2567  -55.0823 N.am      4 UNK        -0.4237 
     55 C          32.5669  -50.2092  -54.2651 C.2       3 UNK         0.4908 
     56 O          32.4821  -49.0423  -54.6553 O.2       3 UNK        -0.5102 
     57 CA         32.4530  -50.5081  -52.7627 C.3       3 UNK         0.0241 
     58 CB         33.7035  -51.2284  -52.2219 C.3       3 UNK        -0.1971 
     59 N          32.2875  -49.2392  -52.0591 N.am      3 UNK        -0.4139 
     60 C          31.6095  -49.0404  -50.9218 C.2       2 UNK         0.5016 
     61 O          31.0487  -49.9460  -50.3030 O.2       2 UNK        -0.5319 
     62 CA         31.5416  -47.5996  -50.3758 C.3       2 UNK         0.0286 
     63 CB         31.8067  -47.5446  -48.8584 C.3       2 UNK        -0.1963 
     64 N          32.4760  -46.7135  -51.0713 N.am      2 UNK        -0.4790 
     65 C          32.3549  -45.3941  -51.2492 C.2       1 UNK         0.5024 
     66 O          31.4133  -44.7381  -50.8012 O.2       1 UNK        -0.4888 
     67 H67        37.3907  -46.8411  -52.6202 H         1 UNK         0.0892 
     68 H68        37.2397  -45.8361  -51.1773 H         1 UNK         0.0892 
     69 H69        36.8455  -47.5553  -51.1001 H         1 UNK         0.0892 
     70 H70        35.4012  -44.5662  -51.2059 H         1 UNK         0.3107 
     71 H71        33.2812  -44.9721  -53.0946 H         1 UNK         0.0773 
     72 H72        32.4350  -42.7803  -52.2514 H         1 UNK         0.0680 
     73 H73        33.5816  -42.8235  -50.9395 H         1 UNK         0.0680 
     74 H74        33.1292  -40.8174  -54.0458 H         1 UNK         0.0650 
     75 H75        34.3843  -41.2843  -55.1681 H         1 UNK         0.0650 
     76 H76        34.3839  -44.0580  -55.5448 H         1 UNK         0.1397 
     77 H77        30.4205  -45.4413  -56.4304 H         1 UNK         0.1363 
     78 H78        30.9897  -41.6025  -54.6326 H         1 UNK         0.1355 
     79 H79        28.6138  -43.6221  -56.4787 H         1 UNK         0.0707 
     80 H80        28.8085  -42.2108  -55.4701 H         1 UNK         0.0707 
     81 H81        26.4101  -42.8354  -54.9618 H         1 UNK         0.1034 
     82 H82        26.1439  -43.4745  -53.3701 H         1 UNK         0.1034 
     83 H83        25.8747  -45.7837  -54.3307 H         1 UNK         0.0482 
     84 H84        23.6721  -45.6090  -56.5696 H         1 UNK         0.3460 
     85 H85        22.3210  -45.0100  -55.6378 H         1 UNK         0.3460 
     86 H86        26.4067  -46.2698  -56.4045 H         1 UNK         0.2989 
     87 H87        25.8529  -44.7953  -59.5180 H         1 UNK         0.0559 
     88 H88        28.6588  -45.1470  -58.3354 H         1 UNK         0.0848 
     89 H89        28.0488  -43.6874  -59.1012 H         1 UNK         0.0848 
     90 H90        28.2498  -45.1513  -60.0488 H         1 UNK         0.0848 
     91 H91        27.2909  -47.1497  -58.7041 H         1 UNK         0.3144 
     92 H92        24.3611  -49.2592  -58.9179 H         1 UNK         0.0727 
     93 H93        26.9715  -48.8999  -60.4871 H         1 UNK         0.0790 
     94 H94        25.3497  -48.8036  -61.1628 H         1 UNK         0.0790 
     95 H95        25.9328  -50.3226  -60.5024 H         1 UNK         0.0790 
     96 H96        27.1535  -49.0544  -57.8368 H         1 UNK         0.3215 
     97 H97        26.3061  -51.0274  -55.0896 H         1 UNK         0.0863 
     98 H98        28.0411  -52.1128  -57.3775 H         1 UNK         0.0808 
     99 H99        26.7025  -52.9641  -56.6185 H         1 UNK         0.0808 
    100 H100       28.1450  -52.5991  -55.6859 H         1 UNK         0.0808 
    101 H101       28.8419  -50.1441  -56.1216 H         1 UNK         0.3118 
    102 H102       28.5919  -46.7711  -55.4207 H         1 UNK         0.0546 
    103 H103       30.4198  -47.0170  -53.7178 H         1 UNK         0.0828 
    104 H104       29.8986  -48.6797  -53.4216 H         1 UNK         0.0828 
    105 H105       28.8346  -47.3358  -53.0339 H         1 UNK         0.0828 
    106 H106       30.9189  -48.3449  -55.7537 H         1 UNK         0.3005 
    107 H107       30.6898  -48.8823  -59.2149 H         1 UNK         0.1257 
    108 H108       31.0201  -46.1707  -58.8076 H         1 UNK         0.0775 
    109 H109       31.8687  -47.1252  -59.9600 H         1 UNK         0.0775 
    110 H110       32.3846  -47.0279  -56.0632 H         1 UNK         0.0840 
    111 H111       33.9870  -46.4075  -55.9107 H         1 UNK         0.0840 
    112 H112       32.9937  -48.8816  -57.6258 H         1 UNK         0.2987 
    113 H113       32.9433  -52.2395  -56.8927 H         1 UNK         0.0785 
    114 H114       35.1467  -51.2485  -56.4215 H         1 UNK         0.0798 
    115 H115       34.5418  -50.6049  -57.9347 H         1 UNK         0.0798 
    116 H116       34.4949  -49.6185  -56.4742 H         1 UNK         0.0798 
    117 H117       32.7630  -52.1819  -54.6762 H         1 UNK         0.3079 
    118 H118       31.5692  -51.1312  -52.6109 H         1 UNK         0.0794 
    119 H119       33.6290  -51.3957  -51.1472 H         1 UNK         0.0786 
    120 H120       34.6089  -50.6478  -52.4057 H         1 UNK         0.0786 
    121 H121       33.8382  -52.2050  -52.6874 H         1 UNK         0.0786 
    122 H122       32.6595  -48.4497  -52.5754 H         1 UNK         0.3032 
    123 H123       30.5239  -47.2503  -50.5648 H         1 UNK         0.1094 
    124 H124       31.7016  -46.5307  -48.4721 H         1 UNK         0.0794 
    125 H125       31.1003  -48.1698  -48.3109 H         1 UNK         0.0794 
    126 H126       32.8108  -47.8939  -48.6154 H         1 UNK         0.0794 
    127 H127       33.2962  -47.1493  -51.4866 H         1 UNK         0.3016 
@<TRIPOS>BOND
     1    1    2 1    
     2    1   67 1    
     3    1   68 1    
     4    1   69 1    
     5    2    3 2    
     6    2    4 am   BACKBONE|DICT|INTERRES
     7    4    5 1    
     8    4   70 1    
     9    5    6 1    
    10    5   65 1    
    11    5   71 1    
    12    6    7 1    
    13    6   72 1    
    14    6   73 1    
    15    7    8 1    
    16    8    9 1    
    17    8   74 1    
    18    8   75 1    
    19    9   10 ar   
    20    9   14 ar   
    21   10   11 ar   
    22   10   76 1    
    23   11   12 ar   
    24   11   48 1    
    25   12   13 ar   
    26   12   77 1    
    27   13   14 ar   
    28   13   15 1    
    29   14   78 1    
    30   15   16 1    
    31   15   79 1    
    32   15   80 1    
    33   16   17 1    
    34   17   18 1    
    35   17   81 1    
    36   17   82 1    
    37   18   19 1    
    38   18   22 1    
    39   18   83 1    
    40   19   20 am   BACKBONE|DICT|INTERRES
    41   19   21 2    
    42   20   84 1    
    43   20   85 1    
    44   22   23 am   BACKBONE|DICT|INTERRES
    45   22   86 1    
    46   23   24 2    
    47   23   25 1    
    48   25   26 1    
    49   25   27 1    
    50   25   87 1    
    51   26   88 1    
    52   26   89 1    
    53   26   90 1    
    54   27   28 am   BACKBONE|DICT|INTERRES
    55   27   91 1    
    56   28   29 2    
    57   28   30 1    
    58   30   31 1    
    59   30   32 1    
    60   30   92 1    
    61   31   93 1    
    62   31   94 1    
    63   31   95 1    
    64   32   33 am   BACKBONE|DICT|INTERRES
    65   32   96 1    
    66   33   34 2    
    67   33   35 1    
    68   35   36 1    
    69   35   37 1    
    70   35   97 1    
    71   36   98 1    
    72   36   99 1    
    73   36  100 1    
    74   37   38 am   BACKBONE|DICT|INTERRES
    75   37  101 1    
    76   38   39 2    
    77   38   40 1    
    78   40   41 1    
    79   40   42 1    
    80   40  102 1    
    81   41  103 1    
    82   41  104 1    
    83   41  105 1    
    84   42   43 am   BACKBONE|DICT|INTERRES
    85   42  106 1    
    86   43   44 2    
    87   43   45 1    
    88   45   46 1    
    89   45   49 1    
    90   45  107 1    
    91   46   47 1    
    92   46  108 1    
    93   46  109 1    
    94   47   48 1    
    95   48  110 1    
    96   48  111 1    
    97   49   50 am   BACKBONE|DICT|INTERRES
    98   49  112 1    
    99   50   51 2    
   100   50   52 1    
   101   52   53 1    
   102   52   54 1    
   103   52  113 1    
   104   53  114 1    
   105   53  115 1    
   106   53  116 1    
   107   54   55 am   BACKBONE|DICT|INTERRES
   108   54  117 1    
   109   55   56 2    
   110   55   57 1    
   111   57   58 1    
   112   57   59 1    
   113   57  118 1    
   114   58  119 1    
   115   58  120 1    
   116   58  121 1    
   117   59   60 am   BACKBONE|DICT|INTERRES
   118   59  122 1    
   119   60   61 2    
   120   60   62 1    
   121   62   63 1    
   122   62   64 1    
   123   62  123 1    
   124   63  124 1    
   125   63  125 1    
   126   63  126 1    
   127   64   65 am   BACKBONE|DICT|INTERRES
   128   64  127 1    
   129   65   66 2    
@<TRIPOS>SUBSTRUCTURE
     1 UNK         1 GROUP             0       ****    0 ROOT    
