@<TRIPOS>MOLECULE
3R134
127   129    1
SMALL
USER_CHARGES


@<TRIPOS>ATOM
      1 CA         32.0739  -49.5997  -57.4524 C.3       0 UNK        -0.1968 
      2 C          33.0776  -48.6556  -56.8102 C.2       0 UNK         0.4852 
      3 O          34.2508  -48.6644  -57.1859 O.2       0 UNK        -0.5359 
      4 N          32.6262  -47.8694  -55.8235 N.am      1 UNK        -0.4300 
      5 CA         33.3730  -46.8859  -55.0261 C.3       1 UNK         0.0863 
      6 C6         34.1238  -45.7987  -55.8427 C.3       11 UNK        -0.0953 
      7 S7         33.0581  -44.9074  -57.0245 S.3       11 UNK        -0.2369 
      8 C8         33.0335  -43.2248  -56.3360 C.3       11 UNK         0.0226 
      9 C9         31.8805  -43.0216  -55.3651 C.ar      11 UNK        -0.0699 
     10 C10        32.0599  -43.2067  -53.9897 C.ar      11 UNK        -0.0804 
     11 C11        31.0092  -42.9562  -53.0999 C.ar      11 UNK        -0.0871 
     12 C12        29.7790  -42.5137  -53.5957 C.ar      11 UNK        -0.1008 
     13 C13        29.5841  -42.3417  -54.9680 C.ar      11 UNK        -0.0735 
     14 C14        30.6370  -42.6024  -55.8484 C.ar      11 UNK        -0.0945 
     15 C15        28.2422  -41.8556  -55.4925 C.3       11 UNK         0.0169 
     16 S16        26.9848  -43.1599  -55.3682 S.3       11 UNK        -0.2669 
     17 C17        25.5674  -42.3837  -56.2214 C.3       11 UNK        -0.0850 
     18 CA         25.3432  -42.9190  -57.6619 C.3       10 UNK         0.0855 
     19 C          26.3231  -42.2770  -58.6899 C.2       10 UNK         0.5543 
     20 N          27.1258  -43.0346  -59.4282 N.am      10 UNK        -0.7343 
     21 O          26.3455  -41.0565  -58.8277 O.2       10 UNK        -0.5027 
     22 N          25.2976  -44.3872  -57.6768 N.am      10 UNK        -0.4495 
     23 C          24.7186  -45.1447  -58.6138 C.2       10 UNK         0.4903 
     24 O          24.0377  -44.6929  -59.5359 O.2       10 UNK        -0.4860 
     25 CA         24.9596  -46.6640  -58.4939 C.3       9 UNK         0.0227 
     26 CB         24.6660  -47.4197  -59.8070 C.3       9 UNK        -0.1964 
     27 N          26.3002  -47.0047  -57.9936 N.am      9 UNK        -0.4231 
     28 C          27.4825  -46.6578  -58.5345 C.2       9 UNK         0.5014 
     29 O          27.5915  -45.9528  -59.5385 O.2       9 UNK        -0.5270 
     30 CA         28.7671  -47.1481  -57.8375 C.3       8 UNK         0.0284 
     31 CB         29.5114  -45.9651  -57.1951 C.3       8 UNK        -0.1977 
     32 N          28.5124  -48.1793  -56.8270 N.am      8 UNK        -0.4342 
     33 C          28.2306  -49.4601  -57.1153 C.2       8 UNK         0.5039 
     34 O          28.2614  -49.9185  -58.2575 O.2       8 UNK        -0.5547 
     35 CA         27.8215  -50.3898  -55.9573 C.3       7 UNK         0.0281 
     36 CB         28.9249  -51.4181  -55.6527 C.3       7 UNK        -0.1963 
     37 N          27.4579  -49.6781  -54.7291 N.am      7 UNK        -0.4444 
     38 C          26.3383  -48.9579  -54.5656 C.2       7 UNK         0.5104 
     39 O          25.4847  -48.8140  -55.4413 O.2       7 UNK        -0.5100 
     40 CA         26.1771  -48.2293  -53.2177 C.3       6 UNK         0.0396 
     41 CB         25.4963  -49.1459  -52.1895 C.3       6 UNK        -0.1801 
     42 N          27.4471  -47.7363  -52.6705 N.am      6 UNK        -0.4747 
     43 C          28.2317  -46.8308  -53.2767 C.2       6 UNK         0.5012 
     44 O          27.9458  -46.3075  -54.3504 O.2       6 UNK        -0.5003 
     45 CA         29.6002  -46.5372  -52.6315 C.3       5 UNK         0.0782 
     46 C46        29.5088  -45.4170  -51.5708 C.3       11 UNK        -0.0868 
     47 S47        31.1780  -44.8682  -51.0717 S.3       11 UNK        -0.2515 
     48 C48        31.2057  -43.1241  -51.5988 C.3       11 UNK         0.0199 
     49 N          30.2013  -47.7598  -52.0846 N.am      5 UNK        -0.4607 
     50 C          30.6233  -48.7830  -52.8316 C.2       4 UNK         0.5031 
     51 O          30.5946  -48.7863  -54.0660 O.2       4 UNK        -0.5119 
     52 CA         31.1025  -50.0282  -52.0834 C.3       4 UNK         0.0263 
     53 CB         29.9085  -50.9564  -51.7805 C.3       4 UNK        -0.1967 
     54 N          32.0884  -50.6900  -52.9284 N.am      4 UNK        -0.4237 
     55 C          32.8622  -51.7320  -52.6050 C.2       3 UNK         0.4908 
     56 O          32.8060  -52.3376  -51.5344 O.2       3 UNK        -0.5102 
     57 CA         33.9088  -52.1348  -53.6558 C.3       3 UNK         0.0241 
     58 CB         33.2417  -52.7525  -54.8975 C.3       3 UNK        -0.1971 
     59 N          34.7277  -50.9860  -54.0500 N.am      3 UNK        -0.4139 
     60 C          35.6429  -50.3991  -53.2634 C.2       2 UNK         0.5016 
     61 O          35.9822  -50.8282  -52.1602 O.2       2 UNK        -0.5319 
     62 CA         36.2740  -49.1012  -53.7918 C.3       2 UNK         0.0286 
     63 CB         37.5011  -49.4078  -54.6651 C.3       2 UNK        -0.1963 
     64 N          35.3213  -48.2948  -54.5575 N.am      2 UNK        -0.4790 
     65 C          34.3135  -47.5872  -54.0294 C.2       1 UNK         0.5024 
     66 O          34.0981  -47.4986  -52.8210 O.2       1 UNK        -0.4888 
     67 H67        31.1716  -49.6937  -56.8512 H         1 UNK         0.0892 
     68 H68        31.7898  -49.2306  -58.4374 H         1 UNK         0.0892 
     69 H69        32.5063  -50.5927  -57.5710 H         1 UNK         0.0892 
     70 H70        31.6753  -48.0138  -55.4961 H         1 UNK         0.3107 
     71 H71        32.6194  -46.3706  -54.4276 H         1 UNK         0.0773 
     72 H72        34.5897  -45.0829  -55.1638 H         1 UNK         0.0680 
     73 H73        34.9439  -46.2340  -56.4153 H         1 UNK         0.0680 
     74 H74        32.9367  -42.5206  -57.1637 H         1 UNK         0.0650 
     75 H75        33.9864  -42.9891  -55.8605 H         1 UNK         0.0650 
     76 H76        33.0187  -43.5320  -53.6098 H         1 UNK         0.1397 
     77 H77        28.9641  -42.3058  -52.9156 H         1 UNK         0.1363 
     78 H78        30.4948  -42.4648  -56.9117 H         1 UNK         0.1355 
     79 H79        27.9193  -40.9832  -54.9226 H         1 UNK         0.0707 
     80 H80        28.3315  -41.5346  -56.5314 H         1 UNK         0.0707 
     81 H81        24.6786  -42.5933  -55.6244 H         1 UNK         0.1034 
     82 H82        25.6665  -41.2964  -56.2105 H         1 UNK         0.1034 
     83 H83        24.3549  -42.5717  -57.9693 H         1 UNK         0.0482 
     84 H84        27.1224  -44.0462  -59.3495 H         1 UNK         0.3460 
     85 H85        27.7429  -42.5913  -60.0889 H         1 UNK         0.3460 
     86 H86        25.8544  -44.8378  -56.9643 H         1 UNK         0.2989 
     87 H87        24.2561  -47.0239  -57.7417 H         1 UNK         0.0559 
     88 H88        23.6303  -47.2786  -60.1183 H         1 UNK         0.0848 
     89 H89        24.8245  -48.4919  -59.6914 H         1 UNK         0.0848 
     90 H90        25.3009  -47.0730  -60.6231 H         1 UNK         0.0848 
     91 H91        26.3131  -47.5717  -57.1540 H         1 UNK         0.3144 
     92 H92        29.4162  -47.5748  -58.6051 H         1 UNK         0.0727 
     93 H93        28.8631  -45.3749  -56.5477 H         1 UNK         0.0790 
     94 H94        29.8933  -45.2877  -57.9598 H         1 UNK         0.0790 
     95 H95        30.3632  -46.2958  -56.6027 H         1 UNK         0.0790 
     96 H96        28.4540  -47.8643  -55.8658 H         1 UNK         0.3215 
     97 H97        26.9405  -50.9396  -56.2963 H         1 UNK         0.0863 
     98 H98        28.5873  -52.1558  -54.9248 H         1 UNK         0.0808 
     99 H99        29.8273  -50.9506  -55.2622 H         1 UNK         0.0808 
    100 H100       29.2082  -51.9650  -56.5531 H         1 UNK         0.0808 
    101 H101       28.1309  -49.6952  -53.9776 H         1 UNK         0.3118 
    102 H102       25.5305  -47.3654  -53.3859 H         1 UNK         0.0546 
    103 H103       26.1069  -50.0191  -51.9561 H         1 UNK         0.0828 
    104 H104       24.5390  -49.5096  -52.5658 H         1 UNK         0.0828 
    105 H105       25.2948  -48.6172  -51.2577 H         1 UNK         0.0828 
    106 H106       27.7524  -48.1286  -51.7916 H         1 UNK         0.3005 
    107 H107       30.2432  -46.1788  -53.4399 H         1 UNK         0.1257 
    108 H108       28.9753  -45.7642  -50.6842 H         1 UNK         0.0775 
    109 H109       28.9386  -44.5674  -51.9478 H         1 UNK         0.0775 
    110 H110       30.4434  -42.5731  -51.0456 H         1 UNK         0.0840 
    111 H111       32.1619  -42.6857  -51.3093 H         1 UNK         0.0840 
    112 H112       30.2781  -47.8111  -51.0789 H         1 UNK         0.2987 
    113 H113       31.5869  -49.7236  -51.1534 H         1 UNK         0.0785 
    114 H114       29.1351  -50.4344  -51.2158 H         1 UNK         0.0798 
    115 H115       30.2096  -51.8153  -51.1812 H         1 UNK         0.0798 
    116 H116       29.4495  -51.3356  -52.6932 H         1 UNK         0.0798 
    117 H117       32.1978  -50.2504  -53.8320 H         1 UNK         0.3079 
    118 H118       34.5627  -52.8877  -53.2101 H         1 UNK         0.0794 
    119 H119       33.9862  -53.0973  -55.6155 H         1 UNK         0.0786 
    120 H120       32.5863  -52.0467  -55.4087 H         1 UNK         0.0786 
    121 H121       32.6357  -53.6169  -54.6223 H         1 UNK         0.0786 
    122 H122       34.5434  -50.5711  -54.9512 H         1 UNK         0.3032 
    123 H123       36.6032  -48.5190  -52.9277 H         1 UNK         0.1094 
    124 H124       37.2324  -49.9724  -55.5589 H         1 UNK         0.0794 
    125 H125       37.9984  -48.4917  -54.9842 H         1 UNK         0.0794 
    126 H126       38.2344  -49.9981  -54.1137 H         1 UNK         0.0794 
    127 H127       35.3619  -48.3544  -55.5717 H         1 UNK         0.3016 
@<TRIPOS>BOND
     1    1    2 1    
     2    1   67 1    
     3    1   68 1    
     4    1   69 1    
     5    2    3 2    
     6    2    4 am   BACKBONE|DICT|INTERRES
     7    4    5 1    
     8    4   70 1    
     9    5    6 1    
    10    5   65 1    
    11    5   71 1    
    12    6    7 1    
    13    6   72 1    
    14    6   73 1    
    15    7    8 1    
    16    8    9 1    
    17    8   74 1    
    18    8   75 1    
    19    9   10 ar   
    20    9   14 ar   
    21   10   11 ar   
    22   10   76 1    
    23   11   12 ar   
    24   11   48 1    
    25   12   13 ar   
    26   12   77 1    
    27   13   14 ar   
    28   13   15 1    
    29   14   78 1    
    30   15   16 1    
    31   15   79 1    
    32   15   80 1    
    33   16   17 1    
    34   17   18 1    
    35   17   81 1    
    36   17   82 1    
    37   18   19 1    
    38   18   22 1    
    39   18   83 1    
    40   19   20 am   BACKBONE|DICT|INTERRES
    41   19   21 2    
    42   20   84 1    
    43   20   85 1    
    44   22   23 am   BACKBONE|DICT|INTERRES
    45   22   86 1    
    46   23   24 2    
    47   23   25 1    
    48   25   26 1    
    49   25   27 1    
    50   25   87 1    
    51   26   88 1    
    52   26   89 1    
    53   26   90 1    
    54   27   28 am   BACKBONE|DICT|INTERRES
    55   27   91 1    
    56   28   29 2    
    57   28   30 1    
    58   30   31 1    
    59   30   32 1    
    60   30   92 1    
    61   31   93 1    
    62   31   94 1    
    63   31   95 1    
    64   32   33 am   BACKBONE|DICT|INTERRES
    65   32   96 1    
    66   33   34 2    
    67   33   35 1    
    68   35   36 1    
    69   35   37 1    
    70   35   97 1    
    71   36   98 1    
    72   36   99 1    
    73   36  100 1    
    74   37   38 am   BACKBONE|DICT|INTERRES
    75   37  101 1    
    76   38   39 2    
    77   38   40 1    
    78   40   41 1    
    79   40   42 1    
    80   40  102 1    
    81   41  103 1    
    82   41  104 1    
    83   41  105 1    
    84   42   43 am   BACKBONE|DICT|INTERRES
    85   42  106 1    
    86   43   44 2    
    87   43   45 1    
    88   45   46 1    
    89   45   49 1    
    90   45  107 1    
    91   46   47 1    
    92   46  108 1    
    93   46  109 1    
    94   47   48 1    
    95   48  110 1    
    96   48  111 1    
    97   49   50 am   BACKBONE|DICT|INTERRES
    98   49  112 1    
    99   50   51 2    
   100   50   52 1    
   101   52   53 1    
   102   52   54 1    
   103   52  113 1    
   104   53  114 1    
   105   53  115 1    
   106   53  116 1    
   107   54   55 am   BACKBONE|DICT|INTERRES
   108   54  117 1    
   109   55   56 2    
   110   55   57 1    
   111   57   58 1    
   112   57   59 1    
   113   57  118 1    
   114   58  119 1    
   115   58  120 1    
   116   58  121 1    
   117   59   60 am   BACKBONE|DICT|INTERRES
   118   59  122 1    
   119   60   61 2    
   120   60   62 1    
   121   62   63 1    
   122   62   64 1    
   123   62  123 1    
   124   63  124 1    
   125   63  125 1    
   126   63  126 1    
   127   64   65 am   BACKBONE|DICT|INTERRES
   128   64  127 1    
   129   65   66 2    
@<TRIPOS>SUBSTRUCTURE
     1 UNK         1 GROUP             0       ****    0 ROOT    
