@<TRIPOS>MOLECULE
3R134
127   129    1
SMALL
USER_CHARGES


@<TRIPOS>ATOM
      1 CA         33.5189  -45.1450  -47.2060 C.3       0 UNK        -0.1968 
      2 C          34.1401  -45.6167  -48.5127 C.2       0 UNK         0.4852 
      3 O          35.1739  -46.2874  -48.4911 O.2       0 UNK        -0.5359 
      4 N          33.5239  -45.2625  -49.6472 N.am      1 UNK        -0.4300 
      5 CA         33.9240  -45.6823  -50.9932 C.3       1 UNK         0.0863 
      6 C6         33.3562  -44.7534  -52.0996 C.3       11 UNK        -0.0953 
      7 S7         31.6112  -44.2455  -51.8822 S.3       11 UNK        -0.2369 
      8 C8         31.6698  -42.4967  -52.4086 C.3       11 UNK         0.0226 
      9 C9         31.5162  -42.3529  -53.9180 C.ar      11 UNK        -0.0699 
     10 C10        32.5131  -42.8205  -54.7789 C.ar      11 UNK        -0.0804 
     11 C11        32.3337  -42.7809  -56.1636 C.ar      11 UNK        -0.0871 
     12 C12        31.1869  -42.1855  -56.6940 C.ar      11 UNK        -0.1008 
     13 C13        30.1872  -41.7028  -55.8449 C.ar      11 UNK        -0.0735 
     14 C14        30.3564  -41.7888  -54.4591 C.ar      11 UNK        -0.0945 
     15 C15        28.8975  -41.1425  -56.4226 C.3       11 UNK         0.0169 
     16 S16        27.6174  -42.4330  -56.5406 S.3       11 UNK        -0.2669 
     17 C17        28.2738  -43.4775  -57.8886 C.3       11 UNK        -0.0850 
     18 CA         27.1546  -44.2673  -58.6168 C.3       10 UNK         0.0855 
     19 C          27.6588  -44.9314  -59.9331 C.2       10 UNK         0.5543 
     20 N          27.2741  -46.1609  -60.2561 N.am      10 UNK        -0.7343 
     21 O          28.4023  -44.3136  -60.6910 O.2       10 UNK        -0.5027 
     22 N          26.4987  -45.2182  -57.7071 N.am      10 UNK        -0.4495 
     23 C          25.1842  -45.4525  -57.6482 C.2       10 UNK         0.4903 
     24 O          24.3428  -44.8367  -58.3053 O.2       10 UNK        -0.4860 
     25 CA         24.7537  -46.5951  -56.7085 C.3       9 UNK         0.0227 
     26 CB         23.2525  -46.9358  -56.8182 C.3       9 UNK        -0.1964 
     27 N          25.5706  -47.8033  -56.8794 N.am      9 UNK        -0.4231 
     28 C          25.7521  -48.5177  -58.0030 C.2       9 UNK         0.5014 
     29 O          25.2484  -48.2221  -59.0873 O.2       9 UNK        -0.5270 
     30 CA         26.6752  -49.7527  -57.9365 C.3       8 UNK         0.0284 
     31 CB         27.9385  -49.5179  -58.7789 C.3       8 UNK        -0.1977 
     32 N          27.0811  -50.1229  -56.5799 N.am      8 UNK        -0.4342 
     33 C          26.2787  -50.6417  -55.6409 C.2       8 UNK         0.5039 
     34 O          25.1099  -50.9729  -55.8401 O.2       8 UNK        -0.5547 
     35 CA         26.8696  -50.7564  -54.2276 C.3       7 UNK         0.0281 
     36 CB         27.4616  -52.1552  -53.9912 C.3       7 UNK        -0.1963 
     37 N          27.8872  -49.7274  -53.9808 N.am      7 UNK        -0.4444 
     38 C          27.6037  -48.4464  -53.7091 C.2       7 UNK         0.5104 
     39 O          26.4577  -48.0026  -53.6373 O.2       7 UNK        -0.5100 
     40 CA         28.7942  -47.4979  -53.5016 C.3       6 UNK         0.0396 
     41 CB         29.4986  -47.7823  -52.1653 C.3       6 UNK        -0.1801 
     42 N          29.7747  -47.5220  -54.5894 N.am      6 UNK        -0.4747 
     43 C          29.5436  -47.0764  -55.8339 C.2       6 UNK         0.5012 
     44 O          28.4305  -46.7510  -56.2477 O.2       6 UNK        -0.5003 
     45 CA         30.7588  -46.9355  -56.7684 C.3       5 UNK         0.0782 
     46 C46        31.6287  -45.7278  -56.3468 C.3       11 UNK        -0.0868 
     47 S47        32.6137  -45.0646  -57.7389 S.3       11 UNK        -0.2515 
     48 C48        33.3139  -43.5067  -57.0732 C.3       11 UNK         0.0199 
     49 N          31.5171  -48.1834  -56.7710 N.am      5 UNK        -0.4607 
     50 C          31.6032  -49.0211  -57.8112 C.2       4 UNK         0.5031 
     51 O          31.1938  -48.7568  -58.9412 O.2       4 UNK        -0.5119 
     52 CA         32.2325  -50.4057  -57.5568 C.3       4 UNK         0.0263 
     53 CB         33.6858  -50.4315  -58.0576 C.3       4 UNK        -0.1967 
     54 N          32.2030  -50.8414  -56.1563 N.am      4 UNK        -0.4237 
     55 C          31.1035  -50.9832  -55.4015 C.2       3 UNK         0.4908 
     56 O          29.9567  -50.7965  -55.8089 O.2       3 UNK        -0.5102 
     57 CA         31.3191  -51.3158  -53.9145 C.3       3 UNK         0.0241 
     58 CB         31.3048  -52.8377  -53.7011 C.3       3 UNK        -0.1971 
     59 N          32.5426  -50.7545  -53.3270 N.am      3 UNK        -0.4139 
     60 C          32.9157  -49.4660  -53.3448 C.2       2 UNK         0.5016 
     61 O          32.2992  -48.5738  -53.9355 O.2       2 UNK        -0.5319 
     62 CA         34.2427  -49.1478  -52.6381 C.3       2 UNK         0.0286 
     63 CB         35.4240  -49.4670  -53.5699 C.3       2 UNK        -0.1963 
     64 N          34.3435  -47.7487  -52.2195 N.am      2 UNK        -0.4790 
     65 C          33.6087  -47.1699  -51.2597 C.2       1 UNK         0.5024 
     66 O          32.7423  -47.7577  -50.6064 O.2       1 UNK        -0.4888 
     67 H67        34.2306  -44.5351  -46.6503 H         1 UNK         0.0892 
     68 H68        32.6208  -44.5503  -47.3728 H         1 UNK         0.0892 
     69 H69        33.2482  -46.0015  -46.5892 H         1 UNK         0.0892 
     70 H70        32.6609  -44.7385  -49.6082 H         1 UNK         0.3107 
     71 H71        35.0123  -45.5946  -51.0366 H         1 UNK         0.0773 
     72 H72        33.4621  -45.2061  -53.0873 H         1 UNK         0.0680 
     73 H73        33.9738  -43.8551  -52.1261 H         1 UNK         0.0680 
     74 H74        30.8670  -41.9637  -51.8971 H         1 UNK         0.0650 
     75 H75        32.5972  -42.0261  -52.0805 H         1 UNK         0.0650 
     76 H76        33.4029  -43.2774  -54.3738 H         1 UNK         0.1397 
     77 H77        31.0435  -42.1641  -57.7656 H         1 UNK         0.1363 
     78 H78        29.5703  -41.4393  -53.8037 H         1 UNK         0.1355 
     79 H79        28.5286  -40.3362  -55.7869 H         1 UNK         0.0707 
     80 H80        29.0726  -40.7001  -57.4046 H         1 UNK         0.0707 
     81 H81        28.7981  -42.8291  -58.5925 H         1 UNK         0.1034 
     82 H82        29.0236  -44.1574  -57.4808 H         1 UNK         0.1034 
     83 H83        26.4178  -43.5330  -58.9470 H         1 UNK         0.0482 
     84 H84        26.6097  -46.6670  -59.6854 H         1 UNK         0.3460 
     85 H85        27.6065  -46.5655  -61.1165 H         1 UNK         0.3460 
     86 H86        27.1244  -45.7913  -57.1443 H         1 UNK         0.2989 
     87 H87        24.9401  -46.2432  -55.6927 H         1 UNK         0.0559 
     88 H88        22.9843  -47.2653  -57.8226 H         1 UNK         0.0848 
     89 H89        22.6364  -46.0665  -56.5857 H         1 UNK         0.0848 
     90 H90        22.9738  -47.7258  -56.1209 H         1 UNK         0.0848 
     91 H91        26.0765  -48.0977  -56.0544 H         1 UNK         0.3144 
     92 H92        26.1261  -50.5933  -58.3653 H         1 UNK         0.0727 
     93 H93        28.4935  -48.6461  -58.4314 H         1 UNK         0.0790 
     94 H94        27.6858  -49.3434  -59.8255 H         1 UNK         0.0790 
     95 H95        28.6085  -50.3775  -58.7473 H         1 UNK         0.0790 
     96 H96        28.0524  -49.9664  -56.3340 H         1 UNK         0.3215 
     97 H97        26.0547  -50.6125  -53.5142 H         1 UNK         0.0863 
     98 H98        27.9248  -52.2338  -53.0076 H         1 UNK         0.0808 
     99 H99        28.2088  -52.4143  -54.7406 H         1 UNK         0.0808 
    100 H100       26.6813  -52.9156  -54.0432 H         1 UNK         0.0808 
    101 H101       28.8501  -49.9905  -54.1392 H         1 UNK         0.3118 
    102 H102       28.3948  -46.4825  -53.4506 H         1 UNK         0.0546 
    103 H103       30.2767  -47.0457  -51.9648 H         1 UNK         0.0828 
    104 H104       29.9665  -48.7666  -52.1486 H         1 UNK         0.0828 
    105 H105       28.7939  -47.7409  -51.3338 H         1 UNK         0.0828 
    106 H106       30.7224  -47.7938  -54.3313 H         1 UNK         0.3005 
    107 H107       30.3513  -46.7353  -57.7626 H         1 UNK         0.1257 
    108 H108       30.9801  -44.9311  -55.9812 H         1 UNK         0.0775 
    109 H109       32.2921  -45.9827  -55.5178 H         1 UNK         0.0775 
    110 H110       34.2360  -43.7379  -56.5376 H         1 UNK         0.0840 
    111 H111       33.5973  -42.8571  -57.9025 H         1 UNK         0.0840 
    112 H112       31.8874  -48.4785  -55.8735 H         1 UNK         0.2987 
    113 H113       31.6546  -51.1301  -58.1345 H         1 UNK         0.0785 
    114 H114       34.3181  -49.7435  -57.4947 H         1 UNK         0.0798 
    115 H115       33.7421  -50.1400  -59.1075 H         1 UNK         0.0798 
    116 H116       34.1173  -51.4294  -57.9779 H         1 UNK         0.0798 
    117 H117       33.0974  -51.0079  -55.7196 H         1 UNK         0.3079 
    118 H118       30.4802  -50.8915  -53.3618 H         1 UNK         0.0794 
    119 H119       32.1616  -53.3201  -54.1733 H         1 UNK         0.0786 
    120 H120       30.4064  -53.2881  -54.1249 H         1 UNK         0.0786 
    121 H121       31.3192  -53.0904  -52.6407 H         1 UNK         0.0786 
    122 H122       33.1322  -51.4113  -52.8355 H         1 UNK         0.3032 
    123 H123       34.3153  -49.7704  -51.7433 H         1 UNK         0.1094 
    124 H124       36.3793  -49.2798  -53.0788 H         1 UNK         0.0794 
    125 H125       35.4205  -50.5158  -53.8699 H         1 UNK         0.0794 
    126 H126       35.3922  -48.8679  -54.4814 H         1 UNK         0.0794 
    127 H127       35.0085  -47.1823  -52.7256 H         1 UNK         0.3016 
@<TRIPOS>BOND
     1    1    2 1    
     2    1   67 1    
     3    1   68 1    
     4    1   69 1    
     5    2    3 2    
     6    2    4 am   BACKBONE|DICT|INTERRES
     7    4    5 1    
     8    4   70 1    
     9    5    6 1    
    10    5   65 1    
    11    5   71 1    
    12    6    7 1    
    13    6   72 1    
    14    6   73 1    
    15    7    8 1    
    16    8    9 1    
    17    8   74 1    
    18    8   75 1    
    19    9   10 ar   
    20    9   14 ar   
    21   10   11 ar   
    22   10   76 1    
    23   11   12 ar   
    24   11   48 1    
    25   12   13 ar   
    26   12   77 1    
    27   13   14 ar   
    28   13   15 1    
    29   14   78 1    
    30   15   16 1    
    31   15   79 1    
    32   15   80 1    
    33   16   17 1    
    34   17   18 1    
    35   17   81 1    
    36   17   82 1    
    37   18   19 1    
    38   18   22 1    
    39   18   83 1    
    40   19   20 am   BACKBONE|DICT|INTERRES
    41   19   21 2    
    42   20   84 1    
    43   20   85 1    
    44   22   23 am   BACKBONE|DICT|INTERRES
    45   22   86 1    
    46   23   24 2    
    47   23   25 1    
    48   25   26 1    
    49   25   27 1    
    50   25   87 1    
    51   26   88 1    
    52   26   89 1    
    53   26   90 1    
    54   27   28 am   BACKBONE|DICT|INTERRES
    55   27   91 1    
    56   28   29 2    
    57   28   30 1    
    58   30   31 1    
    59   30   32 1    
    60   30   92 1    
    61   31   93 1    
    62   31   94 1    
    63   31   95 1    
    64   32   33 am   BACKBONE|DICT|INTERRES
    65   32   96 1    
    66   33   34 2    
    67   33   35 1    
    68   35   36 1    
    69   35   37 1    
    70   35   97 1    
    71   36   98 1    
    72   36   99 1    
    73   36  100 1    
    74   37   38 am   BACKBONE|DICT|INTERRES
    75   37  101 1    
    76   38   39 2    
    77   38   40 1    
    78   40   41 1    
    79   40   42 1    
    80   40  102 1    
    81   41  103 1    
    82   41  104 1    
    83   41  105 1    
    84   42   43 am   BACKBONE|DICT|INTERRES
    85   42  106 1    
    86   43   44 2    
    87   43   45 1    
    88   45   46 1    
    89   45   49 1    
    90   45  107 1    
    91   46   47 1    
    92   46  108 1    
    93   46  109 1    
    94   47   48 1    
    95   48  110 1    
    96   48  111 1    
    97   49   50 am   BACKBONE|DICT|INTERRES
    98   49  112 1    
    99   50   51 2    
   100   50   52 1    
   101   52   53 1    
   102   52   54 1    
   103   52  113 1    
   104   53  114 1    
   105   53  115 1    
   106   53  116 1    
   107   54   55 am   BACKBONE|DICT|INTERRES
   108   54  117 1    
   109   55   56 2    
   110   55   57 1    
   111   57   58 1    
   112   57   59 1    
   113   57  118 1    
   114   58  119 1    
   115   58  120 1    
   116   58  121 1    
   117   59   60 am   BACKBONE|DICT|INTERRES
   118   59  122 1    
   119   60   61 2    
   120   60   62 1    
   121   62   63 1    
   122   62   64 1    
   123   62  123 1    
   124   63  124 1    
   125   63  125 1    
   126   63  126 1    
   127   64   65 am   BACKBONE|DICT|INTERRES
   128   64  127 1    
   129   65   66 2    
@<TRIPOS>SUBSTRUCTURE
     1 UNK         1 GROUP             0       ****    0 ROOT    
