@<TRIPOS>MOLECULE
3R134
127   129    1
SMALL
USER_CHARGES


@<TRIPOS>ATOM
      1 CA         35.4527  -42.6365  -50.7859 C.3       0 UNK        -0.1968 
      2 C          36.0026  -43.8647  -51.4965 C.2       0 UNK         0.4852 
      3 O          36.7706  -44.6235  -50.9025 O.2       0 UNK        -0.5359 
      4 N          35.6197  -44.0579  -52.7651 N.am      1 UNK        -0.4300 
      5 CA         35.9572  -45.2251  -53.5846 C.3       1 UNK         0.0863 
      6 C6         35.7399  -44.9350  -55.0958 C.3       11 UNK        -0.0953 
      7 S7         34.0050  -44.8401  -55.6619 S.3       11 UNK        -0.2369 
      8 C8         33.5301  -43.1167  -55.3091 C.3       11 UNK         0.0226 
      9 C9         32.1991  -43.0612  -54.5689 C.ar      11 UNK        -0.0699 
     10 C10        32.0726  -43.6606  -53.3125 C.ar      11 UNK        -0.0804 
     11 C11        30.8521  -43.6549  -52.6360 C.ar      11 UNK        -0.0871 
     12 C12        29.7519  -43.0149  -53.2071 C.ar      11 UNK        -0.1008 
     13 C13        29.8612  -42.4109  -54.4624 C.ar      11 UNK        -0.0735 
     14 C14        31.0865  -42.4333  -55.1395 C.ar      11 UNK        -0.0945 
     15 C15        28.6379  -41.7641  -55.0899 C.3       11 UNK         0.0169 
     16 S16        27.4958  -43.0261  -55.7322 S.3       11 UNK        -0.2669 
     17 C17        28.4486  -43.6674  -57.1505 C.3       11 UNK        -0.0850 
     18 CA         27.5169  -44.2232  -58.2578 C.3       10 UNK         0.0855 
     19 C          28.2652  -44.4410  -59.6069 C.2       10 UNK         0.5543 
     20 N          28.0354  -45.5239  -60.3395 N.am      10 UNK        -0.7343 
     21 O          29.0608  -43.5982  -60.0143 O.2       10 UNK        -0.5027 
     22 N          26.7983  -45.4173  -57.7878 N.am      10 UNK        -0.4495 
     23 C          25.5090  -45.6874  -58.0192 C.2       10 UNK         0.4903 
     24 O          24.7361  -44.9177  -58.5929 O.2       10 UNK        -0.4860 
     25 CA         25.0189  -47.0758  -57.5559 C.3       9 UNK         0.0227 
     26 CB         23.6129  -47.4270  -58.0849 C.3       9 UNK        -0.1964 
     27 N          25.9688  -48.1492  -57.8778 N.am      9 UNK        -0.4231 
     28 C          26.4876  -48.4474  -59.0809 C.2       9 UNK         0.5014 
     29 O          26.1844  -47.8630  -60.1214 O.2       9 UNK        -0.5270 
     30 CA         27.5633  -49.5449  -59.1426 C.3       8 UNK         0.0284 
     31 CB         28.9198  -48.9369  -59.5397 C.3       8 UNK        -0.1977 
     32 N          27.7109  -50.2461  -57.8648 N.am      8 UNK        -0.4342 
     33 C          27.2387  -51.4723  -57.6092 C.2       8 UNK         0.5039 
     34 O          26.6664  -52.1818  -58.4372 O.2       8 UNK        -0.5547 
     35 CA         27.4260  -51.9876  -56.1741 C.3       7 UNK         0.0281 
     36 CB         28.8155  -52.6246  -56.0091 C.3       7 UNK        -0.1963 
     37 N          27.2286  -50.9437  -55.1602 N.am      7 UNK        -0.4444 
     38 C          26.0322  -50.4046  -54.8728 C.2       7 UNK         0.5104 
     39 O          24.9979  -50.6940  -55.4734 O.2       7 UNK        -0.5100 
     40 CA         25.9548  -49.3676  -53.7443 C.3       6 UNK         0.0396 
     41 CB         25.7531  -50.0633  -52.3885 C.3       6 UNK        -0.1801 
     42 N          27.1451  -48.5208  -53.6812 N.am      6 UNK        -0.4747 
     43 C          27.1367  -47.1784  -53.6540 C.2       6 UNK         0.5012 
     44 O          26.1187  -46.4888  -53.7175 O.2       6 UNK        -0.5003 
     45 CA         28.5148  -46.4969  -53.5083 C.3       5 UNK         0.0782 
     46 C46        28.8605  -46.4145  -51.9903 C.3       11 UNK        -0.0868 
     47 S47        30.6218  -46.1748  -51.5700 S.3       11 UNK        -0.2515 
     48 C48        30.7266  -44.3784  -51.3079 C.3       11 UNK         0.0199 
     49 N          29.5554  -47.1684  -54.2935 N.am      5 UNK        -0.4607 
     50 C          29.5065  -47.4926  -55.5931 C.2       4 UNK         0.5031 
     51 O          28.5853  -47.1866  -56.3515 O.2       4 UNK        -0.5119 
     52 CA         30.6477  -48.3675  -56.1387 C.3       4 UNK         0.0263 
     53 CB         31.6081  -47.5203  -56.9822 C.3       4 UNK        -0.1967 
     54 N          31.4138  -49.1112  -55.1313 N.am      4 UNK        -0.4237 
     55 C          30.9322  -49.9751  -54.2286 C.2       3 UNK         0.4908 
     56 O          29.7269  -50.1794  -54.0591 O.2       3 UNK        -0.5102 
     57 CA         31.9469  -50.7553  -53.3718 C.3       3 UNK         0.0241 
     58 CB         32.3563  -52.0556  -54.0893 C.3       3 UNK        -0.1971 
     59 N          33.1379  -50.0194  -52.9087 N.am      3 UNK        -0.4139 
     60 C          34.1281  -49.4546  -53.6173 C.2       2 UNK         0.5016 
     61 O          34.1451  -49.3675  -54.8474 O.2       2 UNK        -0.5319 
     62 CA         35.3377  -48.9538  -52.8101 C.3       2 UNK         0.0286 
     63 CB         36.4733  -49.9893  -52.8574 C.3       2 UNK        -0.1963 
     64 N          35.8429  -47.6686  -53.2998 N.am      2 UNK        -0.4790 
     65 C          35.2344  -46.4971  -53.0763 C.2       1 UNK         0.5024 
     66 O          34.1634  -46.4009  -52.4722 O.2       1 UNK        -0.4888 
     67 H67        36.2691  -41.9853  -50.4748 H         1 UNK         0.0892 
     68 H68        34.7829  -42.0600  -51.4241 H         1 UNK         0.0892 
     69 H69        34.8974  -42.9359  -49.8973 H         1 UNK         0.0892 
     70 H70        34.9791  -43.4063  -53.1899 H         1 UNK         0.3107 
     71 H71        37.0272  -45.3972  -53.4474 H         1 UNK         0.0773 
     72 H72        36.2553  -44.0163  -55.3806 H         1 UNK         0.0680 
     73 H73        36.2188  -45.7220  -55.6808 H         1 UNK         0.0680 
     74 H74        34.2939  -42.6131  -54.7176 H         1 UNK         0.0650 
     75 H75        33.4716  -42.5747  -56.2541 H         1 UNK         0.0650 
     76 H76        32.9127  -44.1761  -52.8723 H         1 UNK         0.1397 
     77 H77        28.8004  -43.0134  -52.6928 H         1 UNK         0.1363 
     78 H78        31.1689  -41.9751  -56.1155 H         1 UNK         0.1355 
     79 H79        28.1185  -41.1653  -54.3402 H         1 UNK         0.0707 
     80 H80        28.9211  -41.0761  -55.8881 H         1 UNK         0.0707 
     81 H81        29.0646  -42.8547  -57.5393 H         1 UNK         0.1034 
     82 H82        29.1418  -44.4349  -56.8010 H         1 UNK         0.1034 
     83 H83        26.7889  -43.4406  -58.4787 H         1 UNK         0.0482 
     84 H84        28.5254  -45.6324  -61.2126 H         1 UNK         0.3460 
     85 H85        27.3396  -46.2081  -60.0669 H         1 UNK         0.3460 
     86 H86        27.3694  -46.1107  -57.3099 H         1 UNK         0.2989 
     87 H87        24.9632  -47.0316  -56.4670 H         1 UNK         0.0559 
     88 H88        22.8773  -46.6891  -57.7624 H         1 UNK         0.0848 
     89 H89        23.2814  -48.3969  -57.7140 H         1 UNK         0.0848 
     90 H90        23.5877  -47.4577  -59.1748 H         1 UNK         0.0848 
     91 H91        26.2965  -48.6836  -57.0884 H         1 UNK         0.3144 
     92 H92        27.2664  -50.2452  -59.9261 H         1 UNK         0.0727 
     93 H93        29.2119  -48.1263  -58.8724 H         1 UNK         0.0790 
     94 H94        28.8779  -48.5217  -60.5475 H         1 UNK         0.0790 
     95 H95        29.7124  -49.6853  -59.5328 H         1 UNK         0.0790 
     96 H96        28.1699  -49.7449  -57.1188 H         1 UNK         0.3215 
     97 H97        26.6782  -52.7654  -56.0024 H         1 UNK         0.0863 
     98 H98        28.9589  -53.0100  -54.9995 H         1 UNK         0.0808 
     99 H99        29.6163  -51.9141  -56.2156 H         1 UNK         0.0808 
    100 H100       28.9420  -53.4622  -56.6964 H         1 UNK         0.0808 
    101 H101       28.0532  -50.6725  -54.6287 H         1 UNK         0.3118 
    102 H102       25.0716  -48.7567  -53.9430 H         1 UNK         0.0546 
    103 H103       26.6073  -50.6873  -52.1228 H         1 UNK         0.0828 
    104 H104       24.8711  -50.7052  -52.4050 H         1 UNK         0.0828 
    105 H105       25.6084  -49.3362  -51.5894 H         1 UNK         0.0828 
    106 H106       28.0438  -48.9902  -53.6450 H         1 UNK         0.3005 
    107 H107       28.4261  -45.4850  -53.9086 H         1 UNK         0.1257 
    108 H108       28.2652  -45.6315  -51.5175 H         1 UNK         0.0775 
    109 H109       28.5774  -47.3382  -51.4801 H         1 UNK         0.0775 
    110 H110       29.8644  -44.0246  -50.7408 H         1 UNK         0.0840 
    111 H111       31.6037  -44.1636  -50.6955 H         1 UNK         0.0840 
    112 H112       30.3713  -47.4476  -53.7680 H         1 UNK         0.2987 
    113 H113       30.1941  -49.1123  -56.7929 H         1 UNK         0.0785 
    114 H114       31.0774  -46.9712  -57.7613 H         1 UNK         0.0798 
    115 H115       32.3611  -48.1372  -57.4729 H         1 UNK         0.0798 
    116 H116       32.1234  -46.7887  -56.3639 H         1 UNK         0.0798 
    117 H117       32.4301  -49.0416  -55.1864 H         1 UNK         0.3079 
    118 H118       31.4132  -51.0410  -52.4639 H         1 UNK         0.0794 
    119 H119       32.9902  -52.6755  -53.4552 H         1 UNK         0.0786 
    120 H120       32.9003  -51.8564  -55.0134 H         1 UNK         0.0786 
    121 H121       31.4808  -52.6516  -54.3501 H         1 UNK         0.0786 
    122 H122       33.2291  -49.9887  -51.9023 H         1 UNK         0.3032 
    123 H123       35.0374  -48.8251  -51.7671 H         1 UNK         0.1094 
    124 H124       36.8302  -50.1509  -53.8756 H         1 UNK         0.0794 
    125 H125       37.3223  -49.6775  -52.2486 H         1 UNK         0.0794 
    126 H126       36.1389  -50.9544  -52.4738 H         1 UNK         0.0794 
    127 H127       36.6958  -47.6905  -53.8402 H         1 UNK         0.3016 
@<TRIPOS>BOND
     1    1    2 1    
     2    1   67 1    
     3    1   68 1    
     4    1   69 1    
     5    2    3 2    
     6    2    4 am   BACKBONE|DICT|INTERRES
     7    4    5 1    
     8    4   70 1    
     9    5    6 1    
    10    5   65 1    
    11    5   71 1    
    12    6    7 1    
    13    6   72 1    
    14    6   73 1    
    15    7    8 1    
    16    8    9 1    
    17    8   74 1    
    18    8   75 1    
    19    9   10 ar   
    20    9   14 ar   
    21   10   11 ar   
    22   10   76 1    
    23   11   12 ar   
    24   11   48 1    
    25   12   13 ar   
    26   12   77 1    
    27   13   14 ar   
    28   13   15 1    
    29   14   78 1    
    30   15   16 1    
    31   15   79 1    
    32   15   80 1    
    33   16   17 1    
    34   17   18 1    
    35   17   81 1    
    36   17   82 1    
    37   18   19 1    
    38   18   22 1    
    39   18   83 1    
    40   19   20 am   BACKBONE|DICT|INTERRES
    41   19   21 2    
    42   20   84 1    
    43   20   85 1    
    44   22   23 am   BACKBONE|DICT|INTERRES
    45   22   86 1    
    46   23   24 2    
    47   23   25 1    
    48   25   26 1    
    49   25   27 1    
    50   25   87 1    
    51   26   88 1    
    52   26   89 1    
    53   26   90 1    
    54   27   28 am   BACKBONE|DICT|INTERRES
    55   27   91 1    
    56   28   29 2    
    57   28   30 1    
    58   30   31 1    
    59   30   32 1    
    60   30   92 1    
    61   31   93 1    
    62   31   94 1    
    63   31   95 1    
    64   32   33 am   BACKBONE|DICT|INTERRES
    65   32   96 1    
    66   33   34 2    
    67   33   35 1    
    68   35   36 1    
    69   35   37 1    
    70   35   97 1    
    71   36   98 1    
    72   36   99 1    
    73   36  100 1    
    74   37   38 am   BACKBONE|DICT|INTERRES
    75   37  101 1    
    76   38   39 2    
    77   38   40 1    
    78   40   41 1    
    79   40   42 1    
    80   40  102 1    
    81   41  103 1    
    82   41  104 1    
    83   41  105 1    
    84   42   43 am   BACKBONE|DICT|INTERRES
    85   42  106 1    
    86   43   44 2    
    87   43   45 1    
    88   45   46 1    
    89   45   49 1    
    90   45  107 1    
    91   46   47 1    
    92   46  108 1    
    93   46  109 1    
    94   47   48 1    
    95   48  110 1    
    96   48  111 1    
    97   49   50 am   BACKBONE|DICT|INTERRES
    98   49  112 1    
    99   50   51 2    
   100   50   52 1    
   101   52   53 1    
   102   52   54 1    
   103   52  113 1    
   104   53  114 1    
   105   53  115 1    
   106   53  116 1    
   107   54   55 am   BACKBONE|DICT|INTERRES
   108   54  117 1    
   109   55   56 2    
   110   55   57 1    
   111   57   58 1    
   112   57   59 1    
   113   57  118 1    
   114   58  119 1    
   115   58  120 1    
   116   58  121 1    
   117   59   60 am   BACKBONE|DICT|INTERRES
   118   59  122 1    
   119   60   61 2    
   120   60   62 1    
   121   62   63 1    
   122   62   64 1    
   123   62  123 1    
   124   63  124 1    
   125   63  125 1    
   126   63  126 1    
   127   64   65 am   BACKBONE|DICT|INTERRES
   128   64  127 1    
   129   65   66 2    
@<TRIPOS>SUBSTRUCTURE
     1 UNK         1 GROUP             0       ****    0 ROOT    
