@<TRIPOS>MOLECULE
3R134
127   129    1
SMALL
USER_CHARGES


@<TRIPOS>ATOM
      1 CA         29.5046  -45.8439  -48.6133 C.3       0 UNK        -0.1968 
      2 C          30.9366  -45.8492  -49.1283 C.2       0 UNK         0.4852 
      3 O          31.8739  -45.8010  -48.3295 O.2       0 UNK        -0.5359 
      4 N          31.1090  -45.8966  -50.4553 N.am      1 UNK        -0.4300 
      5 CA         32.4058  -45.9570  -51.1400 C.3       1 UNK         0.0863 
      6 C6         32.2682  -45.6480  -52.6550 C.3       11 UNK        -0.0953 
      7 S7         31.5396  -43.9956  -52.9294 S.3       11 UNK        -0.2369 
      8 C8         32.7060  -43.1959  -54.0758 C.3       11 UNK         0.0226 
      9 C9         32.0992  -43.0689  -55.4646 C.ar      11 UNK        -0.0699 
     10 C10        32.4594  -43.9517  -56.4876 C.ar      11 UNK        -0.0804 
     11 C11        31.8889  -43.8299  -57.7598 C.ar      11 UNK        -0.0871 
     12 C12        30.9691  -42.8078  -58.0074 C.ar      11 UNK        -0.1008 
     13 C13        30.6017  -41.9209  -56.9928 C.ar      11 UNK        -0.0735 
     14 C14        31.1713  -42.0555  -55.7240 C.ar      11 UNK        -0.0945 
     15 C15        29.5930  -40.8162  -57.2710 C.3       11 UNK         0.0169 
     16 S16        27.9500  -41.4761  -57.6960 S.3       11 UNK        -0.2669 
     17 C17        27.4789  -42.3489  -56.1596 C.3       11 UNK        -0.0850 
     18 CA         27.4981  -43.9037  -56.2881 C.3       10 UNK         0.0855 
     19 C          27.1322  -44.6023  -54.9425 C.2       10 UNK         0.5543 
     20 N          26.3239  -45.6556  -54.9299 N.am      10 UNK        -0.7343 
     21 O          27.6081  -44.1950  -53.8861 O.2       10 UNK        -0.5027 
     22 N          26.7606  -44.4196  -57.4564 N.am      10 UNK        -0.4495 
     23 C          25.4700  -44.2026  -57.7462 C.2       10 UNK         0.4903 
     24 O          24.7231  -43.4667  -57.1007 O.2       10 UNK        -0.4860 
     25 CA         24.8988  -44.9647  -58.9568 C.3       9 UNK         0.0227 
     26 CB         25.1011  -44.1494  -60.2445 C.3       9 UNK        -0.1964 
     27 N          25.4512  -46.3135  -59.1394 N.am      9 UNK        -0.4231 
     28 C          25.4098  -47.2978  -58.2292 C.2       9 UNK         0.5014 
     29 O          24.9072  -47.1625  -57.1106 O.2       9 UNK        -0.5270 
     30 CA         26.0241  -48.6516  -58.6326 C.3       8 UNK         0.0284 
     31 CB         27.2048  -48.5170  -59.6175 C.3       8 UNK        -0.1977 
     32 N          26.4865  -49.3438  -57.4309 N.am      8 UNK        -0.4342 
     33 C          25.8408  -50.3365  -56.8040 C.2       8 UNK         0.5039 
     34 O          24.8090  -50.8559  -57.2340 O.2       8 UNK        -0.5547 
     35 CA         26.4366  -50.8582  -55.4812 C.3       7 UNK         0.0281 
     36 CB         26.8446  -52.3361  -55.6124 C.3       7 UNK        -0.1963 
     37 N          27.5985  -50.0813  -55.0410 N.am      7 UNK        -0.4444 
     38 C          27.5390  -49.0118  -54.2330 C.2       7 UNK         0.5104 
     39 O          26.5029  -48.6191  -53.6964 O.2       7 UNK        -0.5100 
     40 CA         28.8504  -48.2408  -53.9745 C.3       6 UNK         0.0396 
     41 CB         29.4702  -48.7138  -52.6514 C.3       6 UNK        -0.1801 
     42 N          29.8470  -48.3665  -55.0442 N.am      6 UNK        -0.4747 
     43 C          29.6596  -48.0075  -56.3262 C.2       6 UNK         0.5012 
     44 O          28.6456  -47.4349  -56.7233 O.2       6 UNK        -0.5003 
     45 CA         30.7388  -48.4287  -57.3538 C.3       5 UNK         0.0782 
     46 C46        31.6945  -47.2556  -57.6790 C.3       11 UNK        -0.0868 
     47 S47        31.0589  -46.1628  -58.9873 S.3       11 UNK        -0.2515 
     48 C48        32.2546  -44.7948  -58.8768 C.3       11 UNK         0.0199 
     49 N          31.5112  -49.6051  -56.9431 N.am      5 UNK        -0.4607 
     50 C          31.0378  -50.8009  -56.5681 C.2       4 UNK         0.5031 
     51 O          29.8503  -51.1145  -56.6366 O.2       4 UNK        -0.5119 
     52 CA         32.0500  -51.7854  -55.9469 C.3       4 UNK         0.0263 
     53 CB         32.3524  -52.9300  -56.9270 C.3       4 UNK        -0.1967 
     54 N          33.3154  -51.1679  -55.5166 N.am      4 UNK        -0.4237 
     55 C          33.4387  -50.1892  -54.6065 C.2       3 UNK         0.4908 
     56 O          32.4852  -49.6881  -54.0047 O.2       3 UNK        -0.5102 
     57 CA         34.8493  -49.6037  -54.4392 C.3       3 UNK         0.0241 
     58 CB         35.1492  -48.6156  -55.5810 C.3       3 UNK        -0.1971 
     59 N          34.9850  -48.8956  -53.1685 N.am      3 UNK        -0.4139 
     60 C          35.2165  -49.4749  -51.9842 C.2       2 UNK         0.5016 
     61 O          35.4202  -50.6809  -51.8360 O.2       2 UNK        -0.5319 
     62 CA         35.2388  -48.5465  -50.7556 C.3       2 UNK         0.0286 
     63 CB         36.6827  -48.1453  -50.4113 C.3       2 UNK        -0.1963 
     64 N          34.4287  -47.3335  -50.9287 N.am      2 UNK        -0.4790 
     65 C          33.0884  -47.3226  -50.9090 C.2       1 UNK         0.5024 
     66 O          32.4056  -48.3340  -50.7314 O.2       1 UNK        -0.4888 
     67 H67        28.7786  -45.8753  -49.4256 H         1 UNK         0.0892 
     68 H68        29.3337  -46.7088  -47.9728 H         1 UNK         0.0892 
     69 H69        29.3193  -44.9436  -48.0280 H         1 UNK         0.0892 
     70 H70        30.3016  -45.9246  -51.0599 H         1 UNK         0.3107 
     71 H71        33.0444  -45.1908  -50.6943 H         1 UNK         0.0773 
     72 H72        33.2409  -45.7068  -53.1447 H         1 UNK         0.0680 
     73 H73        31.6373  -46.3844  -53.1545 H         1 UNK         0.0680 
     74 H74        33.6555  -43.7307  -54.1130 H         1 UNK         0.0650 
     75 H75        32.9393  -42.2012  -53.6932 H         1 UNK         0.0650 
     76 H76        33.1784  -44.7347  -56.2905 H         1 UNK         0.1397 
     77 H77        30.5232  -42.7107  -58.9881 H         1 UNK         0.1363 
     78 H78        30.8900  -41.3754  -54.9314 H         1 UNK         0.1355 
     79 H79        29.4990  -40.1446  -56.4161 H         1 UNK         0.0707 
     80 H80        29.9534  -40.2071  -58.1011 H         1 UNK         0.0707 
     81 H81        26.4872  -42.0029  -55.8654 H         1 UNK         0.1034 
     82 H82        28.1445  -42.0321  -55.3548 H         1 UNK         0.1034 
     83 H83        28.5342  -44.1931  -56.4696 H         1 UNK         0.0482 
     84 H84        26.1224  -46.1174  -54.0575 H         1 UNK         0.3460 
     85 H85        25.9293  -46.0235  -55.7881 H         1 UNK         0.3460 
     86 H86        27.2751  -45.0702  -58.0315 H         1 UNK         0.2989 
     87 H87        23.8252  -45.0771  -58.7923 H         1 UNK         0.0559 
     88 H88        24.6773  -43.1492  -60.1424 H         1 UNK         0.0848 
     89 H89        24.6111  -44.6202  -61.0970 H         1 UNK         0.0848 
     90 H90        26.1583  -44.0296  -60.4856 H         1 UNK         0.0848 
     91 H91        25.8829  -46.5077  -60.0313 H         1 UNK         0.3144 
     92 H92        25.2387  -49.2312  -59.1216 H         1 UNK         0.0727 
     93 H93        27.9542  -47.8067  -59.2663 H         1 UNK         0.0790 
     94 H94        26.8683  -48.1842  -60.5998 H         1 UNK         0.0790 
     95 H95        27.7033  -49.4752  -59.7661 H         1 UNK         0.0790 
     96 H96        27.2675  -48.9026  -56.9578 H         1 UNK         0.3215 
     97 H97        25.6494  -50.7941  -54.7268 H         1 UNK         0.0863 
     98 H98        27.2672  -52.7166  -54.6824 H         1 UNK         0.0808 
     99 H99        27.5812  -52.4843  -56.4025 H         1 UNK         0.0808 
    100 H100       25.9820  -52.9585  -55.8537 H         1 UNK         0.0808 
    101 H101       28.4895  -50.3424  -55.4556 H         1 UNK         0.3118 
    102 H102       28.6023  -47.1822  -53.8801 H         1 UNK         0.0546 
    103 H103       29.7536  -49.7664  -52.6921 H         1 UNK         0.0828 
    104 H104       28.7703  -48.5945  -51.8233 H         1 UNK         0.0828 
    105 H105       30.3625  -48.1443  -52.4034 H         1 UNK         0.0828 
    106 H106       30.7132  -48.8341  -54.7947 H         1 UNK         0.3005 
    107 H107       30.2097  -48.7223  -58.2631 H         1 UNK         0.1257 
    108 H108       32.6524  -47.6320  -58.0428 H         1 UNK         0.0775 
    109 H109       31.9259  -46.6794  -56.7822 H         1 UNK         0.0775 
    110 H110       33.2629  -45.1876  -58.7362 H         1 UNK         0.0840 
    111 H111       32.2687  -44.2636  -59.8298 H         1 UNK         0.0840 
    112 H112       32.5044  -49.4620  -56.8475 H         1 UNK         0.2987 
    113 H113       31.5747  -52.2090  -55.0597 H         1 UNK         0.0785 
    114 H114       31.4339  -53.4286  -57.2409 H         1 UNK         0.0798 
    115 H115       32.9881  -53.6884  -56.4694 H         1 UNK         0.0798 
    116 H116       32.8512  -52.5699  -57.8277 H         1 UNK         0.0798 
    117 H117       34.1509  -51.5047  -55.9746 H         1 UNK         0.3079 
    118 H118       35.5764  -50.4182  -54.4725 H         1 UNK         0.0794 
    119 H119       36.1463  -48.1863  -55.4797 H         1 UNK         0.0786 
    120 H120       34.4329  -47.7929  -55.6045 H         1 UNK         0.0786 
    121 H121       35.1130  -49.1091  -56.5531 H         1 UNK         0.0786 
    122 H122       34.7899  -47.9066  -53.1774 H         1 UNK         0.3032 
    123 H123       34.8333  -49.1148  -49.9149 H         1 UNK         0.1094 
    124 H124       36.7231  -47.5531  -49.4968 H         1 UNK         0.0794 
    125 H125       37.3044  -49.0274  -50.2508 H         1 UNK         0.0794 
    126 H126       37.1437  -47.5636  -51.2106 H         1 UNK         0.0794 
    127 H127       34.9288  -46.4651  -51.0603 H         1 UNK         0.3016 
@<TRIPOS>BOND
     1    1    2 1    
     2    1   67 1    
     3    1   68 1    
     4    1   69 1    
     5    2    3 2    
     6    2    4 am   BACKBONE|DICT|INTERRES
     7    4    5 1    
     8    4   70 1    
     9    5    6 1    
    10    5   65 1    
    11    5   71 1    
    12    6    7 1    
    13    6   72 1    
    14    6   73 1    
    15    7    8 1    
    16    8    9 1    
    17    8   74 1    
    18    8   75 1    
    19    9   10 ar   
    20    9   14 ar   
    21   10   11 ar   
    22   10   76 1    
    23   11   12 ar   
    24   11   48 1    
    25   12   13 ar   
    26   12   77 1    
    27   13   14 ar   
    28   13   15 1    
    29   14   78 1    
    30   15   16 1    
    31   15   79 1    
    32   15   80 1    
    33   16   17 1    
    34   17   18 1    
    35   17   81 1    
    36   17   82 1    
    37   18   19 1    
    38   18   22 1    
    39   18   83 1    
    40   19   20 am   BACKBONE|DICT|INTERRES
    41   19   21 2    
    42   20   84 1    
    43   20   85 1    
    44   22   23 am   BACKBONE|DICT|INTERRES
    45   22   86 1    
    46   23   24 2    
    47   23   25 1    
    48   25   26 1    
    49   25   27 1    
    50   25   87 1    
    51   26   88 1    
    52   26   89 1    
    53   26   90 1    
    54   27   28 am   BACKBONE|DICT|INTERRES
    55   27   91 1    
    56   28   29 2    
    57   28   30 1    
    58   30   31 1    
    59   30   32 1    
    60   30   92 1    
    61   31   93 1    
    62   31   94 1    
    63   31   95 1    
    64   32   33 am   BACKBONE|DICT|INTERRES
    65   32   96 1    
    66   33   34 2    
    67   33   35 1    
    68   35   36 1    
    69   35   37 1    
    70   35   97 1    
    71   36   98 1    
    72   36   99 1    
    73   36  100 1    
    74   37   38 am   BACKBONE|DICT|INTERRES
    75   37  101 1    
    76   38   39 2    
    77   38   40 1    
    78   40   41 1    
    79   40   42 1    
    80   40  102 1    
    81   41  103 1    
    82   41  104 1    
    83   41  105 1    
    84   42   43 am   BACKBONE|DICT|INTERRES
    85   42  106 1    
    86   43   44 2    
    87   43   45 1    
    88   45   46 1    
    89   45   49 1    
    90   45  107 1    
    91   46   47 1    
    92   46  108 1    
    93   46  109 1    
    94   47   48 1    
    95   48  110 1    
    96   48  111 1    
    97   49   50 am   BACKBONE|DICT|INTERRES
    98   49  112 1    
    99   50   51 2    
   100   50   52 1    
   101   52   53 1    
   102   52   54 1    
   103   52  113 1    
   104   53  114 1    
   105   53  115 1    
   106   53  116 1    
   107   54   55 am   BACKBONE|DICT|INTERRES
   108   54  117 1    
   109   55   56 2    
   110   55   57 1    
   111   57   58 1    
   112   57   59 1    
   113   57  118 1    
   114   58  119 1    
   115   58  120 1    
   116   58  121 1    
   117   59   60 am   BACKBONE|DICT|INTERRES
   118   59  122 1    
   119   60   61 2    
   120   60   62 1    
   121   62   63 1    
   122   62   64 1    
   123   62  123 1    
   124   63  124 1    
   125   63  125 1    
   126   63  126 1    
   127   64   65 am   BACKBONE|DICT|INTERRES
   128   64  127 1    
   129   65   66 2    
@<TRIPOS>SUBSTRUCTURE
     1 UNK         1 GROUP             0       ****    0 ROOT    
