@<TRIPOS>MOLECULE
3R134
127   129    1
SMALL
USER_CHARGES


@<TRIPOS>ATOM
      1 CA         35.1033  -49.9509  -58.4468 C.3       0 UNK        -0.1968 
      2 C          34.5230  -49.6117  -57.0825 C.2       0 UNK         0.4852 
      3 O          34.9701  -50.1583  -56.0724 O.2       0 UNK        -0.5359 
      4 N          33.5481  -48.6917  -57.0346 N.am      1 UNK        -0.4300 
      5 CA         32.8329  -48.2781  -55.8179 C.3       1 UNK         0.0863 
      6 C6         31.5088  -47.5401  -56.1301 C.3       11 UNK        -0.0953 
      7 S7         31.7059  -46.0343  -57.1456 S.3       11 UNK        -0.2369 
      8 C8         31.8034  -44.7126  -55.8875 C.3       11 UNK         0.0226 
      9 C9         30.6266  -44.6853  -54.9162 C.ar      11 UNK        -0.0699 
     10 C10        30.8597  -44.5524  -53.5433 C.ar      11 UNK        -0.0804 
     11 C11        29.7933  -44.5109  -52.6398 C.ar      11 UNK        -0.0871 
     12 C12        28.4825  -44.6070  -53.1196 C.ar      11 UNK        -0.1008 
     13 C13        28.2345  -44.7383  -54.4889 C.ar      11 UNK        -0.0735 
     14 C14        29.3105  -44.7756  -55.3803 C.ar      11 UNK        -0.0945 
     15 C15        26.8061  -44.8596  -55.0037 C.3       11 UNK         0.0169 
     16 S16        25.9453  -43.2536  -55.0528 S.3       11 UNK        -0.2669 
     17 C17        26.8563  -42.3726  -56.3692 C.3       11 UNK        -0.0850 
     18 CA         26.0226  -42.1008  -57.6486 C.3       10 UNK         0.0855 
     19 C          26.9039  -41.3511  -58.6918 C.2       10 UNK         0.5543 
     20 N          27.4080  -42.0151  -59.7271 N.am      10 UNK        -0.7343 
     21 O          27.1338  -40.1525  -58.5530 O.2       10 UNK        -0.5027 
     22 N          25.3936  -43.3225  -58.1749 N.am      10 UNK        -0.4495 
     23 C          24.4827  -43.3515  -59.1564 C.2       10 UNK         0.4903 
     24 O          23.9272  -42.3414  -59.5913 O.2       10 UNK        -0.4860 
     25 CA         24.1279  -44.7248  -59.7694 C.3       9 UNK         0.0227 
     26 CB         24.0467  -44.6486  -61.3083 C.3       9 UNK        -0.1964 
     27 N          24.9939  -45.8453  -59.3693 N.am      9 UNK        -0.4231 
     28 C          26.3207  -45.9793  -59.5141 C.2       9 UNK         0.5014 
     29 O          27.0457  -45.0983  -59.9822 O.2       9 UNK        -0.5270 
     30 CA         26.9360  -47.3054  -59.0125 C.3       8 UNK         0.0284 
     31 CB         28.4757  -47.2689  -58.9900 C.3       8 UNK        -0.1977 
     32 N          26.4623  -47.6998  -57.6804 N.am      8 UNK        -0.4342 
     33 C          25.2583  -48.1907  -57.3646 C.2       8 UNK         0.5039 
     34 O          24.3653  -48.3587  -58.1976 O.2       8 UNK        -0.5547 
     35 CA         25.0033  -48.5154  -55.8767 C.3       7 UNK         0.0281 
     36 CB         23.5937  -49.0868  -55.6322 C.3       7 UNK        -0.1963 
     37 N          25.9911  -49.4318  -55.2952 N.am      7 UNK        -0.4444 
     38 C          27.2570  -49.1225  -54.9918 C.2       7 UNK         0.5104 
     39 O          27.7742  -48.0340  -55.2547 O.2       7 UNK        -0.5100 
     40 CA         28.0936  -50.2205  -54.3131 C.3       6 UNK         0.0396 
     41 CB         28.8156  -51.0706  -55.3701 C.3       6 UNK        -0.1801 
     42 N          29.0909  -49.6321  -53.4211 N.am      6 UNK        -0.4747 
     43 C          28.8274  -48.9474  -52.3023 C.2       6 UNK         0.5012 
     44 O          27.7214  -48.9380  -51.7571 O.2       6 UNK        -0.5003 
     45 CA         29.9966  -48.1273  -51.7143 C.3       5 UNK         0.0782 
     46 C46        29.5127  -47.0734  -50.6855 C.3       11 UNK        -0.0868 
     47 S47        30.7949  -45.8139  -50.3785 S.3       11 UNK        -0.2515 
     48 C48        30.0560  -44.3347  -51.1484 C.3       11 UNK         0.0199 
     49 N          31.0595  -48.9701  -51.1499 N.am      5 UNK        -0.4607 
     50 C          31.9158  -49.7233  -51.8480 C.2       4 UNK         0.5031 
     51 O          31.8426  -49.9102  -53.0640 O.2       4 UNK        -0.5119 
     52 CA         33.0578  -50.3804  -51.0710 C.3       4 UNK         0.0263 
     53 CB         32.7138  -51.8374  -50.7111 C.3       4 UNK        -0.1967 
     54 N          34.2371  -50.3227  -51.9280 N.am      4 UNK        -0.4237 
     55 C          35.5098  -50.4656  -51.5446 C.2       3 UNK         0.4908 
     56 O          35.8571  -50.7301  -50.3930 O.2       3 UNK        -0.5102 
     57 CA         36.5791  -50.2623  -52.6315 C.3       3 UNK         0.0241 
     58 CB         36.7495  -51.5386  -53.4715 C.3       3 UNK        -0.1971 
     59 N          36.2721  -49.1288  -53.5102 N.am      3 UNK        -0.4139 
     60 C          36.4081  -47.8410  -53.1504 C.2       2 UNK         0.5016 
     61 O          36.8581  -47.4824  -52.0614 O.2       2 UNK        -0.5319 
     62 CA         35.9772  -46.7623  -54.1649 C.3       2 UNK         0.0286 
     63 CB         37.1915  -46.2449  -54.9523 C.3       2 UNK        -0.1963 
     64 N          34.9635  -47.2386  -55.1064 N.am      2 UNK        -0.4790 
     65 C          33.6975  -47.5279  -54.7747 C.2       1 UNK         0.5024 
     66 O          33.2184  -47.2448  -53.6772 O.2       1 UNK        -0.4888 
     67 H67        34.9663  -51.0111  -58.6575 H         1 UNK         0.0892 
     68 H68        34.6280  -49.3818  -59.2455 H         1 UNK         0.0892 
     69 H69        36.1713  -49.7352  -58.4644 H         1 UNK         0.0892 
     70 H70        33.2377  -48.2459  -57.8869 H         1 UNK         0.3107 
     71 H71        32.5485  -49.2101  -55.3305 H         1 UNK         0.0773 
     72 H72        30.8492  -48.2114  -56.6819 H         1 UNK         0.0680 
     73 H73        30.9654  -47.3151  -55.2112 H         1 UNK         0.0680 
     74 H74        31.8500  -43.7514  -56.4005 H         1 UNK         0.0650 
     75 H75        32.7454  -44.8148  -55.3476 H         1 UNK         0.0650 
     76 H76        31.8736  -44.4834  -53.1726 H         1 UNK         0.1397 
     77 H77        27.6498  -44.5740  -52.4302 H         1 UNK         0.1363 
     78 H78        29.1260  -44.8833  -56.4398 H         1 UNK         0.1355 
     79 H79        26.7918  -45.3097  -55.9970 H         1 UNK         0.0707 
     80 H80        26.2499  -45.5384  -54.3558 H         1 UNK         0.0707 
     81 H81        27.2047  -41.4289  -55.9447 H         1 UNK         0.1034 
     82 H82        27.7592  -42.9249  -56.6277 H         1 UNK         0.1034 
     83 H83        25.2137  -41.4204  -57.3754 H         1 UNK         0.0482 
     84 H84        27.9769  -41.5263  -60.3995 H         1 UNK         0.3460 
     85 H85        27.2363  -43.0087  -59.8354 H         1 UNK         0.3460 
     86 H86        25.8014  -44.1953  -57.8804 H         1 UNK         0.2989 
     87 H87        23.1326  -44.9700  -59.3963 H         1 UNK         0.0559 
     88 H88        23.3058  -43.9156  -61.6301 H         1 UNK         0.0848 
     89 H89        23.7564  -45.6068  -61.7389 H         1 UNK         0.0848 
     90 H90        25.0019  -44.3589  -61.7479 H         1 UNK         0.0848 
     91 H91        24.5150  -46.6493  -58.9660 H         1 UNK         0.3144 
     92 H92        26.6325  -48.0784  -59.7214 H         1 UNK         0.0727 
     93 H93        28.8485  -46.5047  -58.3075 H         1 UNK         0.0790 
     94 H94        28.8798  -47.0486  -59.9789 H         1 UNK         0.0790 
     95 H95        28.8929  -48.2266  -58.6782 H         1 UNK         0.0790 
     96 H96        27.1288  -47.6180  -56.9134 H         1 UNK         0.3215 
     97 H97        25.0669  -47.5676  -55.3379 H         1 UNK         0.0863 
     98 H98        23.4057  -49.2421  -54.5696 H         1 UNK         0.0808 
     99 H99        23.4503  -50.0399  -56.1429 H         1 UNK         0.0808 
    100 H100       22.8249  -48.4034  -55.9958 H         1 UNK         0.0808 
    101 H101       25.6633  -50.3643  -55.0866 H         1 UNK         0.3118 
    102 H102       27.4362  -50.8622  -53.7230 H         1 UNK         0.0546 
    103 H103       29.4839  -50.4664  -55.9854 H         1 UNK         0.0828 
    104 H104       28.1028  -51.5530  -56.0402 H         1 UNK         0.0828 
    105 H105       29.4092  -51.8593  -54.9073 H         1 UNK         0.0828 
    106 H106       30.0583  -49.6539  -53.7302 H         1 UNK         0.3005 
    107 H107       30.4247  -47.5807  -52.5597 H         1 UNK         0.1257 
    108 H108       29.2481  -47.5486  -49.7393 H         1 UNK         0.0775 
    109 H109       28.6061  -46.5722  -51.0284 H         1 UNK         0.0775 
    110 H110       29.1355  -44.0808  -50.6202 H         1 UNK         0.0840 
    111 H111       30.7299  -43.4894  -51.0020 H         1 UNK         0.0840 
    112 H112       31.1862  -48.8933  -50.1514 H         1 UNK         0.2987 
    113 H113       33.2522  -49.8086  -50.1610 H         1 UNK         0.0785 
    114 H114       31.8145  -51.8855  -50.0958 H         1 UNK         0.0798 
    115 H115       33.5171  -52.3105  -50.1463 H         1 UNK         0.0798 
    116 H116       32.5328  -52.4386  -51.6031 H         1 UNK         0.0798 
    117 H117       34.0280  -50.0896  -52.8911 H         1 UNK         0.3079 
    118 H118       37.5286  -50.0609  -52.1305 H         1 UNK         0.0794 
    119 H119       37.5433  -51.4239  -54.2098 H         1 UNK         0.0786 
    120 H120       35.8338  -51.7995  -54.0037 H         1 UNK         0.0786 
    121 H121       37.0135  -52.3883  -52.8403 H         1 UNK         0.0786 
    122 H122       35.8889  -49.3500  -54.4247 H         1 UNK         0.3032 
    123 H123       35.5539  -45.9305  -53.5966 H         1 UNK         0.1094 
    124 H124       37.6530  -47.0330  -55.5488 H         1 UNK         0.0794 
    125 H125       36.9124  -45.4330  -55.6242 H         1 UNK         0.0794 
    126 H126       37.9562  -45.8567  -54.2779 H         1 UNK         0.0794 
    127 H127       35.2789  -47.4920  -56.0314 H         1 UNK         0.3016 
@<TRIPOS>BOND
     1    1    2 1    
     2    1   67 1    
     3    1   68 1    
     4    1   69 1    
     5    2    3 2    
     6    2    4 am   BACKBONE|DICT|INTERRES
     7    4    5 1    
     8    4   70 1    
     9    5    6 1    
    10    5   65 1    
    11    5   71 1    
    12    6    7 1    
    13    6   72 1    
    14    6   73 1    
    15    7    8 1    
    16    8    9 1    
    17    8   74 1    
    18    8   75 1    
    19    9   10 ar   
    20    9   14 ar   
    21   10   11 ar   
    22   10   76 1    
    23   11   12 ar   
    24   11   48 1    
    25   12   13 ar   
    26   12   77 1    
    27   13   14 ar   
    28   13   15 1    
    29   14   78 1    
    30   15   16 1    
    31   15   79 1    
    32   15   80 1    
    33   16   17 1    
    34   17   18 1    
    35   17   81 1    
    36   17   82 1    
    37   18   19 1    
    38   18   22 1    
    39   18   83 1    
    40   19   20 am   BACKBONE|DICT|INTERRES
    41   19   21 2    
    42   20   84 1    
    43   20   85 1    
    44   22   23 am   BACKBONE|DICT|INTERRES
    45   22   86 1    
    46   23   24 2    
    47   23   25 1    
    48   25   26 1    
    49   25   27 1    
    50   25   87 1    
    51   26   88 1    
    52   26   89 1    
    53   26   90 1    
    54   27   28 am   BACKBONE|DICT|INTERRES
    55   27   91 1    
    56   28   29 2    
    57   28   30 1    
    58   30   31 1    
    59   30   32 1    
    60   30   92 1    
    61   31   93 1    
    62   31   94 1    
    63   31   95 1    
    64   32   33 am   BACKBONE|DICT|INTERRES
    65   32   96 1    
    66   33   34 2    
    67   33   35 1    
    68   35   36 1    
    69   35   37 1    
    70   35   97 1    
    71   36   98 1    
    72   36   99 1    
    73   36  100 1    
    74   37   38 am   BACKBONE|DICT|INTERRES
    75   37  101 1    
    76   38   39 2    
    77   38   40 1    
    78   40   41 1    
    79   40   42 1    
    80   40  102 1    
    81   41  103 1    
    82   41  104 1    
    83   41  105 1    
    84   42   43 am   BACKBONE|DICT|INTERRES
    85   42  106 1    
    86   43   44 2    
    87   43   45 1    
    88   45   46 1    
    89   45   49 1    
    90   45  107 1    
    91   46   47 1    
    92   46  108 1    
    93   46  109 1    
    94   47   48 1    
    95   48  110 1    
    96   48  111 1    
    97   49   50 am   BACKBONE|DICT|INTERRES
    98   49  112 1    
    99   50   51 2    
   100   50   52 1    
   101   52   53 1    
   102   52   54 1    
   103   52  113 1    
   104   53  114 1    
   105   53  115 1    
   106   53  116 1    
   107   54   55 am   BACKBONE|DICT|INTERRES
   108   54  117 1    
   109   55   56 2    
   110   55   57 1    
   111   57   58 1    
   112   57   59 1    
   113   57  118 1    
   114   58  119 1    
   115   58  120 1    
   116   58  121 1    
   117   59   60 am   BACKBONE|DICT|INTERRES
   118   59  122 1    
   119   60   61 2    
   120   60   62 1    
   121   62   63 1    
   122   62   64 1    
   123   62  123 1    
   124   63  124 1    
   125   63  125 1    
   126   63  126 1    
   127   64   65 am   BACKBONE|DICT|INTERRES
   128   64  127 1    
   129   65   66 2    
@<TRIPOS>SUBSTRUCTURE
     1 UNK         1 GROUP             0       ****    0 ROOT    
