@<TRIPOS>MOLECULE
3R134
127   129    1
SMALL
USER_CHARGES


@<TRIPOS>ATOM
      1 CA         37.9579  -47.9008  -51.9663 C.3       0 UNK        -0.1968 
      2 C          36.6644  -47.7224  -52.7470 C.2       0 UNK         0.4852 
      3 O          35.9822  -48.7073  -53.0373 O.2       0 UNK        -0.5359 
      4 N          36.3021  -46.4716  -53.0712 N.am      1 UNK        -0.4300 
      5 CA         35.1126  -46.1165  -53.8596 C.3       1 UNK         0.0863 
      6 C6         35.1876  -44.6753  -54.4184 C.3       11 UNK        -0.0953 
      7 S7         35.0379  -43.3661  -53.1541 S.3       11 UNK        -0.2369 
      8 C8         33.9964  -42.1454  -54.0190 C.3       11 UNK         0.0226 
      9 C9         32.5725  -42.6386  -54.2479 C.ar      11 UNK        -0.0699 
     10 C10        31.6774  -42.7168  -53.1769 C.ar      11 UNK        -0.0804 
     11 C11        30.3565  -43.1317  -53.3769 C.ar      11 UNK        -0.0871 
     12 C12        29.9334  -43.4549  -54.6712 C.ar      11 UNK        -0.1008 
     13 C13        30.8242  -43.4086  -55.7460 C.ar      11 UNK        -0.0735 
     14 C14        32.1411  -42.9922  -55.5311 C.ar      11 UNK        -0.0945 
     15 C15        30.3546  -43.8131  -57.1338 C.3       11 UNK         0.0169 
     16 S16        29.4659  -42.4460  -57.9361 S.3       11 UNK        -0.2669 
     17 C17        28.8263  -43.2557  -59.4415 C.3       11 UNK        -0.0850 
     18 CA         27.3143  -43.5919  -59.3254 C.3       10 UNK         0.0855 
     19 C          26.6884  -43.9348  -60.7114 C.2       10 UNK         0.5543 
     20 N          25.9650  -45.0362  -60.8766 N.am      10 UNK        -0.7343 
     21 O          26.8532  -43.1742  -61.6625 O.2       10 UNK        -0.5027 
     22 N          27.0717  -44.6111  -58.2915 N.am      10 UNK        -0.4495 
     23 C          25.9698  -44.7006  -57.5370 C.2       10 UNK         0.4903 
     24 O          25.0563  -43.8742  -57.5543 O.2       10 UNK        -0.4860 
     25 CA         25.8781  -45.9418  -56.6239 C.3       9 UNK         0.0227 
     26 CB         24.4466  -46.2044  -56.1102 C.3       9 UNK        -0.1964 
     27 N          26.4408  -47.1545  -57.2397 N.am      9 UNK        -0.4231 
     28 C          26.0534  -47.7197  -58.3940 C.2       9 UNK         0.5014 
     29 O          25.1393  -47.2865  -59.0965 O.2       9 UNK        -0.5270 
     30 CA         26.8388  -48.9417  -58.8844 C.3       8 UNK         0.0284 
     31 CB         28.0224  -48.4865  -59.7561 C.3       8 UNK        -0.1977 
     32 N          27.3440  -49.7709  -57.7865 N.am      8 UNK        -0.4342 
     33 C          26.9299  -51.0172  -57.5276 C.2       8 UNK         0.5039 
     34 O          25.9968  -51.5682  -58.1142 O.2       8 UNK        -0.5547 
     35 CA         27.7172  -51.8118  -56.4748 C.3       7 UNK         0.0281 
     36 CB         29.0504  -52.3020  -57.0641 C.3       7 UNK        -0.1963 
     37 N          27.9679  -51.0785  -55.2322 N.am      7 UNK        -0.4444 
     38 C          27.0428  -50.8750  -54.2839 C.2       7 UNK         0.5104 
     39 O          25.8570  -51.1847  -54.4048 O.2       7 UNK        -0.5100 
     40 CA         27.5253  -50.2563  -52.9594 C.3       6 UNK         0.0396 
     41 CB         28.3054  -51.2854  -52.1251 C.3       6 UNK        -0.1801 
     42 N          28.3481  -49.0650  -53.1564 N.am      6 UNK        -0.4747 
     43 C          27.8781  -47.8851  -53.5836 C.2       6 UNK         0.5012 
     44 O          26.6884  -47.6616  -53.8045 O.2       6 UNK        -0.5003 
     45 CA         28.9233  -46.7819  -53.8457 C.3       5 UNK         0.0782 
     46 C46        29.3100  -46.0422  -52.5380 C.3       11 UNK        -0.0868 
     47 S47        28.2232  -44.6081  -52.2345 S.3       11 UNK        -0.2515 
     48 C48        29.4093  -43.2163  -52.1801 C.3       11 UNK         0.0199 
     49 N          30.0946  -47.2903  -54.5650 N.am      5 UNK        -0.4607 
     50 C          30.0630  -47.8783  -55.7680 C.2       4 UNK         0.5031 
     51 O          29.0441  -47.9856  -56.4495 O.2       4 UNK        -0.5119 
     52 CA         31.3721  -48.4986  -56.2773 C.3       4 UNK         0.0263 
     53 CB         32.2131  -47.4546  -57.0298 C.3       4 UNK        -0.1967 
     54 N          32.1530  -49.1012  -55.1921 N.am      4 UNK        -0.4237 
     55 C          31.7780  -50.1962  -54.5125 C.2       3 UNK         0.4908 
     56 O          30.7707  -50.8505  -54.7767 O.2       3 UNK        -0.5102 
     57 CA         32.6358  -50.5984  -53.3013 C.3       3 UNK         0.0241 
     58 CB         33.8941  -51.3571  -53.7505 C.3       3 UNK        -0.1971 
     59 N          33.0146  -49.4454  -52.4815 N.am      3 UNK        -0.4139 
     60 C          32.1408  -48.6912  -51.7937 C.2       2 UNK         0.5016 
     61 O          30.9395  -48.9464  -51.7088 O.2       2 UNK        -0.5319 
     62 CA         32.6807  -47.4031  -51.1400 C.3       2 UNK         0.0286 
     63 CB         33.1115  -47.6758  -49.6908 C.3       2 UNK        -0.1963 
     64 N          33.8003  -46.8068  -51.8751 N.am      2 UNK        -0.4790 
     65 C          33.7671  -46.4304  -53.1633 C.2       1 UNK         0.5024 
     66 O          32.7303  -46.4059  -53.8237 O.2       1 UNK        -0.4888 
     67 H67        38.6426  -48.5428  -52.5193 H         1 UNK         0.0892 
     68 H68        37.7539  -48.3695  -51.0043 H         1 UNK         0.0892 
     69 H69        38.4579  -46.9505  -51.7822 H         1 UNK         0.0892 
     70 H70        36.8807  -45.6933  -52.7861 H         1 UNK         0.3107 
     71 H71        35.1311  -46.7750  -54.7313 H         1 UNK         0.0773 
     72 H72        34.4160  -44.5453  -55.1774 H         1 UNK         0.0680 
     73 H73        36.1325  -44.5300  -54.9442 H         1 UNK         0.0680 
     74 H74        33.9653  -41.2307  -53.4251 H         1 UNK         0.0650 
     75 H75        34.4707  -41.8768  -54.9645 H         1 UNK         0.0650 
     76 H76        32.0156  -42.4511  -52.1845 H         1 UNK         0.1397 
     77 H77        28.9100  -43.7537  -54.8472 H         1 UNK         0.1363 
     78 H78        32.8281  -42.9389  -56.3643 H         1 UNK         0.1355 
     79 H79        31.2013  -44.1120  -57.7539 H         1 UNK         0.0707 
     80 H80        29.7035  -44.6849  -57.0567 H         1 UNK         0.0707 
     81 H81        29.4094  -44.1493  -59.6718 H         1 UNK         0.1034 
     82 H82        29.0044  -42.5638  -60.2675 H         1 UNK         0.1034 
     83 H83        26.8092  -42.6746  -59.0162 H         1 UNK         0.0482 
     84 H84        25.7678  -45.6660  -60.1069 H         1 UNK         0.3460 
     85 H85        25.5696  -45.2246  -61.7840 H         1 UNK         0.3460 
     86 H86        27.7537  -45.3511  -58.2298 H         1 UNK         0.2989 
     87 H87        26.4993  -45.7187  -55.7574 H         1 UNK         0.0559 
     88 H88        24.4174  -47.0726  -55.4514 H         1 UNK         0.0848 
     89 H89        23.7472  -46.3788  -56.9283 H         1 UNK         0.0848 
     90 H90        24.0739  -45.3540  -55.5381 H         1 UNK         0.0848 
     91 H91        27.2577  -47.5453  -56.7766 H         1 UNK         0.3144 
     92 H92        26.1644  -49.5199  -59.5193 H         1 UNK         0.0727 
     93 H93        28.5487  -49.3408  -60.1821 H         1 UNK         0.0790 
     94 H94        28.7453  -47.8990  -59.1892 H         1 UNK         0.0790 
     95 H95        27.6812  -47.8695  -60.5889 H         1 UNK         0.0790 
     96 H96        28.0892  -49.3672  -57.2238 H         1 UNK         0.3215 
     97 H97        27.1255  -52.6962  -56.2268 H         1 UNK         0.0863 
     98 H98        29.5778  -52.9501  -56.3639 H         1 UNK         0.0808 
     99 H99        29.7130  -51.4725  -57.3137 H         1 UNK         0.0808 
    100 H100       28.8875  -52.8764  -57.9771 H         1 UNK         0.0808 
    101 H101       28.9373  -50.8374  -55.0322 H         1 UNK         0.3118 
    102 H102       26.6421  -49.9652  -52.3866 H         1 UNK         0.0546 
    103 H103       27.7057  -52.1787  -51.9464 H         1 UNK         0.0828 
    104 H104       28.5798  -50.8782  -51.1518 H         1 UNK         0.0828 
    105 H105       29.2229  -51.6015  -52.6224 H         1 UNK         0.0828 
    106 H106       29.3372  -49.1439  -52.9374 H         1 UNK         0.3005 
    107 H107       28.4594  -46.0688  -54.5277 H         1 UNK         0.1257 
    108 H108       30.3391  -45.6883  -52.5979 H         1 UNK         0.0775 
    109 H109       29.2847  -46.7008  -51.6675 H         1 UNK         0.0775 
    110 H110       28.8497  -42.2827  -52.1115 H         1 UNK         0.0840 
    111 H111       29.9811  -43.3007  -51.2545 H         1 UNK         0.0840 
    112 H112       30.9979  -47.1615  -54.1187 H         1 UNK         0.2987 
    113 H113       31.1096  -49.2912  -56.9812 H         1 UNK         0.0785 
    114 H114       32.4785  -46.6061  -56.3990 H         1 UNK         0.0798 
    115 H115       31.6618  -47.0590  -57.8839 H         1 UNK         0.0798 
    116 H116       33.1355  -47.8896  -57.4147 H         1 UNK         0.0798 
    117 H117       32.9652  -48.5908  -54.8788 H         1 UNK         0.3079 
    118 H118       32.0374  -51.2687  -52.6802 H         1 UNK         0.0794 
    119 H119       34.5458  -50.7349  -54.3654 H         1 UNK         0.0786 
    120 H120       33.6298  -52.2364  -54.3396 H         1 UNK         0.0786 
    121 H121       34.4745  -51.7025  -52.8948 H         1 UNK         0.0786 
    122 H122       33.9893  -49.1626  -52.5131 H         1 UNK         0.3032 
    123 H123       31.8685  -46.6752  -51.1234 H         1 UNK         0.1094 
    124 H124       33.9436  -48.3794  -49.6413 H         1 UNK         0.0794 
    125 H125       33.4158  -46.7578  -49.1875 H         1 UNK         0.0794 
    126 H126       32.2892  -48.1019  -49.1140 H         1 UNK         0.0794 
    127 H127       34.6952  -46.7936  -51.4083 H         1 UNK         0.3016 
@<TRIPOS>BOND
     1    1    2 1    
     2    1   67 1    
     3    1   68 1    
     4    1   69 1    
     5    2    3 2    
     6    2    4 am   BACKBONE|DICT|INTERRES
     7    4    5 1    
     8    4   70 1    
     9    5    6 1    
    10    5   65 1    
    11    5   71 1    
    12    6    7 1    
    13    6   72 1    
    14    6   73 1    
    15    7    8 1    
    16    8    9 1    
    17    8   74 1    
    18    8   75 1    
    19    9   10 ar   
    20    9   14 ar   
    21   10   11 ar   
    22   10   76 1    
    23   11   12 ar   
    24   11   48 1    
    25   12   13 ar   
    26   12   77 1    
    27   13   14 ar   
    28   13   15 1    
    29   14   78 1    
    30   15   16 1    
    31   15   79 1    
    32   15   80 1    
    33   16   17 1    
    34   17   18 1    
    35   17   81 1    
    36   17   82 1    
    37   18   19 1    
    38   18   22 1    
    39   18   83 1    
    40   19   20 am   BACKBONE|DICT|INTERRES
    41   19   21 2    
    42   20   84 1    
    43   20   85 1    
    44   22   23 am   BACKBONE|DICT|INTERRES
    45   22   86 1    
    46   23   24 2    
    47   23   25 1    
    48   25   26 1    
    49   25   27 1    
    50   25   87 1    
    51   26   88 1    
    52   26   89 1    
    53   26   90 1    
    54   27   28 am   BACKBONE|DICT|INTERRES
    55   27   91 1    
    56   28   29 2    
    57   28   30 1    
    58   30   31 1    
    59   30   32 1    
    60   30   92 1    
    61   31   93 1    
    62   31   94 1    
    63   31   95 1    
    64   32   33 am   BACKBONE|DICT|INTERRES
    65   32   96 1    
    66   33   34 2    
    67   33   35 1    
    68   35   36 1    
    69   35   37 1    
    70   35   97 1    
    71   36   98 1    
    72   36   99 1    
    73   36  100 1    
    74   37   38 am   BACKBONE|DICT|INTERRES
    75   37  101 1    
    76   38   39 2    
    77   38   40 1    
    78   40   41 1    
    79   40   42 1    
    80   40  102 1    
    81   41  103 1    
    82   41  104 1    
    83   41  105 1    
    84   42   43 am   BACKBONE|DICT|INTERRES
    85   42  106 1    
    86   43   44 2    
    87   43   45 1    
    88   45   46 1    
    89   45   49 1    
    90   45  107 1    
    91   46   47 1    
    92   46  108 1    
    93   46  109 1    
    94   47   48 1    
    95   48  110 1    
    96   48  111 1    
    97   49   50 am   BACKBONE|DICT|INTERRES
    98   49  112 1    
    99   50   51 2    
   100   50   52 1    
   101   52   53 1    
   102   52   54 1    
   103   52  113 1    
   104   53  114 1    
   105   53  115 1    
   106   53  116 1    
   107   54   55 am   BACKBONE|DICT|INTERRES
   108   54  117 1    
   109   55   56 2    
   110   55   57 1    
   111   57   58 1    
   112   57   59 1    
   113   57  118 1    
   114   58  119 1    
   115   58  120 1    
   116   58  121 1    
   117   59   60 am   BACKBONE|DICT|INTERRES
   118   59  122 1    
   119   60   61 2    
   120   60   62 1    
   121   62   63 1    
   122   62   64 1    
   123   62  123 1    
   124   63  124 1    
   125   63  125 1    
   126   63  126 1    
   127   64   65 am   BACKBONE|DICT|INTERRES
   128   64  127 1    
   129   65   66 2    
@<TRIPOS>SUBSTRUCTURE
     1 UNK         1 GROUP             0       ****    0 ROOT    
