@<TRIPOS>MOLECULE
3R134
127   129    1
SMALL
USER_CHARGES


@<TRIPOS>ATOM
      1 CA         37.3277  -42.9654  -53.8023 C.3       0 UNK        -0.1968 
      2 C          36.7317  -44.1315  -54.5773 C.2       0 UNK         0.4852 
      3 O          37.3887  -44.6734  -55.4676 O.2       0 UNK        -0.5359 
      4 N          35.4920  -44.5164  -54.2492 N.am      1 UNK        -0.4300 
      5 CA         34.7834  -45.6520  -54.8447 C.3       1 UNK         0.0863 
      6 C6         33.2504  -45.5581  -54.6307 C.3       11 UNK        -0.0953 
      7 S7         32.5292  -44.1843  -55.5892 S.3       11 UNK        -0.2369 
      8 C8         32.3567  -42.8756  -54.3345 C.3       11 UNK         0.0226 
      9 C9         30.9742  -42.8727  -53.6999 C.ar      11 UNK        -0.0699 
     10 C10        30.7777  -43.3530  -52.4009 C.ar      11 UNK        -0.0804 
     11 C11        29.5073  -43.3104  -51.8151 C.ar      11 UNK        -0.0871 
     12 C12        28.4296  -42.7955  -52.5419 C.ar      11 UNK        -0.1008 
     13 C13        28.6138  -42.3210  -53.8426 C.ar      11 UNK        -0.0735 
     14 C14        29.8898  -42.3526  -54.4117 C.ar      11 UNK        -0.0945 
     15 C15        27.4337  -41.7751  -54.6330 C.3       11 UNK         0.0169 
     16 S16        26.4636  -43.1108  -55.3995 S.3       11 UNK        -0.2669 
     17 C17        27.6986  -43.8107  -56.5454 C.3       11 UNK        -0.0850 
     18 CA         27.1106  -44.8507  -57.5412 C.3       10 UNK         0.0855 
     19 C          26.4268  -44.2085  -58.7903 C.2       10 UNK         0.5543 
     20 N          26.5369  -44.7850  -59.9827 N.am      10 UNK        -0.7343 
     21 O          25.7602  -43.1824  -58.6832 O.2       10 UNK        -0.5027 
     22 N          28.0744  -45.9148  -57.8621 N.am      10 UNK        -0.4495 
     23 C          29.2738  -45.7418  -58.4395 C.2       10 UNK         0.4903 
     24 O          29.7712  -44.6411  -58.6769 O.2       10 UNK        -0.4860 
     25 CA         30.0449  -47.0085  -58.8616 C.3       9 UNK         0.0227 
     26 CB         31.0706  -47.3926  -57.7823 C.3       9 UNK        -0.1964 
     27 N          29.1823  -48.1601  -59.1478 N.am      9 UNK        -0.4231 
     28 C          28.2122  -48.1939  -60.0747 C.2       9 UNK         0.5014 
     29 O          28.0086  -47.2868  -60.8830 O.2       9 UNK        -0.5270 
     30 CA         27.2695  -49.4138  -60.0706 C.3       8 UNK         0.0284 
     31 CB         27.6754  -50.4050  -61.1735 C.3       8 UNK        -0.1977 
     32 N          27.1716  -50.1302  -58.7901 N.am      8 UNK        -0.4342 
     33 C          26.8346  -49.5967  -57.6062 C.2       8 UNK         0.5039 
     34 O          26.6087  -48.3951  -57.4393 O.2       8 UNK        -0.5547 
     35 CA         26.7913  -50.5738  -56.4177 C.3       7 UNK         0.0281 
     36 CB         28.1578  -51.2536  -56.2049 C.3       7 UNK        -0.1963 
     37 N          26.3968  -49.8950  -55.1803 N.am      7 UNK        -0.4444 
     38 C          25.1269  -49.6563  -54.8203 C.2       7 UNK         0.5104 
     39 O          24.1563  -50.0260  -55.4838 O.2       7 UNK        -0.5100 
     40 CA         24.8691  -48.9203  -53.4891 C.3       6 UNK         0.0396 
     41 CB         24.1618  -49.8526  -52.4904 C.3       6 UNK        -0.1801 
     42 N          26.0852  -48.4036  -52.8583 N.am      6 UNK        -0.4747 
     43 C          26.6419  -47.2096  -53.1092 C.2       6 UNK         0.5012 
     44 O          26.1550  -46.3788  -53.8741 O.2       6 UNK        -0.5003 
     45 CA         27.9744  -46.8979  -52.3888 C.3       5 UNK         0.0782 
     46 C46        27.7196  -46.0363  -51.1268 C.3       11 UNK        -0.0868 
     47 S47        29.2684  -45.6030  -50.2580 S.3       11 UNK        -0.2515 
     48 C48        29.3028  -43.7884  -50.3849 C.3       11 UNK         0.0199 
     49 N          28.7475  -48.1056  -52.0609 N.am      5 UNK        -0.4607 
     50 C          29.2296  -48.9813  -52.9480 C.2       4 UNK         0.5031 
     51 O          29.0173  -48.9110  -54.1589 O.2       4 UNK        -0.5119 
     52 CA         30.0152  -50.1697  -52.3670 C.3       4 UNK         0.0263 
     53 CB         29.0460  -51.2849  -51.9393 C.3       4 UNK        -0.1967 
     54 N          30.9851  -50.7210  -53.3163 N.am      4 UNK        -0.4237 
     55 C          32.0377  -50.0517  -53.8030 C.2       3 UNK         0.4908 
     56 O          32.3383  -48.9045  -53.4624 O.2       3 UNK        -0.5102 
     57 CA         32.8772  -50.7920  -54.8580 C.3       3 UNK         0.0241 
     58 CB         32.0880  -50.9612  -56.1683 C.3       3 UNK        -0.1971 
     59 N          34.1050  -50.0497  -55.1399 N.am      3 UNK        -0.4139 
     60 C          35.2559  -50.1858  -54.4693 C.2       2 UNK         0.5016 
     61 O          35.4638  -51.0555  -53.6218 O.2       2 UNK        -0.5319 
     62 CA         36.3623  -49.1690  -54.7982 C.3       2 UNK         0.0286 
     63 CB         37.2522  -49.6884  -55.9392 C.3       2 UNK        -0.1963 
     64 N          35.8251  -47.8522  -55.1599 N.am      2 UNK        -0.4790 
     65 C          35.3527  -46.9641  -54.2732 C.2       1 UNK         0.5024 
     66 O          35.3649  -47.1394  -53.0526 O.2       1 UNK        -0.4888 
     67 H67        36.6306  -42.5649  -53.0662 H         1 UNK         0.0892 
     68 H68        38.2283  -43.2848  -53.2783 H         1 UNK         0.0892 
     69 H69        37.5978  -42.1602  -54.4854 H         1 UNK         0.0892 
     70 H70        35.0211  -44.0646  -53.4801 H         1 UNK         0.3107 
     71 H71        34.9703  -45.6404  -55.9212 H         1 UNK         0.0773 
     72 H72        32.7611  -46.4741  -54.9681 H         1 UNK         0.0680 
     73 H73        32.9989  -45.4553  -53.5734 H         1 UNK         0.0680 
     74 H74        32.5273  -41.9121  -54.8171 H         1 UNK         0.0650 
     75 H75        33.1333  -42.9715  -53.5754 H         1 UNK         0.0650 
     76 H76        31.6127  -43.7500  -51.8399 H         1 UNK         0.1397 
     77 H77        27.4436  -42.7625  -52.0987 H         1 UNK         0.1363 
     78 H78        30.0404  -41.9819  -55.4165 H         1 UNK         0.1355 
     79 H79        26.7834  -41.1997  -53.9724 H         1 UNK         0.0707 
     80 H80        27.7732  -41.0830  -55.4052 H         1 UNK         0.0707 
     81 H81        28.2101  -43.0069  -57.0780 H         1 UNK         0.1034 
     82 H82        28.4585  -44.2893  -55.9255 H         1 UNK         0.1034 
     83 H83        26.3076  -45.3806  -57.0273 H         1 UNK         0.0482 
     84 H84        27.0837  -45.6286  -60.1109 H         1 UNK         0.3460 
     85 H85        26.0810  -44.3610  -60.7746 H         1 UNK         0.3460 
     86 H86        27.7203  -46.8594  -57.7253 H         1 UNK         0.2989 
     87 H87        30.5864  -46.7692  -59.7790 H         1 UNK         0.0559 
     88 H88        31.7244  -46.5506  -57.5500 H         1 UNK         0.0848 
     89 H89        30.5872  -47.6933  -56.8511 H         1 UNK         0.0848 
     90 H90        31.7093  -48.2093  -58.1174 H         1 UNK         0.0848 
     91 H91        29.2609  -48.9509  -58.5264 H         1 UNK         0.3144 
     92 H92        26.2703  -49.0388  -60.3011 H         1 UNK         0.0727 
     93 H93        26.9512  -51.2144  -61.2685 H         1 UNK         0.0790 
     94 H94        28.6532  -50.8475  -60.9790 H         1 UNK         0.0790 
     95 H95        27.7300  -49.9091  -62.1440 H         1 UNK         0.0790 
     96 H96        27.3437  -51.1248  -58.8297 H         1 UNK         0.3215 
     97 H97        26.0556  -51.3484  -56.6455 H         1 UNK         0.0863 
     98 H98        28.1714  -51.8426  -55.2880 H         1 UNK         0.0808 
     99 H99        28.9669  -50.5256  -56.1470 H         1 UNK         0.0808 
    100 H100       28.3956  -51.9354  -57.0217 H         1 UNK         0.0808 
    101 H101       27.1503  -49.4767  -54.6444 H         1 UNK         0.3118 
    102 H102       24.1967  -48.0874  -53.7055 H         1 UNK         0.0546 
    103 H103       23.2218  -50.2253  -52.9000 H         1 UNK         0.0828 
    104 H104       23.9226  -49.3329  -51.5625 H         1 UNK         0.0828 
    105 H105       24.7748  -50.7200  -52.2427 H         1 UNK         0.0828 
    106 H106       26.5584  -49.0202  -52.2137 H         1 UNK         0.3005 
    107 H107       28.5743  -46.3092  -53.0877 H         1 UNK         0.1257 
    108 H108       27.0802  -46.5712  -50.4218 H         1 UNK         0.0775 
    109 H109       27.1789  -45.1254  -51.3882 H         1 UNK         0.0775 
    110 H110       28.3829  -43.3788  -49.9644 H         1 UNK         0.0840 
    111 H111       30.1131  -43.4094  -49.7603 H         1 UNK         0.0840 
    112 H112       28.9678  -48.2267  -51.0827 H         1 UNK         0.2987 
    113 H113       30.5675  -49.8247  -51.4902 H         1 UNK         0.0785 
    114 H114       28.3390  -50.9266  -51.1899 H         1 UNK         0.0798 
    115 H115       29.5791  -52.1271  -51.4978 H         1 UNK         0.0798 
    116 H116       28.4638  -51.6603  -52.7820 H         1 UNK         0.0798 
    117 H117       30.7943  -51.6476  -53.6673 H         1 UNK         0.3079 
    118 H118       33.1299  -51.7813  -54.4700 H         1 UNK         0.0794 
    119 H119       31.2351  -51.6262  -56.0307 H         1 UNK         0.0786 
    120 H120       32.7072  -51.3959  -56.9533 H         1 UNK         0.0786 
    121 H121       31.7024  -50.0094  -56.5321 H         1 UNK         0.0786 
    122 H122       34.0204  -49.2682  -55.7718 H         1 UNK         0.3032 
    123 H123       36.9829  -49.0603  -53.9053 H         1 UNK         0.1094 
    124 H124       38.0816  -49.0086  -56.1359 H         1 UNK         0.0794 
    125 H125       37.6837  -50.6579  -55.6856 H         1 UNK         0.0794 
    126 H126       36.6924  -49.8140  -56.8669 H         1 UNK         0.0794 
    127 H127       35.8236  -47.6131  -56.1418 H         1 UNK         0.3016 
@<TRIPOS>BOND
     1    1    2 1    
     2    1   67 1    
     3    1   68 1    
     4    1   69 1    
     5    2    3 2    
     6    2    4 am   BACKBONE|DICT|INTERRES
     7    4    5 1    
     8    4   70 1    
     9    5    6 1    
    10    5   65 1    
    11    5   71 1    
    12    6    7 1    
    13    6   72 1    
    14    6   73 1    
    15    7    8 1    
    16    8    9 1    
    17    8   74 1    
    18    8   75 1    
    19    9   10 ar   
    20    9   14 ar   
    21   10   11 ar   
    22   10   76 1    
    23   11   12 ar   
    24   11   48 1    
    25   12   13 ar   
    26   12   77 1    
    27   13   14 ar   
    28   13   15 1    
    29   14   78 1    
    30   15   16 1    
    31   15   79 1    
    32   15   80 1    
    33   16   17 1    
    34   17   18 1    
    35   17   81 1    
    36   17   82 1    
    37   18   19 1    
    38   18   22 1    
    39   18   83 1    
    40   19   20 am   BACKBONE|DICT|INTERRES
    41   19   21 2    
    42   20   84 1    
    43   20   85 1    
    44   22   23 am   BACKBONE|DICT|INTERRES
    45   22   86 1    
    46   23   24 2    
    47   23   25 1    
    48   25   26 1    
    49   25   27 1    
    50   25   87 1    
    51   26   88 1    
    52   26   89 1    
    53   26   90 1    
    54   27   28 am   BACKBONE|DICT|INTERRES
    55   27   91 1    
    56   28   29 2    
    57   28   30 1    
    58   30   31 1    
    59   30   32 1    
    60   30   92 1    
    61   31   93 1    
    62   31   94 1    
    63   31   95 1    
    64   32   33 am   BACKBONE|DICT|INTERRES
    65   32   96 1    
    66   33   34 2    
    67   33   35 1    
    68   35   36 1    
    69   35   37 1    
    70   35   97 1    
    71   36   98 1    
    72   36   99 1    
    73   36  100 1    
    74   37   38 am   BACKBONE|DICT|INTERRES
    75   37  101 1    
    76   38   39 2    
    77   38   40 1    
    78   40   41 1    
    79   40   42 1    
    80   40  102 1    
    81   41  103 1    
    82   41  104 1    
    83   41  105 1    
    84   42   43 am   BACKBONE|DICT|INTERRES
    85   42  106 1    
    86   43   44 2    
    87   43   45 1    
    88   45   46 1    
    89   45   49 1    
    90   45  107 1    
    91   46   47 1    
    92   46  108 1    
    93   46  109 1    
    94   47   48 1    
    95   48  110 1    
    96   48  111 1    
    97   49   50 am   BACKBONE|DICT|INTERRES
    98   49  112 1    
    99   50   51 2    
   100   50   52 1    
   101   52   53 1    
   102   52   54 1    
   103   52  113 1    
   104   53  114 1    
   105   53  115 1    
   106   53  116 1    
   107   54   55 am   BACKBONE|DICT|INTERRES
   108   54  117 1    
   109   55   56 2    
   110   55   57 1    
   111   57   58 1    
   112   57   59 1    
   113   57  118 1    
   114   58  119 1    
   115   58  120 1    
   116   58  121 1    
   117   59   60 am   BACKBONE|DICT|INTERRES
   118   59  122 1    
   119   60   61 2    
   120   60   62 1    
   121   62   63 1    
   122   62   64 1    
   123   62  123 1    
   124   63  124 1    
   125   63  125 1    
   126   63  126 1    
   127   64   65 am   BACKBONE|DICT|INTERRES
   128   64  127 1    
   129   65   66 2    
@<TRIPOS>SUBSTRUCTURE
     1 UNK         1 GROUP             0       ****    0 ROOT    
