@<TRIPOS>MOLECULE
3R134
127   129    1
SMALL
USER_CHARGES


@<TRIPOS>ATOM
      1 CA         36.5114  -41.1116  -55.6450 C.3       0 UNK        -0.1968 
      2 C          35.3759  -42.0971  -55.4097 C.2       0 UNK         0.4852 
      3 O          34.6174  -42.3855  -56.3362 O.2       0 UNK        -0.5359 
      4 N          35.2520  -42.6058  -54.1772 N.am      1 UNK        -0.4300 
      5 CA         34.2509  -43.5950  -53.7644 C.3       1 UNK         0.0863 
      6 C6         34.1744  -43.7225  -52.2212 C.3       11 UNK        -0.0953 
      7 S7         33.7553  -42.1299  -51.4282 S.3       11 UNK        -0.2369 
      8 C8         32.1711  -42.4890  -50.5945 C.3       11 UNK         0.0226 
      9 C9         31.0925  -43.0574  -51.5127 C.ar      11 UNK        -0.0699 
     10 C10        30.3195  -44.1388  -51.0762 C.ar      11 UNK        -0.0804 
     11 C11        29.3374  -44.6930  -51.9017 C.ar      11 UNK        -0.0871 
     12 C12        29.1197  -44.1465  -53.1691 C.ar      11 UNK        -0.1008 
     13 C13        29.9034  -43.0863  -53.6296 C.ar      11 UNK        -0.0735 
     14 C14        30.8685  -42.5261  -52.7888 C.ar      11 UNK        -0.0945 
     15 C15        29.7462  -42.6049  -55.0615 C.3       11 UNK         0.0169 
     16 S16        30.5963  -43.7615  -56.1791 S.3       11 UNK        -0.2669 
     17 C17        30.1136  -43.1558  -57.8329 C.3       11 UNK        -0.0850 
     18 CA         28.5965  -43.2480  -58.1660 C.3       10 UNK         0.0855 
     19 C          28.3467  -42.8856  -59.6598 C.2       10 UNK         0.5543 
     20 N          27.8548  -43.7944  -60.4927 N.am      10 UNK        -0.7343 
     21 O          28.6063  -41.7561  -60.0676 O.2       10 UNK        -0.5027 
     22 N          27.9943  -44.5129  -57.7090 N.am      10 UNK        -0.4495 
     23 C          26.6849  -44.7507  -57.5748 C.2       10 UNK         0.4903 
     24 O          25.8102  -43.9508  -57.9113 O.2       10 UNK        -0.4860 
     25 CA         26.2902  -46.0952  -56.9290 C.3       9 UNK         0.0227 
     26 CB         24.7661  -46.2646  -56.7857 C.3       9 UNK        -0.1964 
     27 N          26.8284  -47.2745  -57.6148 N.am      9 UNK        -0.4231 
     28 C          28.0983  -47.6932  -57.5834 C.2       9 UNK         0.5014 
     29 O          29.0077  -47.0596  -57.0464 O.2       9 UNK        -0.5270 
     30 CA         28.3855  -49.0680  -58.2161 C.3       8 UNK         0.0284 
     31 CB         29.8854  -49.4182  -58.2103 C.3       8 UNK        -0.1977 
     32 N          27.6503  -50.1364  -57.5323 N.am      8 UNK        -0.4342 
     33 C          26.3586  -50.4352  -57.7315 C.2       8 UNK         0.5039 
     34 O          25.6311  -49.8155  -58.5093 O.2       8 UNK        -0.5547 
     35 CA         25.7769  -51.5902  -56.9051 C.3       7 UNK         0.0281 
     36 CB         26.3853  -52.9374  -57.3317 C.3       7 UNK        -0.1963 
     37 N          26.0333  -51.3628  -55.4846 N.am      7 UNK        -0.4444 
     38 C          25.1416  -50.8752  -54.6097 C.2       7 UNK         0.5104 
     39 O          23.9547  -50.6784  -54.8716 O.2       7 UNK        -0.5100 
     40 CA         25.6689  -50.5252  -53.2027 C.3       6 UNK         0.0396 
     41 CB         25.5109  -51.7230  -52.2534 C.3       6 UNK        -0.1801 
     42 N          27.0714  -50.1011  -53.2215 N.am      6 UNK        -0.4747 
     43 C          27.5160  -48.9893  -53.8261 C.2       6 UNK         0.5012 
     44 O          26.7666  -48.1084  -54.2446 O.2       6 UNK        -0.5003 
     45 CA         29.0383  -48.8560  -54.0551 C.3       5 UNK         0.0782 
     46 C46        29.6333  -47.5691  -53.4450 C.3       11 UNK        -0.0868 
     47 S47        29.4997  -47.4467  -51.6267 S.3       11 UNK        -0.2515 
     48 C48        28.5408  -45.9062  -51.4394 C.3       11 UNK         0.0199 
     49 N          29.8281  -50.0497  -53.7323 N.am      5 UNK        -0.4607 
     50 C          29.7765  -51.2028  -54.4138 C.2       4 UNK         0.5031 
     51 O          28.9550  -51.4223  -55.3085 O.2       4 UNK        -0.5119 
     52 CA         30.8290  -52.2635  -54.0351 C.3       4 UNK         0.0263 
     53 CB         30.7853  -53.5019  -54.9559 C.3       4 UNK        -0.1967 
     54 N          32.1854  -51.6960  -53.9749 N.am      4 UNK        -0.4237 
     55 C          32.8340  -51.0742  -54.9717 C.2       3 UNK         0.4908 
     56 O          32.4074  -50.9730  -56.1244 O.2       3 UNK        -0.5102 
     57 CA         34.1984  -50.4565  -54.6292 C.3       3 UNK         0.0241 
     58 CB         35.3435  -51.3572  -55.1202 C.3       3 UNK        -0.1971 
     59 N          34.2994  -49.1458  -55.2712 N.am      3 UNK        -0.4139 
     60 C          33.7369  -48.0330  -54.7843 C.2       2 UNK         0.5016 
     61 O          33.2485  -47.9492  -53.6548 O.2       2 UNK        -0.5319 
     62 CA         33.6544  -46.8416  -55.7537 C.3       2 UNK         0.0286 
     63 CB         32.4396  -47.0024  -56.6820 C.3       2 UNK        -0.1963 
     64 N          33.5449  -45.5570  -55.0602 N.am      2 UNK        -0.4790 
     65 C          34.5541  -44.9579  -54.4174 C.2       1 UNK         0.5024 
     66 O          35.6922  -45.4289  -54.3385 O.2       1 UNK        -0.4888 
     67 H67        37.0939  -40.9362  -54.7406 H         1 UNK         0.0892 
     68 H68        36.1137  -40.1548  -55.9823 H         1 UNK         0.0892 
     69 H69        37.1843  -41.4915  -56.4133 H         1 UNK         0.0892 
     70 H70        35.9109  -42.3372  -53.4609 H         1 UNK         0.3107 
     71 H71        33.2803  -43.2517  -54.1283 H         1 UNK         0.0773 
     72 H72        35.1287  -44.0626  -51.8146 H         1 UNK         0.0680 
     73 H73        33.4395  -44.4779  -51.9365 H         1 UNK         0.0680 
     74 H74        32.3724  -43.1750  -49.7702 H         1 UNK         0.0650 
     75 H75        31.7968  -41.5684  -50.1452 H         1 UNK         0.0650 
     76 H76        30.4933  -44.5667  -50.0981 H         1 UNK         0.1397 
     77 H77        28.3737  -44.5765  -53.8236 H         1 UNK         0.1363 
     78 H78        31.4725  -41.7019  -53.1425 H         1 UNK         0.1355 
     79 H79        28.6863  -42.5498  -55.3122 H         1 UNK         0.0707 
     80 H80        30.1569  -41.6019  -55.1870 H         1 UNK         0.0707 
     81 H81        30.6883  -43.7374  -58.5565 H         1 UNK         0.1034 
     82 H82        30.4615  -42.1262  -57.9369 H         1 UNK         0.1034 
     83 H83        28.0988  -42.4598  -57.5988 H         1 UNK         0.0482 
     84 H84        27.6290  -44.7171  -60.1582 H         1 UNK         0.3460 
     85 H85        27.6941  -43.5496  -61.4570 H         1 UNK         0.3460 
     86 H86        28.6389  -45.2431  -57.4143 H         1 UNK         0.2989 
     87 H87        26.7089  -46.0758  -55.9213 H         1 UNK         0.0559 
     88 H88        24.3289  -45.4347  -56.2290 H         1 UNK         0.0848 
     89 H89        24.5210  -47.1780  -56.2425 H         1 UNK         0.0848 
     90 H90        24.2711  -46.3060  -57.7566 H         1 UNK         0.0848 
     91 H91        26.1564  -47.8900  -58.0631 H         1 UNK         0.3144 
     92 H92        28.0601  -49.0220  -59.2576 H         1 UNK         0.0727 
     93 H93        30.2838  -49.4867  -57.1973 H         1 UNK         0.0790 
     94 H94        30.4654  -48.6600  -58.7378 H         1 UNK         0.0790 
     95 H95        30.0735  -50.3712  -58.7047 H         1 UNK         0.0790 
     96 H96        28.1720  -50.6713  -56.8413 H         1 UNK         0.3215 
     97 H97        24.7020  -51.6313  -57.0952 H         1 UNK         0.0863 
     98 H98        25.9249  -53.7646  -56.7914 H         1 UNK         0.0808 
     99 H99        27.4601  -52.9800  -57.1501 H         1 UNK         0.0808 
    100 H100       26.2259  -53.1174  -58.3958 H         1 UNK         0.0808 
    101 H101       26.9981  -51.4630  -55.1843 H         1 UNK         0.3118 
    102 H102       25.0689  -49.6986  -52.8162 H         1 UNK         0.0546 
    103 H103       26.0992  -52.5811  -52.5811 H         1 UNK         0.0828 
    104 H104       24.4693  -52.0434  -52.2021 H         1 UNK         0.0828 
    105 H105       25.8200  -51.4698  -51.2392 H         1 UNK         0.0828 
    106 H106       27.7560  -50.7597  -52.8798 H         1 UNK         0.3005 
    107 H107       29.1383  -48.7412  -55.1334 H         1 UNK         0.1257 
    108 H108       29.1576  -46.7123  -53.9188 H         1 UNK         0.0775 
    109 H109       30.6864  -47.4839  -53.7113 H         1 UNK         0.0775 
    110 H110       28.2646  -45.7848  -50.3909 H         1 UNK         0.0840 
    111 H111       27.6045  -45.9912  -51.9940 H         1 UNK         0.0840 
    112 H112       30.5193  -49.9369  -53.0044 H         1 UNK         0.2987 
    113 H113       30.5820  -52.5950  -53.0254 H         1 UNK         0.0785 
    114 H114       31.5247  -54.2449  -54.6575 H         1 UNK         0.0798 
    115 H115       30.9730  -53.2415  -55.9981 H         1 UNK         0.0798 
    116 H116       29.8073  -53.9832  -54.9153 H         1 UNK         0.0798 
    117 H117       32.6309  -51.7306  -53.0678 H         1 UNK         0.3079 
    118 H118       34.2871  -50.3378  -53.5469 H         1 UNK         0.0794 
    119 H119       36.3165  -50.9239  -54.8874 H         1 UNK         0.0786 
    120 H120       35.2977  -51.5201  -56.1980 H         1 UNK         0.0786 
    121 H121       35.3019  -52.3363  -54.6410 H         1 UNK         0.0786 
    122 H122       34.6264  -49.1464  -56.2267 H         1 UNK         0.3032 
    123 H123       34.5620  -46.8258  -56.3618 H         1 UNK         0.1094 
    124 H124       32.3794  -46.1912  -57.4078 H         1 UNK         0.0794 
    125 H125       32.4912  -47.9358  -57.2439 H         1 UNK         0.0794 
    126 H126       31.5056  -47.0152  -56.1190 H         1 UNK         0.0794 
    127 H127       32.6356  -45.1146  -55.0724 H         1 UNK         0.3016 
@<TRIPOS>BOND
     1    1    2 1    
     2    1   67 1    
     3    1   68 1    
     4    1   69 1    
     5    2    3 2    
     6    2    4 am   BACKBONE|DICT|INTERRES
     7    4    5 1    
     8    4   70 1    
     9    5    6 1    
    10    5   65 1    
    11    5   71 1    
    12    6    7 1    
    13    6   72 1    
    14    6   73 1    
    15    7    8 1    
    16    8    9 1    
    17    8   74 1    
    18    8   75 1    
    19    9   10 ar   
    20    9   14 ar   
    21   10   11 ar   
    22   10   76 1    
    23   11   12 ar   
    24   11   48 1    
    25   12   13 ar   
    26   12   77 1    
    27   13   14 ar   
    28   13   15 1    
    29   14   78 1    
    30   15   16 1    
    31   15   79 1    
    32   15   80 1    
    33   16   17 1    
    34   17   18 1    
    35   17   81 1    
    36   17   82 1    
    37   18   19 1    
    38   18   22 1    
    39   18   83 1    
    40   19   20 am   BACKBONE|DICT|INTERRES
    41   19   21 2    
    42   20   84 1    
    43   20   85 1    
    44   22   23 am   BACKBONE|DICT|INTERRES
    45   22   86 1    
    46   23   24 2    
    47   23   25 1    
    48   25   26 1    
    49   25   27 1    
    50   25   87 1    
    51   26   88 1    
    52   26   89 1    
    53   26   90 1    
    54   27   28 am   BACKBONE|DICT|INTERRES
    55   27   91 1    
    56   28   29 2    
    57   28   30 1    
    58   30   31 1    
    59   30   32 1    
    60   30   92 1    
    61   31   93 1    
    62   31   94 1    
    63   31   95 1    
    64   32   33 am   BACKBONE|DICT|INTERRES
    65   32   96 1    
    66   33   34 2    
    67   33   35 1    
    68   35   36 1    
    69   35   37 1    
    70   35   97 1    
    71   36   98 1    
    72   36   99 1    
    73   36  100 1    
    74   37   38 am   BACKBONE|DICT|INTERRES
    75   37  101 1    
    76   38   39 2    
    77   38   40 1    
    78   40   41 1    
    79   40   42 1    
    80   40  102 1    
    81   41  103 1    
    82   41  104 1    
    83   41  105 1    
    84   42   43 am   BACKBONE|DICT|INTERRES
    85   42  106 1    
    86   43   44 2    
    87   43   45 1    
    88   45   46 1    
    89   45   49 1    
    90   45  107 1    
    91   46   47 1    
    92   46  108 1    
    93   46  109 1    
    94   47   48 1    
    95   48  110 1    
    96   48  111 1    
    97   49   50 am   BACKBONE|DICT|INTERRES
    98   49  112 1    
    99   50   51 2    
   100   50   52 1    
   101   52   53 1    
   102   52   54 1    
   103   52  113 1    
   104   53  114 1    
   105   53  115 1    
   106   53  116 1    
   107   54   55 am   BACKBONE|DICT|INTERRES
   108   54  117 1    
   109   55   56 2    
   110   55   57 1    
   111   57   58 1    
   112   57   59 1    
   113   57  118 1    
   114   58  119 1    
   115   58  120 1    
   116   58  121 1    
   117   59   60 am   BACKBONE|DICT|INTERRES
   118   59  122 1    
   119   60   61 2    
   120   60   62 1    
   121   62   63 1    
   122   62   64 1    
   123   62  123 1    
   124   63  124 1    
   125   63  125 1    
   126   63  126 1    
   127   64   65 am   BACKBONE|DICT|INTERRES
   128   64  127 1    
   129   65   66 2    
@<TRIPOS>SUBSTRUCTURE
     1 UNK         1 GROUP             0       ****    0 ROOT    
