@<TRIPOS>MOLECULE
3R134
127   129    1
SMALL
USER_CHARGES


@<TRIPOS>ATOM
      1 CA         37.6404  -46.1867  -50.6445 C.3       0 UNK        -0.1968 
      2 C          36.5701  -46.3435  -51.7140 C.2       0 UNK         0.4852 
      3 O          35.9157  -47.3862  -51.7715 O.2       0 UNK        -0.5359 
      4 N          36.4083  -45.3275  -52.5770 N.am      1 UNK        -0.4300 
      5 CA         35.3816  -45.2185  -53.6316 C.3       1 UNK         0.0863 
      6 C6         33.9427  -45.0793  -53.0557 C.3       11 UNK        -0.0953 
      7 S7         33.7783  -43.6585  -51.9244 S.3       11 UNK        -0.2369 
      8 C8         32.6592  -42.5685  -52.8686 C.3       11 UNK         0.0226 
      9 C9         31.1885  -42.9941  -52.8974 C.ar      11 UNK        -0.0699 
     10 C10        30.6140  -43.7945  -51.8996 C.ar      11 UNK        -0.0804 
     11 C11        29.2490  -44.1006  -51.9179 C.ar      11 UNK        -0.0871 
     12 C12        28.4475  -43.5675  -52.9344 C.ar      11 UNK        -0.1008 
     13 C13        29.0097  -42.8032  -53.9598 C.ar      11 UNK        -0.0735 
     14 C14        30.3773  -42.5180  -53.9322 C.ar      11 UNK        -0.0945 
     15 C15        28.1345  -42.2712  -55.0870 C.3       11 UNK         0.0169 
     16 S16        27.3550  -43.6113  -56.0435 S.3       11 UNK        -0.2669 
     17 C17        28.7981  -44.4397  -56.8017 C.3       11 UNK        -0.0850 
     18 CA         28.5263  -44.8886  -58.2617 C.3       10 UNK         0.0855 
     19 C          29.8011  -45.4980  -58.9177 C.2       10 UNK         0.5543 
     20 N          29.7645  -46.7023  -59.4776 N.am      10 UNK        -0.7343 
     21 O          30.8480  -44.8559  -58.9278 O.2       10 UNK        -0.5027 
     22 N          27.3330  -45.7464  -58.3644 N.am      10 UNK        -0.4495 
     23 C          26.5513  -45.8207  -59.4496 C.2       10 UNK         0.4903 
     24 O          26.7137  -45.1255  -60.4543 O.2       10 UNK        -0.4860 
     25 CA         25.3987  -46.8458  -59.4090 C.3       9 UNK         0.0227 
     26 CB         24.8496  -47.1815  -60.8119 C.3       9 UNK        -0.1964 
     27 N          25.7262  -48.0785  -58.6818 N.am      9 UNK        -0.4231 
     28 C          26.7439  -48.9234  -58.9223 C.2       9 UNK         0.5014 
     29 O          27.5707  -48.7514  -59.8194 O.2       9 UNK        -0.5270 
     30 CA         26.8924  -50.1451  -57.9936 C.3       8 UNK         0.0284 
     31 CB         28.3636  -50.3669  -57.5950 C.3       8 UNK        -0.1977 
     32 N          26.0963  -49.9877  -56.7754 N.am      8 UNK        -0.4342 
     33 C          24.9762  -50.6590  -56.4760 C.2       8 UNK         0.5039 
     34 O          24.5159  -51.5675  -57.1681 O.2       8 UNK        -0.5547 
     35 CA         24.2241  -50.2374  -55.1966 C.3       7 UNK         0.0281 
     36 CB         24.5416  -51.2065  -54.0461 C.3       7 UNK        -0.1963 
     37 N          24.5123  -48.8662  -54.7605 N.am      7 UNK        -0.4444 
     38 C          24.2119  -47.7566  -55.4507 C.2       7 UNK         0.5104 
     39 O          23.6034  -47.7620  -56.5203 O.2       7 UNK        -0.5100 
     40 CA         24.7578  -46.4269  -54.8997 C.3       6 UNK         0.0396 
     41 CB         23.7264  -45.7565  -53.9804 C.3       6 UNK        -0.1801 
     42 N          26.0360  -46.5528  -54.1876 N.am      6 UNK        -0.4747 
     43 C          27.1729  -47.0337  -54.7061 C.2       6 UNK         0.5012 
     44 O          27.2461  -47.4814  -55.8563 O.2       6 UNK        -0.5003 
     45 CA         28.4342  -47.0215  -53.8163 C.3       5 UNK         0.0782 
     46 C46        28.2029  -47.3730  -52.3176 C.3       11 UNK        -0.0868 
     47 S47        27.3180  -46.0897  -51.3595 S.3       11 UNK        -0.2515 
     48 C48        28.6613  -44.9771  -50.8114 C.3       11 UNK         0.0199 
     49 N          29.4074  -47.8943  -54.4643 N.am      5 UNK        -0.4607 
     50 C          30.7253  -47.9048  -54.2634 C.2       4 UNK         0.5031 
     51 O          31.2987  -47.2214  -53.4141 O.2       4 UNK        -0.5119 
     52 CA         31.5262  -48.8088  -55.2119 C.3       4 UNK         0.0263 
     53 CB         31.6993  -48.1286  -56.5809 C.3       4 UNK        -0.1967 
     54 N          32.8447  -49.1038  -54.6532 N.am      4 UNK        -0.4237 
     55 C          33.1226  -50.1643  -53.8807 C.2       3 UNK         0.4908 
     56 O          32.2933  -51.0361  -53.6129 O.2       3 UNK        -0.5102 
     57 CA         34.5424  -50.2791  -53.2817 C.3       3 UNK         0.0241 
     58 CB         35.0515  -51.7363  -53.2390 C.3       3 UNK        -0.1971 
     59 N          35.5338  -49.3868  -53.8940 N.am      3 UNK        -0.4139 
     60 C          35.9949  -49.4029  -55.1567 C.2       2 UNK         0.5016 
     61 O          35.7112  -50.2747  -55.9796 O.2       2 UNK        -0.5319 
     62 CA         36.8994  -48.2203  -55.5780 C.3       2 UNK         0.0286 
     63 CB         36.8357  -47.9380  -57.0945 C.3       2 UNK        -0.1963 
     64 N          36.6421  -46.9888  -54.8132 N.am      2 UNK        -0.4790 
     65 C          35.4672  -46.3470  -54.6884 C.2       1 UNK         0.5024 
     66 O          34.4651  -46.6571  -55.3319 O.2       1 UNK        -0.4888 
     67 H67        38.1537  -45.2281  -50.7171 H         1 UNK         0.0892 
     68 H68        37.1909  -46.2560  -49.6543 H         1 UNK         0.0892 
     69 H69        38.3833  -46.9783  -50.7378 H         1 UNK         0.0892 
     70 H70        36.9965  -44.5114  -52.4776 H         1 UNK         0.3107 
     71 H71        35.6060  -44.3008  -54.1773 H         1 UNK         0.0773 
     72 H72        33.2083  -44.9730  -53.8565 H         1 UNK         0.0680 
     73 H73        33.6573  -45.9813  -52.5117 H         1 UNK         0.0680 
     74 H74        33.0439  -42.4756  -53.8855 H         1 UNK         0.0650 
     75 H75        32.7111  -41.5716  -52.4292 H         1 UNK         0.0650 
     76 H76        31.2242  -44.1737  -51.0923 H         1 UNK         0.1397 
     77 H77        27.3852  -43.7687  -52.9514 H         1 UNK         0.1363 
     78 H78        30.8103  -41.9035  -54.7099 H         1 UNK         0.1355 
     79 H79        28.7052  -41.6332  -55.7636 H         1 UNK         0.0707 
     80 H80        27.3514  -41.6431  -54.6601 H         1 UNK         0.0707 
     81 H81        29.6475  -43.7545  -56.7740 H         1 UNK         0.1034 
     82 H82        29.0854  -45.2925  -56.1873 H         1 UNK         0.1034 
     83 H83        28.3260  -43.9771  -58.8280 H         1 UNK         0.0482 
     84 H84        28.9077  -47.2429  -59.5141 H         1 UNK         0.3460 
     85 H85        30.6008  -47.0674  -59.9032 H         1 UNK         0.3460 
     86 H86        27.1572  -46.3627  -57.5789 H         1 UNK         0.2989 
     87 H87        24.5950  -46.3689  -58.8463 H         1 UNK         0.0559 
     88 H88        24.4799  -46.2868  -61.3142 H         1 UNK         0.0848 
     89 H89        25.6170  -47.6200  -61.4508 H         1 UNK         0.0848 
     90 H90        24.0185  -47.8844  -60.7551 H         1 UNK         0.0848 
     91 H91        25.1017  -48.2924  -57.9124 H         1 UNK         0.3144 
     92 H92        26.5564  -51.0169  -58.5582 H         1 UNK         0.0727 
     93 H93        28.4687  -51.2131  -56.9159 H         1 UNK         0.0790 
     94 H94        28.7833  -49.4880  -57.1071 H         1 UNK         0.0790 
     95 H95        28.9803  -50.5781  -58.4697 H         1 UNK         0.0790 
     96 H96        26.3803  -49.2201  -56.1746 H         1 UNK         0.3215 
     97 H97        23.1555  -50.2995  -55.4143 H         1 UNK         0.0863 
     98 H98        24.3094  -52.2348  -54.3272 H         1 UNK         0.0808 
     99 H99        25.5965  -51.1753  -53.7702 H         1 UNK         0.0808 
    100 H100       23.9533  -50.9761  -53.1577 H         1 UNK         0.0808 
    101 H101       25.0149  -48.7588  -53.8913 H         1 UNK         0.3118 
    102 H102       24.9284  -45.7692  -55.7547 H         1 UNK         0.0546 
    103 H103       22.7709  -45.6303  -54.4917 H         1 UNK         0.0828 
    104 H104       24.0581  -44.7656  -53.6697 H         1 UNK         0.0828 
    105 H105       23.5408  -46.3464  -53.0819 H         1 UNK         0.0828 
    106 H106       26.0615  -46.2172  -53.2321 H         1 UNK         0.3005 
    107 H107       28.8427  -46.0140  -53.8805 H         1 UNK         0.1257 
    108 H108       29.1573  -47.5480  -51.8195 H         1 UNK         0.0775 
    109 H109       27.6545  -48.3125  -52.2297 H         1 UNK         0.0775 
    110 H110       28.2688  -44.3223  -50.0325 H         1 UNK         0.0840 
    111 H111       29.4420  -45.5778  -50.3417 H         1 UNK         0.0840 
    112 H112       29.0133  -48.4282  -55.2276 H         1 UNK         0.2987 
    113 H113       30.9745  -49.7399  -55.3592 H         1 UNK         0.0785 
    114 H114       30.7371  -47.9868  -57.0729 H         1 UNK         0.0798 
    115 H115       32.3179  -48.7287  -57.2483 H         1 UNK         0.0798 
    116 H116       32.1605  -47.1446  -56.4912 H         1 UNK         0.0798 
    117 H117       33.5489  -48.3856  -54.7882 H         1 UNK         0.3079 
    118 H118       34.4489  -49.9382  -52.2495 H         1 UNK         0.0794 
    119 H119       34.3964  -52.3625  -52.6323 H         1 UNK         0.0786 
    120 H120       36.0482  -51.7959  -52.8019 H         1 UNK         0.0786 
    121 H121       35.0928  -52.1815  -54.2334 H         1 UNK         0.0786 
    122 H122       35.8162  -48.6131  -53.2958 H         1 UNK         0.3032 
    123 H123       37.9195  -48.5268  -55.3404 H         1 UNK         0.1094 
    124 H124       37.4821  -47.1053  -57.3710 H         1 UNK         0.0794 
    125 H125       37.1645  -48.8050  -57.6689 H         1 UNK         0.0794 
    126 H126       35.8226  -47.6993  -57.4200 H         1 UNK         0.0794 
    127 H127       37.4070  -46.6639  -54.2376 H         1 UNK         0.3016 
@<TRIPOS>BOND
     1    1    2 1    
     2    1   67 1    
     3    1   68 1    
     4    1   69 1    
     5    2    3 2    
     6    2    4 am   BACKBONE|DICT|INTERRES
     7    4    5 1    
     8    4   70 1    
     9    5    6 1    
    10    5   65 1    
    11    5   71 1    
    12    6    7 1    
    13    6   72 1    
    14    6   73 1    
    15    7    8 1    
    16    8    9 1    
    17    8   74 1    
    18    8   75 1    
    19    9   10 ar   
    20    9   14 ar   
    21   10   11 ar   
    22   10   76 1    
    23   11   12 ar   
    24   11   48 1    
    25   12   13 ar   
    26   12   77 1    
    27   13   14 ar   
    28   13   15 1    
    29   14   78 1    
    30   15   16 1    
    31   15   79 1    
    32   15   80 1    
    33   16   17 1    
    34   17   18 1    
    35   17   81 1    
    36   17   82 1    
    37   18   19 1    
    38   18   22 1    
    39   18   83 1    
    40   19   20 am   BACKBONE|DICT|INTERRES
    41   19   21 2    
    42   20   84 1    
    43   20   85 1    
    44   22   23 am   BACKBONE|DICT|INTERRES
    45   22   86 1    
    46   23   24 2    
    47   23   25 1    
    48   25   26 1    
    49   25   27 1    
    50   25   87 1    
    51   26   88 1    
    52   26   89 1    
    53   26   90 1    
    54   27   28 am   BACKBONE|DICT|INTERRES
    55   27   91 1    
    56   28   29 2    
    57   28   30 1    
    58   30   31 1    
    59   30   32 1    
    60   30   92 1    
    61   31   93 1    
    62   31   94 1    
    63   31   95 1    
    64   32   33 am   BACKBONE|DICT|INTERRES
    65   32   96 1    
    66   33   34 2    
    67   33   35 1    
    68   35   36 1    
    69   35   37 1    
    70   35   97 1    
    71   36   98 1    
    72   36   99 1    
    73   36  100 1    
    74   37   38 am   BACKBONE|DICT|INTERRES
    75   37  101 1    
    76   38   39 2    
    77   38   40 1    
    78   40   41 1    
    79   40   42 1    
    80   40  102 1    
    81   41  103 1    
    82   41  104 1    
    83   41  105 1    
    84   42   43 am   BACKBONE|DICT|INTERRES
    85   42  106 1    
    86   43   44 2    
    87   43   45 1    
    88   45   46 1    
    89   45   49 1    
    90   45  107 1    
    91   46   47 1    
    92   46  108 1    
    93   46  109 1    
    94   47   48 1    
    95   48  110 1    
    96   48  111 1    
    97   49   50 am   BACKBONE|DICT|INTERRES
    98   49  112 1    
    99   50   51 2    
   100   50   52 1    
   101   52   53 1    
   102   52   54 1    
   103   52  113 1    
   104   53  114 1    
   105   53  115 1    
   106   53  116 1    
   107   54   55 am   BACKBONE|DICT|INTERRES
   108   54  117 1    
   109   55   56 2    
   110   55   57 1    
   111   57   58 1    
   112   57   59 1    
   113   57  118 1    
   114   58  119 1    
   115   58  120 1    
   116   58  121 1    
   117   59   60 am   BACKBONE|DICT|INTERRES
   118   59  122 1    
   119   60   61 2    
   120   60   62 1    
   121   62   63 1    
   122   62   64 1    
   123   62  123 1    
   124   63  124 1    
   125   63  125 1    
   126   63  126 1    
   127   64   65 am   BACKBONE|DICT|INTERRES
   128   64  127 1    
   129   65   66 2    
@<TRIPOS>SUBSTRUCTURE
     1 UNK         1 GROUP             0       ****    0 ROOT    
