@<TRIPOS>MOLECULE
3R134
127   129    1
SMALL
USER_CHARGES


@<TRIPOS>ATOM
      1 CA         29.7684  -45.3147  -50.5887 C.3       0 UNK        -0.1968 
      2 C          31.1085  -45.3680  -51.3068 C.2       0 UNK         0.4852 
      3 O          31.1627  -45.8219  -52.4478 O.2       0 UNK        -0.5359 
      4 N          32.1823  -44.9194  -50.6404 N.am      1 UNK        -0.4300 
      5 CA         33.5795  -44.8461  -51.1011 C.3       1 UNK         0.0863 
      6 C6         33.7951  -44.0069  -52.3882 C.3       11 UNK        -0.0953 
      7 S7         33.2953  -42.2654  -52.1819 S.3       11 UNK        -0.2369 
      8 C8         33.8059  -41.5622  -53.7829 C.3       11 UNK         0.0226 
      9 C9         32.9349  -42.0746  -54.9200 C.ar      11 UNK        -0.0699 
     10 C10        33.3614  -43.1476  -55.7081 C.ar      11 UNK        -0.0804 
     11 C11        32.5367  -43.6654  -56.7118 C.ar      11 UNK        -0.0871 
     12 C12        31.2895  -43.0760  -56.9461 C.ar      11 UNK        -0.1008 
     13 C13        30.8636  -41.9859  -56.1801 C.ar      11 UNK        -0.0735 
     14 C14        31.6904  -41.4894  -55.1686 C.ar      11 UNK        -0.0945 
     15 C15        29.5002  -41.3607  -56.4279 C.3       11 UNK         0.0169 
     16 S16        28.2657  -42.0681  -55.2982 S.3       11 UNK        -0.2669 
     17 C17        26.6959  -41.4427  -56.0048 C.3       11 UNK        -0.0850 
     18 CA         25.9462  -42.4578  -56.9171 C.3       10 UNK         0.0855 
     19 C          26.4583  -42.4066  -58.3835 C.2       10 UNK         0.5543 
     20 N          25.9216  -41.5021  -59.1911 N.am      10 UNK        -0.7343 
     21 O          27.3618  -43.1381  -58.7822 O.2       10 UNK        -0.5027 
     22 N          25.9790  -43.8078  -56.3439 N.am      10 UNK        -0.4495 
     23 C          25.2429  -44.8540  -56.7271 C.2       10 UNK         0.4903 
     24 O          24.3002  -44.7947  -57.5200 O.2       10 UNK        -0.4860 
     25 CA         25.6051  -46.1810  -56.0374 C.3       9 UNK         0.0227 
     26 CB         24.7709  -46.3567  -54.7573 C.3       9 UNK        -0.1964 
     27 N          25.4630  -47.3802  -56.8690 N.am      9 UNK        -0.4231 
     28 C          25.9786  -47.5810  -58.0922 C.2       9 UNK         0.5014 
     29 O          26.5504  -46.7239  -58.7677 O.2       9 UNK        -0.5270 
     30 CA         25.9156  -49.0299  -58.5938 C.3       8 UNK         0.0284 
     31 CB         26.4756  -49.2161  -60.0177 C.3       8 UNK        -0.1977 
     32 N          26.6740  -49.8524  -57.6540 N.am      8 UNK        -0.4342 
     33 C          26.3467  -51.0901  -57.2640 C.2       8 UNK         0.5039 
     34 O          25.3934  -51.7188  -57.7266 O.2       8 UNK        -0.5547 
     35 CA         27.2088  -51.7469  -56.1656 C.3       7 UNK         0.0281 
     36 CB         28.2134  -52.7264  -56.7944 C.3       7 UNK        -0.1963 
     37 N          27.9336  -50.7998  -55.3112 N.am      7 UNK        -0.4444 
     38 C          27.3714  -49.8615  -54.5355 C.2       7 UNK         0.5104 
     39 O          26.1555  -49.7367  -54.3882 O.2       7 UNK        -0.5100 
     40 CA         28.3167  -48.8617  -53.8425 C.3       6 UNK         0.0396 
     41 CB         28.6277  -49.3186  -52.4100 C.3       6 UNK        -0.1801 
     42 N          29.5761  -48.6187  -54.5560 N.am      6 UNK        -0.4747 
     43 C          29.6868  -48.1426  -55.8059 C.2       6 UNK         0.5012 
     44 O          28.7239  -47.9075  -56.5322 O.2       6 UNK        -0.5003 
     45 CA         31.1090  -47.9509  -56.3576 C.3       5 UNK         0.0782 
     46 C46        31.7816  -46.7015  -55.7428 C.3       11 UNK        -0.0868 
     47 S47        33.3900  -46.3215  -56.5137 S.3       11 UNK        -0.2515 
     48 C48        32.9878  -44.8651  -57.5384 C.3       11 UNK         0.0199 
     49 N          31.8841  -49.1740  -56.1479 N.am      5 UNK        -0.4607 
     50 C          31.7864  -50.2679  -56.9145 C.2       4 UNK         0.5031 
     51 O          31.1006  -50.3296  -57.9346 O.2       4 UNK        -0.5119 
     52 CA         32.5742  -51.5116  -56.4658 C.3       4 UNK         0.0263 
     53 CB         33.9587  -51.5380  -57.1329 C.3       4 UNK        -0.1967 
     54 N          32.7350  -51.6038  -55.0123 N.am      4 UNK        -0.4237 
     55 C          31.7316  -51.7978  -54.1439 C.2       3 UNK         0.4908 
     56 O          30.5578  -51.9599  -54.4755 O.2       3 UNK        -0.5102 
     57 CA         32.0962  -51.7519  -52.6493 C.3       3 UNK         0.0241 
     58 CB         32.5735  -53.1309  -52.1664 C.3       3 UNK        -0.1971 
     59 N          33.1057  -50.7359  -52.3237 N.am      3 UNK        -0.4139 
     60 C          32.9524  -49.4220  -52.5375 C.2       2 UNK         0.5016 
     61 O          31.9482  -48.9268  -53.0522 O.2       2 UNK        -0.5319 
     62 CA         34.1344  -48.5196  -52.1779 C.3       2 UNK         0.0286 
     63 CB         35.1708  -48.5095  -53.3175 C.3       2 UNK        -0.1963 
     64 N          33.6429  -47.1638  -51.9456 N.am      2 UNK        -0.4790 
     65 C          34.2606  -46.2255  -51.2221 C.2       1 UNK         0.5024 
     66 O          35.3367  -46.4131  -50.6518 O.2       1 UNK        -0.4888 
     67 H67        29.8553  -44.8881  -49.5897 H         1 UNK         0.0892 
     68 H68        29.0651  -44.7070  -51.1575 H         1 UNK         0.0892 
     69 H69        29.3538  -46.3181  -50.4958 H         1 UNK         0.0892 
     70 H70        32.0463  -44.5851  -49.6966 H         1 UNK         0.3107 
     71 H71        34.1087  -44.3308  -50.2975 H         1 UNK         0.0773 
     72 H72        33.2461  -44.4395  -53.2255 H         1 UNK         0.0680 
     73 H73        34.8481  -44.0155  -52.6764 H         1 UNK         0.0680 
     74 H74        34.8567  -41.7921  -53.9656 H         1 UNK         0.0650 
     75 H75        33.7355  -40.4749  -53.7290 H         1 UNK         0.0650 
     76 H76        34.3226  -43.6054  -55.5180 H         1 UNK         0.1397 
     77 H77        30.6409  -43.4704  -57.7171 H         1 UNK         0.1363 
     78 H78        31.3542  -40.6624  -54.5580 H         1 UNK         0.1355 
     79 H79        29.1960  -41.5258  -57.4621 H         1 UNK         0.0707 
     80 H80        29.5479  -40.2799  -56.2862 H         1 UNK         0.0707 
     81 H81        26.0510  -41.1952  -55.1603 H         1 UNK         0.1034 
     82 H82        26.8660  -40.4925  -56.5154 H         1 UNK         0.1034 
     83 H83        24.8961  -42.1587  -56.9402 H         1 UNK         0.0482 
     84 H84        26.2501  -41.4402  -60.1422 H         1 UNK         0.3460 
     85 H85        25.1862  -40.8886  -58.8756 H         1 UNK         0.3460 
     86 H86        26.7363  -43.9610  -55.6932 H         1 UNK         0.2989 
     87 H87        26.6580  -46.1352  -55.7514 H         1 UNK         0.0559 
     88 H88        24.8721  -45.4922  -54.0996 H         1 UNK         0.0848 
     89 H89        25.0900  -47.2293  -54.1876 H         1 UNK         0.0848 
     90 H90        23.7098  -46.4710  -54.9826 H         1 UNK         0.0848 
     91 H91        25.0363  -48.1748  -56.4141 H         1 UNK         0.3144 
     92 H92        24.8641  -49.3257  -58.5914 H         1 UNK         0.0727 
     93 H93        26.3792  -50.2504  -60.3481 H         1 UNK         0.0790 
     94 H94        27.5304  -48.9439  -60.0734 H         1 UNK         0.0790 
     95 H95        25.9366  -48.5943  -60.7335 H         1 UNK         0.0790 
     96 H96        27.4541  -49.3809  -57.2019 H         1 UNK         0.3215 
     97 H97        26.5322  -52.3141  -55.5232 H         1 UNK         0.0863 
     98 H98        28.7449  -53.2947  -56.0310 H         1 UNK         0.0808 
     99 H99        28.9546  -52.2066  -57.4031 H         1 UNK         0.0808 
    100 H100       27.7084  -53.4476  -57.4385 H         1 UNK         0.0808 
    101 H101       28.9444  -50.8856  -55.2917 H         1 UNK         0.3118 
    102 H102       27.7926  -47.9055  -53.7875 H         1 UNK         0.0546 
    103 H103       29.1476  -50.2765  -52.4012 H         1 UNK         0.0828 
    104 H104       27.7120  -49.4372  -51.8294 H         1 UNK         0.0828 
    105 H105       29.2531  -48.5931  -51.8891 H         1 UNK         0.0828 
    106 H106       30.4321  -48.7694  -54.0216 H         1 UNK         0.3005 
    107 H107       31.0128  -47.7798  -57.4327 H         1 UNK         0.1257 
    108 H108       31.9567  -46.8461  -54.6772 H         1 UNK         0.0775 
    109 H109       31.1243  -45.8338  -55.8196 H         1 UNK         0.0775 
    110 H110       33.8716  -44.5845  -58.1127 H         1 UNK         0.0840 
    111 H111       32.2257  -45.1472  -58.2665 H         1 UNK         0.0840 
    112 H112       32.4266  -49.2138  -55.2971 H         1 UNK         0.2987 
    113 H113       32.0156  -52.3899  -56.7971 H         1 UNK         0.0785 
    114 H114       33.8681  -51.4972  -58.2194 H         1 UNK         0.0798 
    115 H115       34.5003  -52.4522  -56.8894 H         1 UNK         0.0798 
    116 H116       34.5722  -50.6899  -56.8256 H         1 UNK         0.0798 
    117 H117       33.6683  -51.4843  -54.6472 H         1 UNK         0.3079 
    118 H118       31.1880  -51.4976  -52.0999 H         1 UNK         0.0794 
    119 H119       32.7391  -53.1387  -51.0889 H         1 UNK         0.0786 
    120 H120       33.5025  -53.4324  -52.6520 H         1 UNK         0.0786 
    121 H121       31.8287  -53.8983  -52.3826 H         1 UNK         0.0786 
    122 H122       33.9640  -51.0675  -51.9066 H         1 UNK         0.3032 
    123 H123       34.5929  -48.8981  -51.2614 H         1 UNK         0.1094 
    124 H124       36.0320  -47.8901  -53.0669 H         1 UNK         0.0794 
    125 H125       35.5466  -49.5129  -53.5210 H         1 UNK         0.0794 
    126 H126       34.7435  -48.1244  -54.2446 H         1 UNK         0.0794 
    127 H127       32.7258  -46.9539  -52.3410 H         1 UNK         0.3016 
@<TRIPOS>BOND
     1    1    2 1    
     2    1   67 1    
     3    1   68 1    
     4    1   69 1    
     5    2    3 2    
     6    2    4 am   BACKBONE|DICT|INTERRES
     7    4    5 1    
     8    4   70 1    
     9    5    6 1    
    10    5   65 1    
    11    5   71 1    
    12    6    7 1    
    13    6   72 1    
    14    6   73 1    
    15    7    8 1    
    16    8    9 1    
    17    8   74 1    
    18    8   75 1    
    19    9   10 ar   
    20    9   14 ar   
    21   10   11 ar   
    22   10   76 1    
    23   11   12 ar   
    24   11   48 1    
    25   12   13 ar   
    26   12   77 1    
    27   13   14 ar   
    28   13   15 1    
    29   14   78 1    
    30   15   16 1    
    31   15   79 1    
    32   15   80 1    
    33   16   17 1    
    34   17   18 1    
    35   17   81 1    
    36   17   82 1    
    37   18   19 1    
    38   18   22 1    
    39   18   83 1    
    40   19   20 am   BACKBONE|DICT|INTERRES
    41   19   21 2    
    42   20   84 1    
    43   20   85 1    
    44   22   23 am   BACKBONE|DICT|INTERRES
    45   22   86 1    
    46   23   24 2    
    47   23   25 1    
    48   25   26 1    
    49   25   27 1    
    50   25   87 1    
    51   26   88 1    
    52   26   89 1    
    53   26   90 1    
    54   27   28 am   BACKBONE|DICT|INTERRES
    55   27   91 1    
    56   28   29 2    
    57   28   30 1    
    58   30   31 1    
    59   30   32 1    
    60   30   92 1    
    61   31   93 1    
    62   31   94 1    
    63   31   95 1    
    64   32   33 am   BACKBONE|DICT|INTERRES
    65   32   96 1    
    66   33   34 2    
    67   33   35 1    
    68   35   36 1    
    69   35   37 1    
    70   35   97 1    
    71   36   98 1    
    72   36   99 1    
    73   36  100 1    
    74   37   38 am   BACKBONE|DICT|INTERRES
    75   37  101 1    
    76   38   39 2    
    77   38   40 1    
    78   40   41 1    
    79   40   42 1    
    80   40  102 1    
    81   41  103 1    
    82   41  104 1    
    83   41  105 1    
    84   42   43 am   BACKBONE|DICT|INTERRES
    85   42  106 1    
    86   43   44 2    
    87   43   45 1    
    88   45   46 1    
    89   45   49 1    
    90   45  107 1    
    91   46   47 1    
    92   46  108 1    
    93   46  109 1    
    94   47   48 1    
    95   48  110 1    
    96   48  111 1    
    97   49   50 am   BACKBONE|DICT|INTERRES
    98   49  112 1    
    99   50   51 2    
   100   50   52 1    
   101   52   53 1    
   102   52   54 1    
   103   52  113 1    
   104   53  114 1    
   105   53  115 1    
   106   53  116 1    
   107   54   55 am   BACKBONE|DICT|INTERRES
   108   54  117 1    
   109   55   56 2    
   110   55   57 1    
   111   57   58 1    
   112   57   59 1    
   113   57  118 1    
   114   58  119 1    
   115   58  120 1    
   116   58  121 1    
   117   59   60 am   BACKBONE|DICT|INTERRES
   118   59  122 1    
   119   60   61 2    
   120   60   62 1    
   121   62   63 1    
   122   62   64 1    
   123   62  123 1    
   124   63  124 1    
   125   63  125 1    
   126   63  126 1    
   127   64   65 am   BACKBONE|DICT|INTERRES
   128   64  127 1    
   129   65   66 2    
@<TRIPOS>SUBSTRUCTURE
     1 UNK         1 GROUP             0       ****    0 ROOT    
