@<TRIPOS>MOLECULE
3R134
127   129    1
SMALL
USER_CHARGES


@<TRIPOS>ATOM
      1 CA         38.1891  -44.0785  -52.7817 C.3       0 UNK        -0.1968 
      2 C          37.3740  -45.2326  -53.3467 C.2       0 UNK         0.4852 
      3 O          37.9296  -46.3011  -53.6052 O.2       0 UNK        -0.5359 
      4 N          36.0659  -45.0197  -53.5453 N.am      1 UNK        -0.4300 
      5 CA         35.1130  -46.0101  -54.0591 C.3       1 UNK         0.0863 
      6 C6         33.7357  -45.3724  -54.3577 C.3       11 UNK        -0.0953 
      7 S7         33.7639  -44.3262  -55.8472 S.3       11 UNK        -0.2369 
      8 C8         32.0865  -44.6053  -56.5025 C.3       11 UNK         0.0226 
      9 C9         31.0432  -43.7839  -55.7569 C.ar      11 UNK        -0.0699 
     10 C10        30.6047  -44.1739  -54.4883 C.ar      11 UNK        -0.0804 
     11 C11        29.6576  -43.4165  -53.7942 C.ar      11 UNK        -0.0871 
     12 C12        29.1234  -42.2712  -54.3939 C.ar      11 UNK        -0.1008 
     13 C13        29.5417  -41.8769  -55.6690 C.ar      11 UNK        -0.0735 
     14 C14        30.5109  -42.6304  -56.3387 C.ar      11 UNK        -0.0945 
     15 C15        28.9586  -40.6321  -56.3234 C.3       11 UNK         0.0169 
     16 S16        28.0593  -41.0252  -57.8585 S.3       11 UNK        -0.2669 
     17 C17        26.5296  -41.8007  -57.2261 C.3       11 UNK        -0.0850 
     18 CA         26.6339  -43.3302  -56.9685 C.3       10 UNK         0.0855 
     19 C          25.2533  -43.9091  -56.5390 C.2       10 UNK         0.5543 
     20 N          24.6451  -44.8197  -57.2914 N.am      10 UNK        -0.7343 
     21 O          24.7198  -43.5149  -55.5051 O.2       10 UNK        -0.5027 
     22 N          27.2721  -44.0478  -58.0830 N.am      10 UNK        -0.4495 
     23 C          27.8438  -45.2511  -57.9704 C.2       10 UNK         0.4903 
     24 O          27.9611  -45.8686  -56.9119 O.2       10 UNK        -0.4860 
     25 CA         28.3515  -45.8833  -59.2758 C.3       9 UNK         0.0227 
     26 CB         29.8520  -46.2083  -59.1870 C.3       9 UNK        -0.1964 
     27 N          27.6068  -47.1027  -59.5906 N.am      9 UNK        -0.4231 
     28 C          26.2938  -47.1618  -59.8606 C.2       9 UNK         0.5014 
     29 O          25.5622  -46.1718  -59.9264 O.2       9 UNK        -0.5270 
     30 CA         25.6897  -48.5592  -60.0997 C.3       8 UNK         0.0284 
     31 CB         25.6527  -48.8781  -61.6033 C.3       8 UNK        -0.1977 
     32 N          26.3975  -49.6324  -59.3917 N.am      8 UNK        -0.4342 
     33 C          26.4082  -49.7775  -58.0593 C.2       8 UNK         0.5039 
     34 O          25.7640  -49.0497  -57.3009 O.2       8 UNK        -0.5547 
     35 CA         27.2720  -50.9235  -57.4940 C.3       7 UNK         0.0281 
     36 CB         28.6278  -51.0566  -58.2172 C.3       7 UNK        -0.1963 
     37 N          27.5185  -50.7220  -56.0652 N.am      7 UNK        -0.4444 
     38 C          26.7205  -51.1578  -55.0796 C.2       7 UNK         0.5104 
     39 O          25.7390  -51.8791  -55.2675 O.2       7 UNK        -0.5100 
     40 CA         27.0688  -50.7443  -53.6352 C.3       6 UNK         0.0396 
     41 CB         27.5150  -51.9673  -52.8170 C.3       6 UNK        -0.1801 
     42 N          28.1050  -49.7093  -53.5626 N.am      6 UNK        -0.4747 
     43 C          27.8811  -48.3972  -53.7525 C.2       6 UNK         0.5012 
     44 O          26.7556  -47.9318  -53.9296 O.2       6 UNK        -0.5003 
     45 CA         29.1069  -47.4475  -53.7518 C.3       5 UNK         0.0782 
     46 C46        29.2096  -46.6586  -52.4202 C.3       11 UNK        -0.0868 
     47 S47        28.0873  -45.2171  -52.3597 S.3       11 UNK        -0.2515 
     48 C48        29.2425  -43.8094  -52.3823 C.3       11 UNK         0.0199 
     49 N          30.3672  -48.1422  -54.0495 N.am      5 UNK        -0.4607 
     50 C          30.6455  -48.7484  -55.2142 C.2       4 UNK         0.5031 
     51 O          29.9066  -48.6952  -56.1946 O.2       4 UNK        -0.5119 
     52 CA         31.9124  -49.6227  -55.2926 C.3       4 UNK         0.0263 
     53 CB         32.9956  -48.9534  -56.1527 C.3       4 UNK        -0.1967 
     54 N          32.4614  -50.0044  -53.9843 N.am      4 UNK        -0.4237 
     55 C          31.8172  -50.7913  -53.1056 C.2       3 UNK         0.4908 
     56 O          30.7100  -51.2793  -53.3299 O.2       3 UNK        -0.5102 
     57 CA         32.4714  -51.0580  -51.7370 C.3       3 UNK         0.0241 
     58 CB         33.1404  -52.4418  -51.7265 C.3       3 UNK        -0.1971 
     59 N          33.4456  -50.0497  -51.3132 N.am      3 UNK        -0.4139 
     60 C          33.1930  -48.7484  -51.1167 C.2       2 UNK         0.5016 
     61 O          32.0855  -48.2323  -51.2825 O.2       2 UNK        -0.5319 
     62 CA         34.3902  -47.8520  -50.7361 C.3       2 UNK         0.0286 
     63 CB         35.6612  -48.6283  -50.3204 C.3       2 UNK        -0.1963 
     64 N          34.7078  -46.9038  -51.8111 N.am      2 UNK        -0.4790 
     65 C          34.9321  -47.2023  -53.1016 C.2       1 UNK         0.5024 
     66 O          34.9645  -48.3497  -53.5515 O.2       1 UNK        -0.4888 
     67 H67        38.9856  -43.8074  -53.4741 H         1 UNK         0.0892 
     68 H68        37.5777  -43.1936  -52.6058 H         1 UNK         0.0892 
     69 H69        38.6443  -44.3691  -51.8353 H         1 UNK         0.0892 
     70 H70        35.6791  -44.1094  -53.3406 H         1 UNK         0.3107 
     71 H71        35.5204  -46.4125  -54.9894 H         1 UNK         0.0773 
     72 H72        33.3944  -44.7702  -53.5137 H         1 UNK         0.0680 
     73 H73        32.9790  -46.1450  -54.4992 H         1 UNK         0.0680 
     74 H74        31.8301  -45.6652  -56.4639 H         1 UNK         0.0650 
     75 H75        32.0899  -44.3350  -57.5590 H         1 UNK         0.0650 
     76 H76        31.0099  -45.0634  -54.0331 H         1 UNK         0.1397 
     77 H77        28.3844  -41.6838  -53.8661 H         1 UNK         0.1363 
     78 H78        30.8398  -42.3212  -57.3214 H         1 UNK         0.1355 
     79 H79        28.2979  -40.0965  -55.6398 H         1 UNK         0.0707 
     80 H80        29.7733  -39.9468  -56.5610 H         1 UNK         0.0707 
     81 H81        25.7432  -41.6004  -57.9563 H         1 UNK         0.1034 
     82 H82        26.2235  -41.2842  -56.3143 H         1 UNK         0.1034 
     83 H83        27.2785  -43.4658  -56.0997 H         1 UNK         0.0482 
     84 H84        25.0734  -45.1583  -58.1449 H         1 UNK         0.3460 
     85 H85        23.7538  -45.1855  -56.9978 H         1 UNK         0.3460 
     86 H86        27.2033  -43.6116  -58.9904 H         1 UNK         0.2989 
     87 H87        28.2050  -45.1801  -60.0984 H         1 UNK         0.0559 
     88 H88        30.0693  -46.9038  -58.3746 H         1 UNK         0.0848 
     89 H89        30.4296  -45.3023  -59.0045 H         1 UNK         0.0848 
     90 H90        30.2227  -46.6458  -60.1139 H         1 UNK         0.0848 
     91 H91        28.1129  -47.9716  -59.5148 H         1 UNK         0.3144 
     92 H92        24.6613  -48.5353  -59.7327 H         1 UNK         0.0727 
     93 H93        25.1497  -49.8258  -61.7967 H         1 UNK         0.0790 
     94 H94        26.6545  -48.9340  -62.0311 H         1 UNK         0.0790 
     95 H95        25.1079  -48.1076  -62.1511 H         1 UNK         0.0790 
     96 H96        26.9265  -50.2810  -59.9571 H         1 UNK         0.3215 
     97 H97        26.7182  -51.8537  -57.6379 H         1 UNK         0.0863 
     98 H98        29.1581  -50.1052  -58.2682 H         1 UNK         0.0808 
     99 H99        28.5028  -51.4184  -59.2381 H         1 UNK         0.0808 
    100 H100       29.2780  -51.7699  -57.7101 H         1 UNK         0.0808 
    101 H101       28.2586  -50.0705  -55.8327 H         1 UNK         0.3118 
    102 H102       26.1559  -50.3558  -53.1790 H         1 UNK         0.0546 
    103 H103       27.7855  -51.6907  -51.7980 H         1 UNK         0.0828 
    104 H104       28.3718  -52.4666  -53.2700 H         1 UNK         0.0828 
    105 H105       26.7127  -52.7033  -52.7503 H         1 UNK         0.0828 
    106 H106       29.0568  -50.0389  -53.4344 H         1 UNK         0.3005 
    107 H107       28.9466  -46.7365  -54.5665 H         1 UNK         0.1257 
    108 H108       30.2303  -46.3090  -52.2628 H         1 UNK         0.0775 
    109 H109       29.0022  -47.3032  -51.5636 H         1 UNK         0.0775 
    110 H110       28.7569  -42.9655  -51.8900 H         1 UNK         0.0840 
    111 H111       30.1243  -44.0324  -51.7799 H         1 UNK         0.0840 
    112 H112       31.0100  -48.2536  -53.2742 H         1 UNK         0.2987 
    113 H113       31.6187  -50.5453  -55.7984 H         1 UNK         0.0785 
    114 H114       33.8620  -49.6034  -56.2758 H         1 UNK         0.0798 
    115 H115       32.6159  -48.7283  -57.1504 H         1 UNK         0.0798 
    116 H116       33.3408  -48.0168  -55.7212 H         1 UNK         0.0798 
    117 H117       33.3646  -49.6139  -53.7327 H         1 UNK         0.3079 
    118 H118       31.6679  -51.0618  -50.9974 H         1 UNK         0.0794 
    119 H119       33.5167  -52.6945  -50.7350 H         1 UNK         0.0786 
    120 H120       33.9749  -52.4919  -52.4272 H         1 UNK         0.0786 
    121 H121       32.4307  -53.2211  -52.0088 H         1 UNK         0.0786 
    122 H122       34.3969  -50.3660  -51.1926 H         1 UNK         0.3032 
    123 H123       34.0633  -47.2639  -49.8768 H         1 UNK         0.1094 
    124 H124       36.0855  -49.2053  -51.1430 H         1 UNK         0.0794 
    125 H125       36.4355  -47.9437  -49.9735 H         1 UNK         0.0794 
    126 H126       35.4558  -49.3149  -49.4978 H         1 UNK         0.0794 
    127 H127       34.6801  -45.9273  -51.5529 H         1 UNK         0.3016 
@<TRIPOS>BOND
     1    1    2 1    
     2    1   67 1    
     3    1   68 1    
     4    1   69 1    
     5    2    3 2    
     6    2    4 am   BACKBONE|DICT|INTERRES
     7    4    5 1    
     8    4   70 1    
     9    5    6 1    
    10    5   65 1    
    11    5   71 1    
    12    6    7 1    
    13    6   72 1    
    14    6   73 1    
    15    7    8 1    
    16    8    9 1    
    17    8   74 1    
    18    8   75 1    
    19    9   10 ar   
    20    9   14 ar   
    21   10   11 ar   
    22   10   76 1    
    23   11   12 ar   
    24   11   48 1    
    25   12   13 ar   
    26   12   77 1    
    27   13   14 ar   
    28   13   15 1    
    29   14   78 1    
    30   15   16 1    
    31   15   79 1    
    32   15   80 1    
    33   16   17 1    
    34   17   18 1    
    35   17   81 1    
    36   17   82 1    
    37   18   19 1    
    38   18   22 1    
    39   18   83 1    
    40   19   20 am   BACKBONE|DICT|INTERRES
    41   19   21 2    
    42   20   84 1    
    43   20   85 1    
    44   22   23 am   BACKBONE|DICT|INTERRES
    45   22   86 1    
    46   23   24 2    
    47   23   25 1    
    48   25   26 1    
    49   25   27 1    
    50   25   87 1    
    51   26   88 1    
    52   26   89 1    
    53   26   90 1    
    54   27   28 am   BACKBONE|DICT|INTERRES
    55   27   91 1    
    56   28   29 2    
    57   28   30 1    
    58   30   31 1    
    59   30   32 1    
    60   30   92 1    
    61   31   93 1    
    62   31   94 1    
    63   31   95 1    
    64   32   33 am   BACKBONE|DICT|INTERRES
    65   32   96 1    
    66   33   34 2    
    67   33   35 1    
    68   35   36 1    
    69   35   37 1    
    70   35   97 1    
    71   36   98 1    
    72   36   99 1    
    73   36  100 1    
    74   37   38 am   BACKBONE|DICT|INTERRES
    75   37  101 1    
    76   38   39 2    
    77   38   40 1    
    78   40   41 1    
    79   40   42 1    
    80   40  102 1    
    81   41  103 1    
    82   41  104 1    
    83   41  105 1    
    84   42   43 am   BACKBONE|DICT|INTERRES
    85   42  106 1    
    86   43   44 2    
    87   43   45 1    
    88   45   46 1    
    89   45   49 1    
    90   45  107 1    
    91   46   47 1    
    92   46  108 1    
    93   46  109 1    
    94   47   48 1    
    95   48  110 1    
    96   48  111 1    
    97   49   50 am   BACKBONE|DICT|INTERRES
    98   49  112 1    
    99   50   51 2    
   100   50   52 1    
   101   52   53 1    
   102   52   54 1    
   103   52  113 1    
   104   53  114 1    
   105   53  115 1    
   106   53  116 1    
   107   54   55 am   BACKBONE|DICT|INTERRES
   108   54  117 1    
   109   55   56 2    
   110   55   57 1    
   111   57   58 1    
   112   57   59 1    
   113   57  118 1    
   114   58  119 1    
   115   58  120 1    
   116   58  121 1    
   117   59   60 am   BACKBONE|DICT|INTERRES
   118   59  122 1    
   119   60   61 2    
   120   60   62 1    
   121   62   63 1    
   122   62   64 1    
   123   62  123 1    
   124   63  124 1    
   125   63  125 1    
   126   63  126 1    
   127   64   65 am   BACKBONE|DICT|INTERRES
   128   64  127 1    
   129   65   66 2    
@<TRIPOS>SUBSTRUCTURE
     1 UNK         1 GROUP             0       ****    0 ROOT    
