@<TRIPOS>MOLECULE
3R134
127   129    1
SMALL
USER_CHARGES


@<TRIPOS>ATOM
      1 CA         29.1813  -43.7664  -51.0979 C.3       0 UNK        -0.1968 
      2 C          30.3186  -44.4319  -50.3354 C.2       0 UNK         0.4852 
      3 O          30.1963  -44.6632  -49.1313 O.2       0 UNK        -0.5359 
      4 N          31.4220  -44.7319  -51.0309 N.am      1 UNK        -0.4300 
      5 CA         32.5855  -45.4599  -50.5170 C.3       1 UNK         0.0863 
      6 C6         33.8946  -44.9631  -51.1927 C.3       11 UNK        -0.0953 
      7 S7         33.9466  -45.2553  -52.9934 S.3       11 UNK        -0.2369 
      8 C8         33.6139  -43.5965  -53.6702 C.3       11 UNK         0.0226 
      9 C9         32.8713  -43.6913  -54.9958 C.ar      11 UNK        -0.0699 
     10 C10        33.5054  -44.2305  -56.1167 C.ar      11 UNK        -0.0804 
     11 C11        32.8186  -44.3613  -57.3256 C.ar      11 UNK        -0.0871 
     12 C12        31.4885  -43.9417  -57.4118 C.ar      11 UNK        -0.1008 
     13 C13        30.8350  -43.3958  -56.3023 C.ar      11 UNK        -0.0735 
     14 C14        31.5436  -43.2631  -55.0978 C.ar      11 UNK        -0.0945 
     15 C15        29.3678  -42.9862  -56.4629 C.3       11 UNK         0.0169 
     16 S16        28.4951  -42.5780  -54.9119 S.3       11 UNK        -0.2669 
     17 C17        26.7556  -42.8466  -55.3875 C.3       11 UNK        -0.0850 
     18 CA         26.3499  -44.3453  -55.2172 C.3       10 UNK         0.0855 
     19 C          25.0297  -44.5925  -54.4345 C.2       10 UNK         0.5543 
     20 N          24.8067  -45.8273  -54.0052 N.am      10 UNK        -0.7343 
     21 O          24.2166  -43.6965  -54.2193 O.2       10 UNK        -0.5027 
     22 N          26.3863  -45.1032  -56.4813 N.am      10 UNK        -0.4495 
     23 C          25.5636  -44.9224  -57.5236 C.2       10 UNK         0.4903 
     24 O          24.6922  -44.0538  -57.5684 O.2       10 UNK        -0.4860 
     25 CA         25.7433  -45.8386  -58.7414 C.3       9 UNK         0.0227 
     26 CB         26.6914  -45.1763  -59.7560 C.3       9 UNK        -0.1964 
     27 N          26.2568  -47.1706  -58.4039 N.am      9 UNK        -0.4231 
     28 C          25.4985  -48.2746  -58.3348 C.2       9 UNK         0.5014 
     29 O          24.2676  -48.2647  -58.3878 O.2       9 UNK        -0.5270 
     30 CA         26.2302  -49.6268  -58.2616 C.3       8 UNK         0.0284 
     31 CB         27.0803  -49.8648  -59.5220 C.3       8 UNK        -0.1977 
     32 N          27.0655  -49.7710  -57.0711 N.am      8 UNK        -0.4342 
     33 C          26.6037  -50.0101  -55.8361 C.2       8 UNK         0.5039 
     34 O          25.4119  -50.1575  -55.5626 O.2       8 UNK        -0.5547 
     35 CA         27.6513  -50.0852  -54.7083 C.3       7 UNK         0.0281 
     36 CB         28.2821  -51.4845  -54.6257 C.3       7 UNK        -0.1963 
     37 N          28.6994  -49.0714  -54.8525 N.am      7 UNK        -0.4444 
     38 C          28.4673  -47.7544  -54.7765 C.2       7 UNK         0.5104 
     39 O          27.3719  -47.2772  -54.4846 O.2       7 UNK        -0.5100 
     40 CA         29.6288  -46.8134  -55.1307 C.3       6 UNK         0.0396 
     41 CB         30.5082  -46.5565  -53.9045 C.3       6 UNK        -0.1801 
     42 N          30.4386  -47.3331  -56.2353 N.am      6 UNK        -0.4747 
     43 C          30.0401  -47.3238  -57.5155 C.2       6 UNK         0.5012 
     44 O          28.9825  -46.8151  -57.8859 O.2       6 UNK        -0.5003 
     45 CA         30.9104  -48.0641  -58.5528 C.3       5 UNK         0.0782 
     46 C46        31.8609  -47.1204  -59.3335 C.3       11 UNK        -0.0868 
     47 S47        33.4537  -46.7762  -58.5049 S.3       11 UNK        -0.2515 
     48 C48        33.5229  -44.9590  -58.5314 C.3       11 UNK         0.0199 
     49 N          31.6017  -49.2244  -57.9853 N.am      5 UNK        -0.4607 
     50 C          30.9919  -50.3372  -57.5595 C.2       4 UNK         0.5031 
     51 O          29.7818  -50.5292  -57.6656 O.2       4 UNK        -0.5119 
     52 CA         31.8690  -51.3814  -56.8467 C.3       4 UNK         0.0263 
     53 CB         32.4829  -52.3546  -57.8649 C.3       4 UNK        -0.1967 
     54 N          32.9325  -50.7807  -56.0317 N.am      4 UNK        -0.4237 
     55 C          32.7163  -49.9794  -54.9791 C.2       3 UNK         0.4908 
     56 O          31.5912  -49.6763  -54.5773 O.2       3 UNK        -0.5102 
     57 CA         33.9646  -49.3526  -54.3343 C.3       3 UNK         0.0241 
     58 CB         34.4023  -48.1159  -55.1364 C.3       3 UNK        -0.1971 
     59 N          33.7604  -48.9623  -52.9356 N.am      3 UNK        -0.4139 
     60 C          33.5716  -49.8167  -51.9194 C.2       2 UNK         0.5016 
     61 O          33.5396  -51.0407  -52.0611 O.2       2 UNK        -0.5319 
     62 CA         33.4453  -49.2335  -50.4958 C.3       2 UNK         0.0286 
     63 CB         34.5807  -49.7539  -49.5962 C.3       2 UNK        -0.1963 
     64 N          33.4512  -47.7662  -50.4447 N.am      2 UNK        -0.4790 
     65 C          32.3693  -46.9931  -50.6083 C.2       1 UNK         0.5024 
     66 O          31.2469  -47.4564  -50.8214 O.2       1 UNK        -0.4888 
     67 H67        29.4465  -43.5687  -52.1362 H         1 UNK         0.0892 
     68 H68        28.2997  -44.4068  -51.0908 H         1 UNK         0.0892 
     69 H69        28.9184  -42.8178  -50.6306 H         1 UNK         0.0892 
     70 H70        31.4493  -44.5437  -52.0213 H         1 UNK         0.3107 
     71 H71        32.6798  -45.2407  -49.4513 H         1 UNK         0.0773 
     72 H72        34.0247  -43.8975  -50.9975 H         1 UNK         0.0680 
     73 H73        34.7697  -45.4350  -50.7439 H         1 UNK         0.0680 
     74 H74        34.5583  -43.0695  -53.8117 H         1 UNK         0.0650 
     75 H75        33.0358  -43.0099  -52.9549 H         1 UNK         0.0650 
     76 H76        34.5300  -44.5686  -56.0403 H         1 UNK         0.1397 
     77 H77        30.9534  -44.0508  -58.3453 H         1 UNK         0.1363 
     78 H78        31.0670  -42.8424  -54.2253 H         1 UNK         0.1355 
     79 H79        28.8390  -43.8035  -56.9554 H         1 UNK         0.0707 
     80 H80        29.3080  -42.1282  -57.1337 H         1 UNK         0.0707 
     81 H81        26.1624  -42.1900  -54.7494 H         1 UNK         0.1034 
     82 H82        26.5880  -42.4858  -56.4029 H         1 UNK         0.1034 
     83 H83        27.1070  -44.8012  -54.5813 H         1 UNK         0.0482 
     84 H84        23.9637  -46.0410  -53.4969 H         1 UNK         0.3460 
     85 H85        25.5102  -46.5415  -54.1634 H         1 UNK         0.3460 
     86 H86        27.0471  -45.8662  -56.5157 H         1 UNK         0.2989 
     87 H87        24.7678  -45.9322  -59.2235 H         1 UNK         0.0559 
     88 H88        27.6831  -45.0046  -59.3362 H         1 UNK         0.0848 
     89 H89        26.3042  -44.2079  -60.0759 H         1 UNK         0.0848 
     90 H90        26.8073  -45.7889  -60.6501 H         1 UNK         0.0848 
     91 H91        27.2673  -47.2439  -58.3002 H         1 UNK         0.3144 
     92 H92        25.4685  -50.4092  -58.2319 H         1 UNK         0.0727 
     93 H93        27.8947  -49.1457  -59.6082 H         1 UNK         0.0790 
     94 H94        26.4730  -49.7801  -60.4242 H         1 UNK         0.0790 
     95 H95        27.5185  -50.8631  -59.5194 H         1 UNK         0.0790 
     96 H96        28.0723  -49.7702  -57.2128 H         1 UNK         0.3215 
     97 H97        27.1349  -49.8929  -53.7652 H         1 UNK         0.0863 
     98 H98        29.0122  -51.5442  -53.8182 H         1 UNK         0.0808 
     99 H99        28.7841  -51.7612  -55.5522 H         1 UNK         0.0808 
    100 H100       27.5204  -52.2409  -54.4325 H         1 UNK         0.0808 
    101 H101       29.6500  -49.3886  -55.0181 H         1 UNK         0.3118 
    102 H102       29.2065  -45.8553  -55.4383 H         1 UNK         0.0546 
    103 H103       29.9289  -46.0841  -53.1114 H         1 UNK         0.0828 
    104 H104       31.3369  -45.8976  -54.1494 H         1 UNK         0.0828 
    105 H105       30.9236  -47.4761  -53.4955 H         1 UNK         0.0828 
    106 H106       31.2900  -47.8175  -55.9894 H         1 UNK         0.3005 
    107 H107       30.2020  -48.4560  -59.2861 H         1 UNK         0.1257 
    108 H108       31.3550  -46.1886  -59.5923 H         1 UNK         0.0775 
    109 H109       32.1051  -47.5842  -60.2904 H         1 UNK         0.0775 
    110 H110       34.5697  -44.6514  -58.5293 H         1 UNK         0.0840 
    111 H111       33.1017  -44.5752  -59.4618 H         1 UNK         0.0840 
    112 H112       32.6001  -49.1297  -57.8689 H         1 UNK         0.2987 
    113 H113       31.2211  -51.9511  -56.1773 H         1 UNK         0.0785 
    114 H114       31.7063  -52.8275  -58.4681 H         1 UNK         0.0798 
    115 H115       33.0349  -53.1529  -57.3685 H         1 UNK         0.0798 
    116 H116       33.1646  -51.8490  -58.5500 H         1 UNK         0.0798 
    117 H117       33.8835  -50.9770  -56.3101 H         1 UNK         0.3079 
    118 H118       34.7710  -50.0887  -54.3573 H         1 UNK         0.0794 
    119 H119       33.6123  -47.3649  -55.1879 H         1 UNK         0.0786 
    120 H120       34.6635  -48.3832  -56.1608 H         1 UNK         0.0786 
    121 H121       35.2822  -47.6456  -54.6970 H         1 UNK         0.0786 
    122 H122       33.7502  -47.9730  -52.7351 H         1 UNK         0.3032 
    123 H123       32.4996  -49.6008  -50.0899 H         1 UNK         0.1094 
    124 H124       35.5601  -49.4392  -49.9588 H         1 UNK         0.0794 
    125 H125       34.4703  -49.3982  -48.5716 H         1 UNK         0.0794 
    126 H126       34.5833  -50.8442  -49.5571 H         1 UNK         0.0794 
    127 H127       34.3455  -47.3254  -50.2809 H         1 UNK         0.3016 
@<TRIPOS>BOND
     1    1    2 1    
     2    1   67 1    
     3    1   68 1    
     4    1   69 1    
     5    2    3 2    
     6    2    4 am   BACKBONE|DICT|INTERRES
     7    4    5 1    
     8    4   70 1    
     9    5    6 1    
    10    5   65 1    
    11    5   71 1    
    12    6    7 1    
    13    6   72 1    
    14    6   73 1    
    15    7    8 1    
    16    8    9 1    
    17    8   74 1    
    18    8   75 1    
    19    9   10 ar   
    20    9   14 ar   
    21   10   11 ar   
    22   10   76 1    
    23   11   12 ar   
    24   11   48 1    
    25   12   13 ar   
    26   12   77 1    
    27   13   14 ar   
    28   13   15 1    
    29   14   78 1    
    30   15   16 1    
    31   15   79 1    
    32   15   80 1    
    33   16   17 1    
    34   17   18 1    
    35   17   81 1    
    36   17   82 1    
    37   18   19 1    
    38   18   22 1    
    39   18   83 1    
    40   19   20 am   BACKBONE|DICT|INTERRES
    41   19   21 2    
    42   20   84 1    
    43   20   85 1    
    44   22   23 am   BACKBONE|DICT|INTERRES
    45   22   86 1    
    46   23   24 2    
    47   23   25 1    
    48   25   26 1    
    49   25   27 1    
    50   25   87 1    
    51   26   88 1    
    52   26   89 1    
    53   26   90 1    
    54   27   28 am   BACKBONE|DICT|INTERRES
    55   27   91 1    
    56   28   29 2    
    57   28   30 1    
    58   30   31 1    
    59   30   32 1    
    60   30   92 1    
    61   31   93 1    
    62   31   94 1    
    63   31   95 1    
    64   32   33 am   BACKBONE|DICT|INTERRES
    65   32   96 1    
    66   33   34 2    
    67   33   35 1    
    68   35   36 1    
    69   35   37 1    
    70   35   97 1    
    71   36   98 1    
    72   36   99 1    
    73   36  100 1    
    74   37   38 am   BACKBONE|DICT|INTERRES
    75   37  101 1    
    76   38   39 2    
    77   38   40 1    
    78   40   41 1    
    79   40   42 1    
    80   40  102 1    
    81   41  103 1    
    82   41  104 1    
    83   41  105 1    
    84   42   43 am   BACKBONE|DICT|INTERRES
    85   42  106 1    
    86   43   44 2    
    87   43   45 1    
    88   45   46 1    
    89   45   49 1    
    90   45  107 1    
    91   46   47 1    
    92   46  108 1    
    93   46  109 1    
    94   47   48 1    
    95   48  110 1    
    96   48  111 1    
    97   49   50 am   BACKBONE|DICT|INTERRES
    98   49  112 1    
    99   50   51 2    
   100   50   52 1    
   101   52   53 1    
   102   52   54 1    
   103   52  113 1    
   104   53  114 1    
   105   53  115 1    
   106   53  116 1    
   107   54   55 am   BACKBONE|DICT|INTERRES
   108   54  117 1    
   109   55   56 2    
   110   55   57 1    
   111   57   58 1    
   112   57   59 1    
   113   57  118 1    
   114   58  119 1    
   115   58  120 1    
   116   58  121 1    
   117   59   60 am   BACKBONE|DICT|INTERRES
   118   59  122 1    
   119   60   61 2    
   120   60   62 1    
   121   62   63 1    
   122   62   64 1    
   123   62  123 1    
   124   63  124 1    
   125   63  125 1    
   126   63  126 1    
   127   64   65 am   BACKBONE|DICT|INTERRES
   128   64  127 1    
   129   65   66 2    
@<TRIPOS>SUBSTRUCTURE
     1 UNK         1 GROUP             0       ****    0 ROOT    
