@<TRIPOS>MOLECULE
3R134
127   129    1
SMALL
USER_CHARGES


@<TRIPOS>ATOM
      1 CA         37.0304  -48.2152  -53.4767 C.3       0 UNK        -0.1968 
      2 C          37.1996  -47.0201  -52.5417 C.2       0 UNK         0.4852 
      3 O          38.0496  -47.0647  -51.6543 O.2       0 UNK        -0.5359 
      4 N          36.4272  -45.9347  -52.6943 N.am      1 UNK        -0.4300 
      5 CA         35.3471  -45.7408  -53.6714 C.3       1 UNK         0.0863 
      6 C6         35.1783  -44.2450  -54.0345 C.3       11 UNK        -0.0953 
      7 S7         34.7274  -43.1767  -52.6206 S.3       11 UNK        -0.2369 
      8 C8         33.6197  -41.9662  -53.4095 C.3       11 UNK         0.0226 
      9 C9         32.2733  -42.5665  -53.7919 C.ar      11 UNK        -0.0699 
     10 C10        31.2972  -42.7835  -52.8150 C.ar      11 UNK        -0.0804 
     11 C11        30.0402  -43.2949  -53.1567 C.ar      11 UNK        -0.0871 
     12 C12        29.7669  -43.5838  -54.5005 C.ar      11 UNK        -0.1008 
     13 C13        30.7400  -43.3851  -55.4841 C.ar      11 UNK        -0.0735 
     14 C14        31.9891  -42.8733  -55.1254 C.ar      11 UNK        -0.0945 
     15 C15        30.4430  -43.7235  -56.9351 C.3       11 UNK         0.0169 
     16 S16        29.8198  -42.2717  -57.8356 S.3       11 UNK        -0.2669 
     17 C17        29.4320  -43.0205  -59.4532 C.3       11 UNK        -0.0850 
     18 CA         27.9018  -43.2637  -59.6425 C.3       10 UNK         0.0855 
     19 C          27.2389  -42.3112  -60.6799 C.2       10 UNK         0.5543 
     20 N          26.2980  -42.7737  -61.4955 N.am      10 UNK        -0.7343 
     21 O          27.5670  -41.1289  -60.7407 O.2       10 UNK        -0.5027 
     22 N          27.6112  -44.6864  -59.8837 N.am      10 UNK        -0.4495 
     23 C          27.3554  -45.5845  -58.9276 C.2       10 UNK         0.4903 
     24 O          27.2989  -45.3137  -57.7255 O.2       10 UNK        -0.4860 
     25 CA         27.1541  -47.0320  -59.4049 C.3       9 UNK         0.0227 
     26 CB         28.4894  -47.6546  -59.8489 C.3       9 UNK        -0.1964 
     27 N          26.5998  -47.8408  -58.3224 N.am      9 UNK        -0.4231 
     28 C          25.2946  -48.0289  -58.0927 C.2       9 UNK         0.5014 
     29 O          24.4048  -47.6367  -58.8514 O.2       9 UNK        -0.5270 
     30 CA         24.9219  -48.7562  -56.7849 C.3       8 UNK         0.0284 
     31 CB         23.5022  -49.3629  -56.8074 C.3       8 UNK        -0.1977 
     32 N          25.9195  -49.7490  -56.3684 N.am      8 UNK        -0.4342 
     33 C          26.2749  -50.8749  -57.0075 C.2       8 UNK         0.5039 
     34 O          25.7481  -51.2644  -58.0508 O.2       8 UNK        -0.5547 
     35 CA         27.4230  -51.7121  -56.4058 C.3       7 UNK         0.0281 
     36 CB         28.6237  -51.7438  -57.3670 C.3       7 UNK        -0.1963 
     37 N          27.8778  -51.2433  -55.0931 N.am      7 UNK        -0.4444 
     38 C          27.2168  -51.4226  -53.9413 C.2       7 UNK         0.5104 
     39 O          26.1774  -52.0749  -53.8430 O.2       7 UNK        -0.5100 
     40 CA         27.7861  -50.7172  -52.6967 C.3       6 UNK         0.0396 
     41 CB         28.8374  -51.6009  -52.0082 C.3       6 UNK        -0.1801 
     42 N          28.3679  -49.4022  -52.9856 N.am      6 UNK        -0.4747 
     43 C          27.7020  -48.3489  -53.4841 C.2       6 UNK         0.5012 
     44 O          26.4999  -48.3629  -53.7480 O.2       6 UNK        -0.5003 
     45 CA         28.5403  -47.0948  -53.8042 C.3       5 UNK         0.0782 
     46 C46        28.8857  -46.2893  -52.5213 C.3       11 UNK        -0.0868 
     47 S47        27.7972  -44.8406  -52.3296 S.3       11 UNK        -0.2515 
     48 C48        29.0000  -43.4918  -52.0515 C.3       11 UNK         0.0199 
     49 N          29.7354  -47.4383  -54.5767 N.am      5 UNK        -0.4607 
     50 C          29.7271  -47.9851  -55.7995 C.2       4 UNK         0.5031 
     51 O          28.7057  -48.2120  -56.4465 O.2       4 UNK        -0.5119 
     52 CA         31.0904  -48.4025  -56.3684 C.3       4 UNK         0.0263 
     53 CB         31.7787  -47.2142  -57.0596 C.3       4 UNK        -0.1967 
     54 N          31.9605  -48.9529  -55.3245 N.am      4 UNK        -0.4237 
     55 C          31.7566  -50.1414  -54.7333 C.2       3 UNK         0.4908 
     56 O          30.8566  -50.9157  -55.0565 O.2       3 UNK        -0.5102 
     57 CA         32.6765  -50.5179  -53.5571 C.3       3 UNK         0.0241 
     58 CB         33.9569  -51.1954  -54.0705 C.3       3 UNK        -0.1971 
     59 N          33.0330  -49.3786  -52.7083 N.am      3 UNK        -0.4139 
     60 C          32.1612  -48.6256  -52.0229 C.2       2 UNK         0.5016 
     61 O          30.9549  -48.8586  -51.9663 O.2       2 UNK        -0.5319 
     62 CA         32.7150  -47.3703  -51.3249 C.3       2 UNK         0.0286 
     63 CB         33.0125  -47.6688  -49.8475 C.3       2 UNK        -0.1963 
     64 N          33.9103  -46.7896  -51.9523 N.am      2 UNK        -0.4790 
     65 C          34.0115  -46.3804  -53.2281 C.2       1 UNK         0.5024 
     66 O          33.1122  -46.5256  -54.0556 O.2       1 UNK        -0.4888 
     67 H67        35.9980  -48.5568  -53.5104 H         1 UNK         0.0892 
     68 H68        37.3487  -47.9579  -54.4866 H         1 UNK         0.0892 
     69 H69        37.6420  -49.0522  -53.1400 H         1 UNK         0.0892 
     70 H70        36.5720  -45.1514  -52.0720 H         1 UNK         0.3107 
     71 H71        35.6278  -46.2470  -54.5966 H         1 UNK         0.0773 
     72 H72        34.4402  -44.1417  -54.8301 H         1 UNK         0.0680 
     73 H73        36.1099  -43.8636  -54.4551 H         1 UNK         0.0680 
     74 H74        33.4591  -41.1383  -52.7175 H         1 UNK         0.0650 
     75 H75        34.1163  -41.5390  -54.2822 H         1 UNK         0.0650 
     76 H76        31.5189  -42.5427  -51.7841 H         1 UNK         0.1397 
     77 H77        28.7973  -43.9649  -54.7897 H         1 UNK         0.1363 
     78 H78        32.7360  -42.7047  -55.8890 H         1 UNK         0.1355 
     79 H79        31.3460  -44.0919  -57.4242 H         1 UNK         0.0707 
     80 H80        29.7127  -44.5319  -56.9864 H         1 UNK         0.0707 
     81 H81        29.9941  -43.9502  -59.5563 H         1 UNK         0.1034 
     82 H82        29.8407  -42.3704  -60.2292 H         1 UNK         0.1034 
     83 H83        27.3883  -42.9877  -58.7195 H         1 UNK         0.0482 
     84 H84        25.9672  -43.7223  -61.4239 H         1 UNK         0.3460 
     85 H85        25.8740  -42.1443  -62.1592 H         1 UNK         0.3460 
     86 H86        27.6441  -44.9828  -60.8491 H         1 UNK         0.2989 
     87 H87        26.4697  -47.0287  -60.2557 H         1 UNK         0.0559 
     88 H88        29.2266  -47.6442  -59.0467 H         1 UNK         0.0848 
     89 H89        28.9191  -47.1146  -60.6932 H         1 UNK         0.0848 
     90 H90        28.3565  -48.6900  -60.1631 H         1 UNK         0.0848 
     91 H91        27.2640  -48.1109  -57.5982 H         1 UNK         0.3144 
     92 H92        24.9318  -47.9871  -56.0114 H         1 UNK         0.0727 
     93 H93        23.3848  -50.0921  -57.6094 H         1 UNK         0.0790 
     94 H94        22.7491  -48.5891  -56.9608 H         1 UNK         0.0790 
     95 H95        23.2683  -49.8584  -55.8651 H         1 UNK         0.0790 
     96 H96        26.4213  -49.5102  -55.5202 H         1 UNK         0.3215 
     97 H97        27.0509  -52.7328  -56.2941 H         1 UNK         0.0863 
     98 H98        29.0306  -50.7464  -57.5342 H         1 UNK         0.0808 
     99 H99        28.3376  -52.1455  -58.3399 H         1 UNK         0.0808 
    100 H100       29.4256  -52.3736  -56.9814 H         1 UNK         0.0808 
    101 H101       28.7678  -50.7563  -55.0684 H         1 UNK         0.3118 
    102 H102       26.9614  -50.5625  -51.9981 H         1 UNK         0.0546 
    103 H103       29.2079  -51.1382  -51.0933 H         1 UNK         0.0828 
    104 H104       29.6928  -51.7890  -52.6574 H         1 UNK         0.0828 
    105 H105       28.4155  -52.5690  -51.7353 H         1 UNK         0.0828 
    106 H106       29.3528  -49.2781  -52.7528 H         1 UNK         0.3005 
    107 H107       27.9316  -46.4754  -54.4682 H         1 UNK         0.1257 
    108 H108       29.9191  -45.9435  -52.5568 H         1 UNK         0.0775 
    109 H109       28.8267  -46.8955  -51.6147 H         1 UNK         0.0775 
    110 H110       28.4491  -42.5587  -51.9279 H         1 UNK         0.0840 
    111 H111       29.4998  -43.6810  -51.1000 H         1 UNK         0.0840 
    112 H112       30.6257  -47.3001  -54.1204 H         1 UNK         0.2987 
    113 H113       30.9199  -49.1789  -57.1171 H         1 UNK         0.0785 
    114 H114       32.7428  -47.5023  -57.4785 H         1 UNK         0.0798 
    115 H115       31.1699  -46.8336  -57.8800 H         1 UNK         0.0798 
    116 H116       31.9456  -46.3843  -56.3728 H         1 UNK         0.0798 
    117 H117       32.6701  -48.3303  -54.9554 H         1 UNK         0.3079 
    118 H118       32.1366  -51.2343  -52.9346 H         1 UNK         0.0794 
    119 H119       34.5814  -51.5419  -53.2468 H         1 UNK         0.0786 
    120 H120       34.5542  -50.5220  -54.6865 H         1 UNK         0.0786 
    121 H121       33.7170  -52.0674  -54.6809 H         1 UNK         0.0786 
    122 H122       34.0063  -49.1192  -52.6733 H         1 UNK         0.3032 
    123 H123       31.9304  -46.6124  -51.3670 H         1 UNK         0.1094 
    124 H124       32.1344  -48.0813  -49.3480 H         1 UNK         0.0794 
    125 H125       33.8211  -48.3922  -49.7358 H         1 UNK         0.0794 
    126 H126       33.2926  -46.7640  -49.3077 H         1 UNK         0.0794 
    127 H127       34.7013  -46.6263  -51.3456 H         1 UNK         0.3016 
@<TRIPOS>BOND
     1    1    2 1    
     2    1   67 1    
     3    1   68 1    
     4    1   69 1    
     5    2    3 2    
     6    2    4 am   BACKBONE|DICT|INTERRES
     7    4    5 1    
     8    4   70 1    
     9    5    6 1    
    10    5   65 1    
    11    5   71 1    
    12    6    7 1    
    13    6   72 1    
    14    6   73 1    
    15    7    8 1    
    16    8    9 1    
    17    8   74 1    
    18    8   75 1    
    19    9   10 ar   
    20    9   14 ar   
    21   10   11 ar   
    22   10   76 1    
    23   11   12 ar   
    24   11   48 1    
    25   12   13 ar   
    26   12   77 1    
    27   13   14 ar   
    28   13   15 1    
    29   14   78 1    
    30   15   16 1    
    31   15   79 1    
    32   15   80 1    
    33   16   17 1    
    34   17   18 1    
    35   17   81 1    
    36   17   82 1    
    37   18   19 1    
    38   18   22 1    
    39   18   83 1    
    40   19   20 am   BACKBONE|DICT|INTERRES
    41   19   21 2    
    42   20   84 1    
    43   20   85 1    
    44   22   23 am   BACKBONE|DICT|INTERRES
    45   22   86 1    
    46   23   24 2    
    47   23   25 1    
    48   25   26 1    
    49   25   27 1    
    50   25   87 1    
    51   26   88 1    
    52   26   89 1    
    53   26   90 1    
    54   27   28 am   BACKBONE|DICT|INTERRES
    55   27   91 1    
    56   28   29 2    
    57   28   30 1    
    58   30   31 1    
    59   30   32 1    
    60   30   92 1    
    61   31   93 1    
    62   31   94 1    
    63   31   95 1    
    64   32   33 am   BACKBONE|DICT|INTERRES
    65   32   96 1    
    66   33   34 2    
    67   33   35 1    
    68   35   36 1    
    69   35   37 1    
    70   35   97 1    
    71   36   98 1    
    72   36   99 1    
    73   36  100 1    
    74   37   38 am   BACKBONE|DICT|INTERRES
    75   37  101 1    
    76   38   39 2    
    77   38   40 1    
    78   40   41 1    
    79   40   42 1    
    80   40  102 1    
    81   41  103 1    
    82   41  104 1    
    83   41  105 1    
    84   42   43 am   BACKBONE|DICT|INTERRES
    85   42  106 1    
    86   43   44 2    
    87   43   45 1    
    88   45   46 1    
    89   45   49 1    
    90   45  107 1    
    91   46   47 1    
    92   46  108 1    
    93   46  109 1    
    94   47   48 1    
    95   48  110 1    
    96   48  111 1    
    97   49   50 am   BACKBONE|DICT|INTERRES
    98   49  112 1    
    99   50   51 2    
   100   50   52 1    
   101   52   53 1    
   102   52   54 1    
   103   52  113 1    
   104   53  114 1    
   105   53  115 1    
   106   53  116 1    
   107   54   55 am   BACKBONE|DICT|INTERRES
   108   54  117 1    
   109   55   56 2    
   110   55   57 1    
   111   57   58 1    
   112   57   59 1    
   113   57  118 1    
   114   58  119 1    
   115   58  120 1    
   116   58  121 1    
   117   59   60 am   BACKBONE|DICT|INTERRES
   118   59  122 1    
   119   60   61 2    
   120   60   62 1    
   121   62   63 1    
   122   62   64 1    
   123   62  123 1    
   124   63  124 1    
   125   63  125 1    
   126   63  126 1    
   127   64   65 am   BACKBONE|DICT|INTERRES
   128   64  127 1    
   129   65   66 2    
@<TRIPOS>SUBSTRUCTURE
     1 UNK         1 GROUP             0       ****    0 ROOT    
