@<TRIPOS>MOLECULE
3R134
127   129    1
SMALL
USER_CHARGES


@<TRIPOS>ATOM
      1 CA         32.3533  -50.3788  -56.7828 C.3       0 UNK        -0.1968 
      2 C          32.5280  -49.1757  -55.8707 C.2       0 UNK         0.4852 
      3 O          31.7882  -49.0305  -54.8977 O.2       0 UNK        -0.5359 
      4 N          33.5081  -48.3119  -56.1657 N.am      1 UNK        -0.4300 
      5 CA         33.8519  -47.1315  -55.3606 C.3       1 UNK         0.0863 
      6 C6         34.9218  -46.2436  -56.0401 C.3       11 UNK        -0.0953 
      7 S7         34.4397  -45.7215  -57.7193 S.3       11 UNK        -0.2369 
      8 C8         34.1516  -43.9411  -57.4911 C.3       11 UNK         0.0226 
      9 C9         32.8348  -43.6547  -56.7843 C.ar      11 UNK        -0.0699 
     10 C10        32.8176  -43.2572  -55.4435 C.ar      11 UNK        -0.0804 
     11 C11        31.6114  -42.9213  -54.8207 C.ar      11 UNK        -0.0871 
     12 C12        30.4194  -42.9877  -55.5488 C.ar      11 UNK        -0.1008 
     13 C13        30.4195  -43.4150  -56.8787 C.ar      11 UNK        -0.0735 
     14 C14        31.6322  -43.7431  -57.4918 C.ar      11 UNK        -0.0945 
     15 C15        29.1171  -43.4956  -57.6619 C.3       11 UNK         0.0169 
     16 S16        28.1329  -44.9482  -57.1796 S.3       11 UNK        -0.2669 
     17 C17        26.9773  -44.2290  -55.9649 C.3       11 UNK        -0.0850 
     18 CA         25.8332  -45.2024  -55.5834 C.3       10 UNK         0.0855 
     19 C          24.9784  -44.6219  -54.4268 C.2       10 UNK         0.5543 
     20 N          25.4243  -44.8155  -53.1938 N.am      10 UNK        -0.7343 
     21 O          23.9598  -43.9662  -54.6378 O.2       10 UNK        -0.5027 
     22 N          25.0622  -45.6321  -56.7556 N.am      10 UNK        -0.4495 
     23 C          24.1375  -46.5984  -56.7743 C.2       10 UNK         0.4903 
     24 O          23.7470  -47.2023  -55.7751 O.2       10 UNK        -0.4860 
     25 CA         23.6076  -47.0229  -58.1563 C.3       9 UNK         0.0227 
     26 CB         22.5943  -46.0057  -58.7191 C.3       9 UNK        -0.1964 
     27 N          24.6851  -47.3372  -59.1097 N.am      9 UNK        -0.4231 
     28 C          25.5566  -46.4983  -59.6874 C.2       9 UNK         0.5014 
     29 O          25.5323  -45.2734  -59.5544 O.2       9 UNK        -0.5270 
     30 CA         26.7086  -47.1489  -60.4548 C.3       8 UNK         0.0284 
     31 CB         27.1810  -46.2910  -61.6455 C.3       8 UNK        -0.1977 
     32 N          27.8033  -47.3388  -59.5073 N.am      8 UNK        -0.4342 
     33 C          28.7704  -48.2554  -59.6144 C.2       8 UNK         0.5039 
     34 O          28.8379  -49.0784  -60.5286 O.2       8 UNK        -0.5547 
     35 CA         29.8558  -48.2480  -58.5250 C.3       7 UNK         0.0281 
     36 CB         30.8966  -47.1538  -58.8136 C.3       7 UNK        -0.1963 
     37 N          29.3293  -48.0754  -57.1669 N.am      7 UNK        -0.4444 
     38 C          28.6267  -48.9979  -56.4938 C.2       7 UNK         0.5104 
     39 O          28.3133  -50.0894  -56.9706 O.2       7 UNK        -0.5100 
     40 CA         28.2363  -48.6554  -55.0432 C.3       6 UNK         0.0396 
     41 CB         27.9519  -49.9079  -54.1941 C.3       6 UNK        -0.1801 
     42 N          29.2818  -47.8664  -54.3885 N.am      6 UNK        -0.4747 
     43 C          29.0829  -46.7903  -53.6162 C.2       6 UNK         0.5012 
     44 O          27.9716  -46.3208  -53.3625 O.2       6 UNK        -0.5003 
     45 CA         30.3476  -46.1498  -53.0075 C.3       5 UNK         0.0782 
     46 C46        30.1040  -44.7016  -52.5008 C.3       11 UNK        -0.0868 
     47 S47        31.6791  -43.8338  -52.1892 S.3       11 UNK        -0.2515 
     48 C48        31.5979  -42.4506  -53.3724 C.3       11 UNK         0.0199 
     49 N          30.9389  -47.0182  -51.9795 N.am      5 UNK        -0.4607 
     50 C          30.3604  -47.4076  -50.8313 C.2       4 UNK         0.5031 
     51 O          29.2217  -47.0868  -50.4870 O.2       4 UNK        -0.5119 
     52 CA         31.2108  -48.2886  -49.8934 C.3       4 UNK         0.0263 
     53 CB         30.3935  -48.9084  -48.7391 C.3       4 UNK        -0.1967 
     54 N          31.9668  -49.3263  -50.6000 N.am      4 UNK        -0.4237 
     55 C          31.4911  -50.3035  -51.3860 C.2       3 UNK         0.4908 
     56 O          30.2931  -50.4908  -51.6023 O.2       3 UNK        -0.5102 
     57 CA         32.5449  -51.2227  -52.0389 C.3       3 UNK         0.0241 
     58 CB         31.9482  -52.1189  -53.1413 C.3       3 UNK        -0.1971 
     59 N          33.6671  -50.4607  -52.5968 N.am      3 UNK        -0.4139 
     60 C          34.7056  -49.9754  -51.9010 C.2       2 UNK         0.5016 
     61 O          34.8403  -50.1377  -50.6881 O.2       2 UNK        -0.5319 
     62 CA         35.7407  -49.1293  -52.6624 C.3       2 UNK         0.0286 
     63 CB         36.9800  -49.9737  -52.9991 C.3       2 UNK        -0.1963 
     64 N          35.2164  -48.5335  -53.8942 N.am      2 UNK        -0.4790 
     65 C          34.3141  -47.5413  -53.9476 C.2       1 UNK         0.5024 
     66 O          33.8183  -47.0077  -52.9548 O.2       1 UNK        -0.4888 
     67 H67        32.9083  -51.2302  -56.3903 H         1 UNK         0.0892 
     68 H68        32.7062  -50.1710  -57.7927 H         1 UNK         0.0892 
     69 H69        31.3023  -50.6604  -56.8413 H         1 UNK         0.0892 
     70 H70        34.0730  -48.4564  -56.9908 H         1 UNK         0.3107 
     71 H71        32.9440  -46.5352  -55.2503 H         1 UNK         0.0773 
     72 H72        35.1260  -45.3615  -55.4305 H         1 UNK         0.0680 
     73 H73        35.8707  -46.7766  -56.1240 H         1 UNK         0.0680 
     74 H74        34.9905  -43.4974  -56.9528 H         1 UNK         0.0650 
     75 H75        34.1395  -43.4647  -58.4725 H         1 UNK         0.0650 
     76 H76        33.7433  -43.1887  -54.8886 H         1 UNK         0.1397 
     77 H77        29.4877  -42.7043  -55.0811 H         1 UNK         0.1363 
     78 H78        31.6473  -44.0525  -58.5277 H         1 UNK         0.1355 
     79 H79        29.3236  -43.5627  -58.7312 H         1 UNK         0.0707 
     80 H80        28.5412  -42.5795  -57.5248 H         1 UNK         0.0707 
     81 H81        26.5639  -43.3012  -56.3648 H         1 UNK         0.1034 
     82 H82        27.5492  -43.9584  -55.0763 H         1 UNK         0.1034 
     83 H83        26.2887  -46.1148  -55.2065 H         1 UNK         0.0482 
     84 H84        26.2774  -45.3474  -53.0451 H         1 UNK         0.3460 
     85 H85        24.9124  -44.4433  -52.4099 H         1 UNK         0.3460 
     86 H86        25.3196  -45.2128  -57.6445 H         1 UNK         0.2989 
     87 H87        23.0693  -47.9611  -58.0107 H         1 UNK         0.0559 
     88 H88        23.0313  -45.0161  -58.8545 H         1 UNK         0.0848 
     89 H89        21.7476  -45.8904  -58.0412 H         1 UNK         0.0848 
     90 H90        22.1975  -46.3314  -59.6805 H         1 UNK         0.0848 
     91 H91        24.8362  -48.3264  -59.2565 H         1 UNK         0.3144 
     92 H92        26.3728  -48.1172  -60.8328 H         1 UNK         0.0727 
     93 H93        27.9582  -46.7990  -62.2167 H         1 UNK         0.0790 
     94 H94        27.5821  -45.3307  -61.3181 H         1 UNK         0.0790 
     95 H95        26.3566  -46.0862  -62.3295 H         1 UNK         0.0790 
     96 H96        27.8204  -46.6976  -58.7219 H         1 UNK         0.3215 
     97 H97        30.3612  -49.2142  -58.5675 H         1 UNK         0.0863 
     98 H98        31.6845  -47.1382  -58.0618 H         1 UNK         0.0808 
     99 H99        30.4432  -46.1632  -58.8403 H         1 UNK         0.0808 
    100 H100       31.3748  -47.3167  -59.7803 H         1 UNK         0.0808 
    101 H101       29.5151  -47.1936  -56.7099 H         1 UNK         0.3118 
    102 H102       27.3143  -48.0790  -55.1084 H         1 UNK         0.0546 
    103 H103       27.1370  -50.4970  -54.6163 H         1 UNK         0.0828 
    104 H104       27.6648  -49.6394  -53.1773 H         1 UNK         0.0828 
    105 H105       28.8292  -50.5532  -54.1308 H         1 UNK         0.0828 
    106 H106       30.2309  -48.2236  -54.5149 H         1 UNK         0.3005 
    107 H107       31.0716  -46.0901  -53.8214 H         1 UNK         0.1257 
    108 H108       29.5156  -44.6975  -51.5824 H         1 UNK         0.0775 
    109 H109       29.5152  -44.1329  -53.2195 H         1 UNK         0.0775 
    110 H110       30.7074  -41.8536  -53.1686 H         1 UNK         0.0840 
    111 H111       32.4483  -41.7897  -53.1978 H         1 UNK         0.0840 
    112 H112       31.8899  -47.3141  -52.1685 H         1 UNK         0.2987 
    113 H113       31.9519  -47.6224  -49.4490 H         1 UNK         0.0785 
    114 H114       29.5960  -49.5532  -49.1099 H         1 UNK         0.0798 
    115 H115       29.9280  -48.1337  -48.1285 H         1 UNK         0.0798 
    116 H116       31.0257  -49.5022  -48.0789 H         1 UNK         0.0798 
    117 H117       32.9739  -49.2981  -50.4782 H         1 UNK         0.3079 
    118 H118       32.9249  -51.8776  -51.2519 H         1 UNK         0.0794 
    119 H119       31.4865  -51.5307  -53.9348 H         1 UNK         0.0786 
    120 H120       31.1772  -52.7751  -52.7354 H         1 UNK         0.0786 
    121 H121       32.7085  -52.7566  -53.5924 H         1 UNK         0.0786 
    122 H122       33.5889  -50.2042  -53.5699 H         1 UNK         0.3032 
    123 H123       36.0466  -48.3186  -51.9968 H         1 UNK         0.1094 
    124 H124       37.7573  -49.3696  -53.4675 H         1 UNK         0.0794 
    125 H125       37.4120  -50.4094  -52.0968 H         1 UNK         0.0794 
    126 H126       36.7392  -50.7960  -53.6741 H         1 UNK         0.0794 
    127 H127       35.5571  -48.9183  -54.7638 H         1 UNK         0.3016 
@<TRIPOS>BOND
     1    1    2 1    
     2    1   67 1    
     3    1   68 1    
     4    1   69 1    
     5    2    3 2    
     6    2    4 am   BACKBONE|DICT|INTERRES
     7    4    5 1    
     8    4   70 1    
     9    5    6 1    
    10    5   65 1    
    11    5   71 1    
    12    6    7 1    
    13    6   72 1    
    14    6   73 1    
    15    7    8 1    
    16    8    9 1    
    17    8   74 1    
    18    8   75 1    
    19    9   10 ar   
    20    9   14 ar   
    21   10   11 ar   
    22   10   76 1    
    23   11   12 ar   
    24   11   48 1    
    25   12   13 ar   
    26   12   77 1    
    27   13   14 ar   
    28   13   15 1    
    29   14   78 1    
    30   15   16 1    
    31   15   79 1    
    32   15   80 1    
    33   16   17 1    
    34   17   18 1    
    35   17   81 1    
    36   17   82 1    
    37   18   19 1    
    38   18   22 1    
    39   18   83 1    
    40   19   20 am   BACKBONE|DICT|INTERRES
    41   19   21 2    
    42   20   84 1    
    43   20   85 1    
    44   22   23 am   BACKBONE|DICT|INTERRES
    45   22   86 1    
    46   23   24 2    
    47   23   25 1    
    48   25   26 1    
    49   25   27 1    
    50   25   87 1    
    51   26   88 1    
    52   26   89 1    
    53   26   90 1    
    54   27   28 am   BACKBONE|DICT|INTERRES
    55   27   91 1    
    56   28   29 2    
    57   28   30 1    
    58   30   31 1    
    59   30   32 1    
    60   30   92 1    
    61   31   93 1    
    62   31   94 1    
    63   31   95 1    
    64   32   33 am   BACKBONE|DICT|INTERRES
    65   32   96 1    
    66   33   34 2    
    67   33   35 1    
    68   35   36 1    
    69   35   37 1    
    70   35   97 1    
    71   36   98 1    
    72   36   99 1    
    73   36  100 1    
    74   37   38 am   BACKBONE|DICT|INTERRES
    75   37  101 1    
    76   38   39 2    
    77   38   40 1    
    78   40   41 1    
    79   40   42 1    
    80   40  102 1    
    81   41  103 1    
    82   41  104 1    
    83   41  105 1    
    84   42   43 am   BACKBONE|DICT|INTERRES
    85   42  106 1    
    86   43   44 2    
    87   43   45 1    
    88   45   46 1    
    89   45   49 1    
    90   45  107 1    
    91   46   47 1    
    92   46  108 1    
    93   46  109 1    
    94   47   48 1    
    95   48  110 1    
    96   48  111 1    
    97   49   50 am   BACKBONE|DICT|INTERRES
    98   49  112 1    
    99   50   51 2    
   100   50   52 1    
   101   52   53 1    
   102   52   54 1    
   103   52  113 1    
   104   53  114 1    
   105   53  115 1    
   106   53  116 1    
   107   54   55 am   BACKBONE|DICT|INTERRES
   108   54  117 1    
   109   55   56 2    
   110   55   57 1    
   111   57   58 1    
   112   57   59 1    
   113   57  118 1    
   114   58  119 1    
   115   58  120 1    
   116   58  121 1    
   117   59   60 am   BACKBONE|DICT|INTERRES
   118   59  122 1    
   119   60   61 2    
   120   60   62 1    
   121   62   63 1    
   122   62   64 1    
   123   62  123 1    
   124   63  124 1    
   125   63  125 1    
   126   63  126 1    
   127   64   65 am   BACKBONE|DICT|INTERRES
   128   64  127 1    
   129   65   66 2    
@<TRIPOS>SUBSTRUCTURE
     1 UNK         1 GROUP             0       ****    0 ROOT    
