@<TRIPOS>MOLECULE
3R134
127   129    1
SMALL
USER_CHARGES


@<TRIPOS>ATOM
      1 CA         29.7824  -43.0091  -48.4430 C.3       0 UNK        -0.1968 
      2 C          31.0550  -43.4582  -49.1464 C.2       0 UNK         0.4852 
      3 O          32.0802  -42.7825  -49.0458 O.2       0 UNK        -0.5359 
      4 N          30.9966  -44.5907  -49.8537 N.am      1 UNK        -0.4300 
      5 CA         32.1054  -45.1980  -50.5837 C.3       1 UNK         0.0863 
      6 C6         32.2979  -44.5416  -51.9728 C.3       11 UNK        -0.0953 
      7 S7         33.8557  -45.0124  -52.7961 S.3       11 UNK        -0.2369 
      8 C8         34.0377  -43.6555  -53.9987 C.3       11 UNK         0.0226 
      9 C9         33.0846  -43.8128  -55.1752 C.ar      11 UNK        -0.0699 
     10 C10        33.5076  -44.4572  -56.3407 C.ar      11 UNK        -0.0804 
     11 C11        32.6358  -44.6176  -57.4219 C.ar      11 UNK        -0.0871 
     12 C12        31.3223  -44.1468  -57.3218 C.ar      11 UNK        -0.1008 
     13 C13        30.8823  -43.5037  -56.1585 C.ar      11 UNK        -0.0735 
     14 C14        31.7795  -43.3174  -55.1011 C.ar      11 UNK        -0.0945 
     15 C15        29.4445  -43.0056  -56.0436 C.3       11 UNK         0.0169 
     16 S16        28.6077  -43.6881  -54.5743 S.3       11 UNK        -0.2669 
     17 C17        26.8819  -43.1426  -54.8131 C.3       11 UNK        -0.0850 
     18 CA         25.9217  -44.3413  -55.0754 C.3       10 UNK         0.0855 
     19 C          24.4135  -43.9673  -54.9333 C.2       10 UNK         0.5543 
     20 N          23.5041  -44.6128  -55.6549 N.am      10 UNK        -0.7343 
     21 O          24.0539  -43.1047  -54.1355 O.2       10 UNK        -0.5027 
     22 N          26.2564  -45.0853  -56.3030 N.am      10 UNK        -0.4495 
     23 C          26.1577  -44.6159  -57.5544 C.2       10 UNK         0.4903 
     24 O          25.7816  -43.4767  -57.8320 O.2       10 UNK        -0.4860 
     25 CA         26.5488  -45.5560  -58.7057 C.3       9 UNK         0.0227 
     26 CB         27.9614  -45.2177  -59.2066 C.3       9 UNK        -0.1964 
     27 N          26.4891  -46.9837  -58.3835 N.am      9 UNK        -0.4231 
     28 C          25.3667  -47.6918  -58.1954 C.2       9 UNK         0.5014 
     29 O          24.2420  -47.1911  -58.1562 O.2       9 UNK        -0.5270 
     30 CA         25.5218  -49.2137  -58.0431 C.3       8 UNK         0.0284 
     31 CB         25.8389  -49.8629  -59.4011 C.3       8 UNK        -0.1977 
     32 N          26.5807  -49.5468  -57.0896 N.am      8 UNK        -0.4342 
     33 C          26.3834  -50.0985  -55.8838 C.2       8 UNK         0.5039 
     34 O          25.2866  -50.4870  -55.4786 O.2       8 UNK        -0.5547 
     35 CA         27.6067  -50.2319  -54.9512 C.3       7 UNK         0.0281 
     36 CB         28.1839  -51.6547  -55.0185 C.3       7 UNK        -0.1963 
     37 N          28.6798  -49.2688  -55.2149 N.am      7 UNK        -0.4444 
     38 C          28.5432  -47.9360  -55.2088 C.2       7 UNK         0.5104 
     39 O          27.4976  -47.3524  -54.9265 O.2       7 UNK        -0.5100 
     40 CA         29.7585  -47.1179  -55.6655 C.3       6 UNK         0.0396 
     41 CB         30.6277  -46.7635  -54.4528 C.3       6 UNK        -0.1801 
     42 N          30.5770  -47.7749  -56.6917 N.am      6 UNK        -0.4747 
     43 C          30.1462  -48.2048  -57.8877 C.2       6 UNK         0.5012 
     44 O          28.9702  -48.1607  -58.2494 O.2       6 UNK        -0.5003 
     45 CA         31.1946  -48.8410  -58.8173 C.3       5 UNK         0.0782 
     46 C46        32.0567  -47.7774  -59.5446 C.3       11 UNK        -0.0868 
     47 S47        33.3933  -47.0553  -58.5227 S.3       11 UNK        -0.2515 
     48 C48        33.1373  -45.2606  -58.7073 C.3       11 UNK         0.0199 
     49 N          32.0003  -49.8347  -58.1059 N.am      5 UNK        -0.4607 
     50 C          31.5441  -51.0172  -57.6727 C.2       4 UNK         0.5031 
     51 O          30.4286  -51.4611  -57.9419 O.2       4 UNK        -0.5119 
     52 CA         32.4801  -51.8274  -56.7583 C.3       4 UNK         0.0263 
     53 CB         33.3609  -52.7733  -57.5902 C.3       4 UNK        -0.1967 
     54 N          33.3301  -50.9878  -55.9047 N.am      4 UNK        -0.4237 
     55 C          32.8698  -50.1552  -54.9604 C.2       3 UNK         0.4908 
     56 O          31.6717  -50.0073  -54.7066 O.2       3 UNK        -0.5102 
     57 CA         33.9301  -49.3108  -54.2288 C.3       3 UNK         0.0241 
     58 CB         34.3180  -48.0826  -55.0696 C.3       3 UNK        -0.1971 
     59 N          33.4869  -48.8561  -52.9089 N.am      3 UNK        -0.4139 
     60 C          33.2533  -49.6559  -51.8591 C.2       2 UNK         0.5016 
     61 O          33.4211  -50.8768  -51.8854 O.2       2 UNK        -0.5319 
     62 CA         32.7856  -48.9935  -50.5492 C.3       2 UNK         0.0286 
     63 CB         33.6148  -49.4912  -49.3505 C.3       2 UNK        -0.1963 
     64 N          32.8636  -47.5278  -50.5883 N.am      2 UNK        -0.4790 
     65 C          31.8104  -46.7057  -50.6669 C.2       1 UNK         0.5024 
     66 O          30.6438  -47.0899  -50.7844 O.2       1 UNK        -0.4888 
     67 H67        28.9543  -43.6951  -48.6207 H         1 UNK         0.0892 
     68 H68        29.9486  -42.9496  -47.3677 H         1 UNK         0.0892 
     69 H69        29.4863  -42.0223  -48.7977 H         1 UNK         0.0892 
     70 H70        30.1461  -45.1406  -49.8842 H         1 UNK         0.3107 
     71 H71        33.0148  -45.0623  -49.9937 H         1 UNK         0.0773 
     72 H72        31.4556  -44.7614  -52.6274 H         1 UNK         0.0680 
     73 H73        32.3068  -43.4569  -51.8575 H         1 UNK         0.0680 
     74 H74        35.0686  -43.6442  -54.3556 H         1 UNK         0.0650 
     75 H75        33.8786  -42.6955  -53.5055 H         1 UNK         0.0650 
     76 H76        34.5195  -44.8330  -56.4098 H         1 UNK         0.1397 
     77 H77        30.6487  -44.2701  -58.1568 H         1 UNK         0.1363 
     78 H78        31.4478  -42.8128  -54.2044 H         1 UNK         0.1355 
     79 H79        28.8734  -43.2743  -56.9330 H         1 UNK         0.0707 
     80 H80        29.4444  -41.9164  -55.9864 H         1 UNK         0.0707 
     81 H81        26.5933  -42.6128  -53.9038 H         1 UNK         0.1034 
     82 H82        26.8210  -42.4071  -55.6163 H         1 UNK         0.1034 
     83 H83        26.0834  -45.0538  -54.2660 H         1 UNK         0.0482 
     84 H84        22.5302  -44.3761  -55.5517 H         1 UNK         0.3460 
     85 H85        23.7863  -45.3256  -56.3115 H         1 UNK         0.3460 
     86 H86        26.5923  -46.0293  -56.1456 H         1 UNK         0.2989 
     87 H87        25.8484  -45.3723  -59.5232 H         1 UNK         0.0559 
     88 H88        28.7084  -45.4206  -58.4403 H         1 UNK         0.0848 
     89 H89        28.0438  -44.1640  -59.4768 H         1 UNK         0.0848 
     90 H90        28.2213  -45.8007  -60.0903 H         1 UNK         0.0848 
     91 H91        27.3838  -47.4725  -58.3879 H         1 UNK         0.3144 
     92 H92        24.5618  -49.6064  -57.7017 H         1 UNK         0.0727 
     93 H93        26.7982  -49.5290  -59.7991 H         1 UNK         0.0790 
     94 H94        25.0743  -49.6180  -60.1397 H         1 UNK         0.0790 
     95 H95        25.8732  -50.9494  -59.3188 H         1 UNK         0.0790 
     96 H96        27.5193  -49.2465  -57.3309 H         1 UNK         0.3215 
     97 H97        27.2564  -50.0508  -53.9330 H         1 UNK         0.0863 
     98 H98        29.0105  -51.7830  -54.3191 H         1 UNK         0.0808 
     99 H99        28.5499  -51.8928  -56.0177 H         1 UNK         0.0808 
    100 H100       27.4252  -52.3960  -54.7641 H         1 UNK         0.0808 
    101 H101       29.6033  -49.6432  -55.4037 H         1 UNK         0.3118 
    102 H102       29.3837  -46.1910  -56.1021 H         1 UNK         0.0546 
    103 H103       30.0418  -46.2164  -53.7139 H         1 UNK         0.0828 
    104 H104       31.4684  -46.1335  -54.7357 H         1 UNK         0.0828 
    105 H105       31.0189  -47.6475  -53.9522 H         1 UNK         0.0828 
    106 H106       31.5586  -47.8767  -56.4827 H         1 UNK         0.3005 
    107 H107       30.6294  -49.3737  -59.5863 H         1 UNK         0.1257 
    108 H108       31.4218  -46.9931  -59.9606 H         1 UNK         0.0775 
    109 H109       32.5363  -48.2429  -60.4069 H         1 UNK         0.0775 
    110 H110       34.0915  -44.8057  -58.9771 H         1 UNK         0.0840 
    111 H111       32.4659  -45.0440  -59.5388 H         1 UNK         0.0840 
    112 H112       32.9359  -49.5493  -57.8572 H         1 UNK         0.2987 
    113 H113       31.8498  -52.4332  -56.1035 H         1 UNK         0.0785 
    114 H114       32.7495  -53.4241  -58.2171 H         1 UNK         0.0798 
    115 H115       33.9654  -53.4178  -56.9516 H         1 UNK         0.0798 
    116 H116       34.0345  -52.2248  -58.2500 H         1 UNK         0.0798 
    117 H117       34.3268  -51.0500  -56.0573 H         1 UNK         0.3079 
    118 H118       34.8186  -49.9291  -54.0838 H         1 UNK         0.0794 
    119 H119       33.4670  -47.4259  -55.2498 H         1 UNK         0.0786 
    120 H120       34.7142  -48.3783  -56.0416 H         1 UNK         0.0786 
    121 H121       35.0918  -47.4930  -54.5774 H         1 UNK         0.0786 
    122 H122       33.3104  -47.8683  -52.8010 H         1 UNK         0.3032 
    123 H123       31.7520  -49.3131  -50.3970 H         1 UNK         0.1094 
    124 H124       34.6727  -49.2511  -49.4636 H         1 UNK         0.0794 
    125 H125       33.2675  -49.0474  -48.4173 H         1 UNK         0.0794 
    126 H126       33.5361  -50.5734  -49.2376 H         1 UNK         0.0794 
    127 H127       33.7895  -47.1267  -50.5183 H         1 UNK         0.3016 
@<TRIPOS>BOND
     1    1    2 1    
     2    1   67 1    
     3    1   68 1    
     4    1   69 1    
     5    2    3 2    
     6    2    4 am   BACKBONE|DICT|INTERRES
     7    4    5 1    
     8    4   70 1    
     9    5    6 1    
    10    5   65 1    
    11    5   71 1    
    12    6    7 1    
    13    6   72 1    
    14    6   73 1    
    15    7    8 1    
    16    8    9 1    
    17    8   74 1    
    18    8   75 1    
    19    9   10 ar   
    20    9   14 ar   
    21   10   11 ar   
    22   10   76 1    
    23   11   12 ar   
    24   11   48 1    
    25   12   13 ar   
    26   12   77 1    
    27   13   14 ar   
    28   13   15 1    
    29   14   78 1    
    30   15   16 1    
    31   15   79 1    
    32   15   80 1    
    33   16   17 1    
    34   17   18 1    
    35   17   81 1    
    36   17   82 1    
    37   18   19 1    
    38   18   22 1    
    39   18   83 1    
    40   19   20 am   BACKBONE|DICT|INTERRES
    41   19   21 2    
    42   20   84 1    
    43   20   85 1    
    44   22   23 am   BACKBONE|DICT|INTERRES
    45   22   86 1    
    46   23   24 2    
    47   23   25 1    
    48   25   26 1    
    49   25   27 1    
    50   25   87 1    
    51   26   88 1    
    52   26   89 1    
    53   26   90 1    
    54   27   28 am   BACKBONE|DICT|INTERRES
    55   27   91 1    
    56   28   29 2    
    57   28   30 1    
    58   30   31 1    
    59   30   32 1    
    60   30   92 1    
    61   31   93 1    
    62   31   94 1    
    63   31   95 1    
    64   32   33 am   BACKBONE|DICT|INTERRES
    65   32   96 1    
    66   33   34 2    
    67   33   35 1    
    68   35   36 1    
    69   35   37 1    
    70   35   97 1    
    71   36   98 1    
    72   36   99 1    
    73   36  100 1    
    74   37   38 am   BACKBONE|DICT|INTERRES
    75   37  101 1    
    76   38   39 2    
    77   38   40 1    
    78   40   41 1    
    79   40   42 1    
    80   40  102 1    
    81   41  103 1    
    82   41  104 1    
    83   41  105 1    
    84   42   43 am   BACKBONE|DICT|INTERRES
    85   42  106 1    
    86   43   44 2    
    87   43   45 1    
    88   45   46 1    
    89   45   49 1    
    90   45  107 1    
    91   46   47 1    
    92   46  108 1    
    93   46  109 1    
    94   47   48 1    
    95   48  110 1    
    96   48  111 1    
    97   49   50 am   BACKBONE|DICT|INTERRES
    98   49  112 1    
    99   50   51 2    
   100   50   52 1    
   101   52   53 1    
   102   52   54 1    
   103   52  113 1    
   104   53  114 1    
   105   53  115 1    
   106   53  116 1    
   107   54   55 am   BACKBONE|DICT|INTERRES
   108   54  117 1    
   109   55   56 2    
   110   55   57 1    
   111   57   58 1    
   112   57   59 1    
   113   57  118 1    
   114   58  119 1    
   115   58  120 1    
   116   58  121 1    
   117   59   60 am   BACKBONE|DICT|INTERRES
   118   59  122 1    
   119   60   61 2    
   120   60   62 1    
   121   62   63 1    
   122   62   64 1    
   123   62  123 1    
   124   63  124 1    
   125   63  125 1    
   126   63  126 1    
   127   64   65 am   BACKBONE|DICT|INTERRES
   128   64  127 1    
   129   65   66 2    
@<TRIPOS>SUBSTRUCTURE
     1 UNK         1 GROUP             0       ****    0 ROOT    
