@<TRIPOS>MOLECULE
3R134
127   129    1
SMALL
USER_CHARGES


@<TRIPOS>ATOM
      1 CA         36.5399  -45.3276  -55.9307 C.3       0 UNK        -0.1968 
      2 C          35.3330  -45.4621  -55.0154 C.2       0 UNK         0.4852 
      3 O          34.4395  -46.2621  -55.2951 O.2       0 UNK        -0.5359 
      4 N          35.3042  -44.7015  -53.9133 N.am      1 UNK        -0.4300 
      5 CA         34.2070  -44.6260  -52.9359 C.3       1 UNK         0.0863 
      6 C6         34.2236  -43.2814  -52.1531 C.3       11 UNK        -0.0953 
      7 S7         34.3969  -41.8078  -53.2211 S.3       11 UNK        -0.2369 
      8 C8         32.6765  -41.2278  -53.3778 C.3       11 UNK         0.0226 
      9 C9         31.7680  -42.2453  -54.0563 C.ar      11 UNK        -0.0699 
     10 C10        30.5866  -42.6524  -53.4309 C.ar      11 UNK        -0.0804 
     11 C11        29.7500  -43.5899  -54.0400 C.ar      11 UNK        -0.0871 
     12 C12        30.1097  -44.1294  -55.2783 C.ar      11 UNK        -0.1008 
     13 C13        31.2826  -43.7250  -55.9279 C.ar      11 UNK        -0.0735 
     14 C14        32.0989  -42.7735  -55.3093 C.ar      11 UNK        -0.0945 
     15 C15        31.7341  -44.3094  -57.2690 C.3       11 UNK         0.0169 
     16 S16        30.4846  -45.2802  -58.1843 S.3       11 UNK        -0.2669 
     17 C17        29.4620  -43.9880  -58.9753 C.3       11 UNK        -0.0850 
     18 CA         28.1623  -43.6221  -58.2053 C.3       10 UNK         0.0855 
     19 C          27.2939  -42.6450  -59.0512 C.2       10 UNK         0.5543 
     20 N          26.1250  -43.0465  -59.5359 N.am      10 UNK        -0.7343 
     21 O          27.6934  -41.5048  -59.2729 O.2       10 UNK        -0.5027 
     22 N          27.4601  -44.8157  -57.7038 N.am      10 UNK        -0.4495 
     23 C          26.4704  -44.8172  -56.8013 C.2       10 UNK         0.4903 
     24 O          26.0033  -43.7932  -56.3024 O.2       10 UNK        -0.4860 
     25 CA         25.9496  -46.1865  -56.3221 C.3       9 UNK         0.0227 
     26 CB         24.4139  -46.2180  -56.1747 C.3       9 UNK        -0.1964 
     27 N          26.4462  -47.3317  -57.0977 N.am      9 UNK        -0.4231 
     28 C          26.1368  -47.6691  -58.3584 C.2       9 UNK         0.5014 
     29 O          25.3496  -47.0412  -59.0669 O.2       9 UNK        -0.5270 
     30 CA         26.8476  -48.8980  -58.9448 C.3       8 UNK         0.0284 
     31 CB         28.0950  -48.4572  -59.7313 C.3       8 UNK        -0.1977 
     32 N          27.2505  -49.8595  -57.9119 N.am      8 UNK        -0.4342 
     33 C          26.6654  -51.0455  -57.7033 C.2       8 UNK         0.5039 
     34 O          25.6784  -51.4424  -58.3247 O.2       8 UNK        -0.5547 
     35 CA         27.3044  -51.9686  -56.6518 C.3       7 UNK         0.0281 
     36 CB         28.5896  -52.6104  -57.2005 C.3       7 UNK        -0.1963 
     37 N          27.5909  -51.3196  -55.3702 N.am      7 UNK        -0.4444 
     38 C          26.6578  -50.9947  -54.4634 C.2       7 UNK         0.5104 
     39 O          25.4463  -51.0971  -54.6570 O.2       7 UNK        -0.5100 
     40 CA         27.1608  -50.4965  -53.0983 C.3       6 UNK         0.0396 
     41 CB         27.6990  -51.6620  -52.2516 C.3       6 UNK        -0.1801 
     42 N          28.2004  -49.4811  -53.2599 N.am      6 UNK        -0.4747 
     43 C          27.9526  -48.1668  -53.3556 C.2       6 UNK         0.5012 
     44 O          26.8365  -47.6771  -53.1850 O.2       6 UNK        -0.5003 
     45 CA         29.1235  -47.2447  -53.7627 C.3       5 UNK         0.0782 
     46 C46        29.7206  -46.4557  -52.5697 C.3       11 UNK        -0.0868 
     47 S47        28.6908  -45.0898  -51.9294 S.3       11 UNK        -0.2515 
     48 C48        28.4451  -44.0012  -53.3721 C.3       11 UNK         0.0199 
     49 N          30.1749  -47.9613  -54.4885 N.am      5 UNK        -0.4607 
     50 C          30.0470  -48.4416  -55.7327 C.2       4 UNK         0.5031 
     51 O          29.0280  -48.2984  -56.4058 O.2       4 UNK        -0.5119 
     52 CA         31.2044  -49.2828  -56.3023 C.3       4 UNK         0.0263 
     53 CB         32.1404  -48.4133  -57.1515 C.3       4 UNK        -0.1967 
     54 N          31.9793  -49.9774  -55.2714 N.am      4 UNK        -0.4237 
     55 C          31.4786  -50.9035  -54.4412 C.2       3 UNK         0.4908 
     56 O          30.3213  -51.3192  -54.5103 O.2       3 UNK        -0.5102 
     57 CA         32.3903  -51.4042  -53.3065 C.3       3 UNK         0.0241 
     58 CB         33.0927  -52.7058  -53.7232 C.3       3 UNK        -0.1971 
     59 N          33.3929  -50.4328  -52.8442 N.am      3 UNK        -0.4139 
     60 C          33.1340  -49.1998  -52.3810 C.2       2 UNK         0.5016 
     61 O          32.0023  -48.7156  -52.3461 O.2       2 UNK        -0.5319 
     62 CA         34.3175  -48.3492  -51.8945 C.3       2 UNK         0.0286 
     63 CB         35.7021  -48.9872  -52.1331 C.3       2 UNK        -0.1963 
     64 N          34.2716  -47.0554  -52.5719 N.am      2 UNK        -0.4790 
     65 C          34.1870  -45.8543  -51.9905 C.2       1 UNK         0.5024 
     66 O          34.1299  -45.6972  -50.7692 O.2       1 UNK        -0.4888 
     67 H67        36.2197  -45.0316  -56.9292 H         1 UNK         0.0892 
     68 H68        37.2473  -44.5828  -55.5665 H         1 UNK         0.0892 
     69 H69        37.0598  -46.2820  -56.0078 H         1 UNK         0.0892 
     70 H70        36.0774  -44.0788  -53.7280 H         1 UNK         0.3107 
     71 H71        33.2678  -44.6654  -53.4912 H         1 UNK         0.0773 
     72 H72        33.3186  -43.1805  -51.5511 H         1 UNK         0.0680 
     73 H73        35.0582  -43.2630  -51.4497 H         1 UNK         0.0680 
     74 H74        32.6692  -40.3070  -53.9621 H         1 UNK         0.0650 
     75 H75        32.3029  -40.9674  -52.3863 H         1 UNK         0.0650 
     76 H76        30.3137  -42.2412  -52.4685 H         1 UNK         0.1397 
     77 H77        29.4658  -44.8618  -55.7379 H         1 UNK         0.1363 
     78 H78        33.0134  -42.4584  -55.7933 H         1 UNK         0.1355 
     79 H79        32.5834  -44.9657  -57.0737 H         1 UNK         0.0707 
     80 H80        32.1073  -43.5125  -57.9138 H         1 UNK         0.0707 
     81 H81        29.2116  -44.3538  -59.9731 H         1 UNK         0.1034 
     82 H82        30.0699  -43.0953  -59.1338 H         1 UNK         0.1034 
     83 H83        28.4620  -43.0537  -57.3234 H         1 UNK         0.0482 
     84 H84        25.7947  -43.9816  -59.3541 H         1 UNK         0.3460 
     85 H85        25.5676  -42.4084  -60.0815 H         1 UNK         0.3460 
     86 H86        27.8010  -45.7006  -58.0480 H         1 UNK         0.2989 
     87 H87        26.3648  -46.3116  -55.3242 H         1 UNK         0.0559 
     88 H88        23.9080  -46.0114  -57.1180 H         1 UNK         0.0848 
     89 H89        24.0752  -45.4691  -55.4578 H         1 UNK         0.0848 
     90 H90        24.0709  -47.1871  -55.8125 H         1 UNK         0.0848 
     91 H91        27.1962  -47.8577  -56.6578 H         1 UNK         0.3144 
     92 H92        26.1566  -49.3658  -59.6493 H         1 UNK         0.0727 
     93 H93        28.5810  -49.3081  -60.2088 H         1 UNK         0.0790 
     94 H94        28.8313  -47.9690  -59.0916 H         1 UNK         0.0790 
     95 H95        27.8309  -47.7517  -60.5204 H         1 UNK         0.0790 
     96 H96        28.0320  -49.5803  -57.3249 H         1 UNK         0.3215 
     97 H97        26.5942  -52.7762  -56.4590 H         1 UNK         0.0863 
     98 H98        29.0016  -53.3353  -56.4981 H         1 UNK         0.0808 
     99 H99        29.3612  -51.8684  -57.4034 H         1 UNK         0.0808 
    100 H100       28.3934  -53.1396  -58.1341 H         1 UNK         0.0808 
    101 H101       28.5706  -51.2479  -55.1027 H         1 UNK         0.3118 
    102 H102       26.3098  -50.0713  -52.5617 H         1 UNK         0.0546 
    103 H103       26.9281  -52.4184  -52.0992 H         1 UNK         0.0828 
    104 H104       28.0155  -51.3206  -51.2661 H         1 UNK         0.0828 
    105 H105       28.5490  -52.1566  -52.7219 H         1 UNK         0.0828 
    106 H106       29.1373  -49.8154  -53.4479 H         1 UNK         0.3005 
    107 H107       28.6991  -46.5353  -54.4696 H         1 UNK         0.1257 
    108 H108       30.6805  -46.0208  -52.8547 H         1 UNK         0.0775 
    109 H109       29.9445  -47.1294  -51.7407 H         1 UNK         0.0775 
    110 H110       27.7745  -44.4826  -54.0833 H         1 UNK         0.0840 
    111 H111       27.9190  -43.1046  -53.0412 H         1 UNK         0.0840 
    112 H112       31.0100  -48.1756  -53.9509 H         1 UNK         0.2987 
    113 H113       30.7695  -50.0423  -56.9534 H         1 UNK         0.0785 
    114 H114       32.5395  -47.5738  -56.5818 H         1 UNK         0.0798 
    115 H115       31.6086  -48.0018  -58.0097 H         1 UNK         0.0798 
    116 H116       32.9805  -48.9879  -57.5416 H         1 UNK         0.0798 
    117 H117       32.9369  -49.6845  -55.1441 H         1 UNK         0.3079 
    118 H118       31.7420  -51.6246  -52.4558 H         1 UNK         0.0794 
    119 H119       33.7880  -52.5441  -54.5479 H         1 UNK         0.0786 
    120 H120       32.3679  -53.4534  -54.0497 H         1 UNK         0.0786 
    121 H121       33.6497  -53.1407  -52.8930 H         1 UNK         0.0786 
    122 H122       34.3532  -50.7452  -52.8449 H         1 UNK         0.3032 
    123 H123       34.1794  -48.2212  -50.8186 H         1 UNK         0.1094 
    124 H124       36.4957  -48.3369  -51.7640 H         1 UNK         0.0794 
    125 H125       35.8033  -49.9352  -51.6027 H         1 UNK         0.0794 
    126 H126       35.8950  -49.1665  -53.1918 H         1 UNK         0.0794 
    127 H127       34.2753  -47.0685  -53.5898 H         1 UNK         0.3016 
@<TRIPOS>BOND
     1    1    2 1    
     2    1   67 1    
     3    1   68 1    
     4    1   69 1    
     5    2    3 2    
     6    2    4 am   BACKBONE|DICT|INTERRES
     7    4    5 1    
     8    4   70 1    
     9    5    6 1    
    10    5   65 1    
    11    5   71 1    
    12    6    7 1    
    13    6   72 1    
    14    6   73 1    
    15    7    8 1    
    16    8    9 1    
    17    8   74 1    
    18    8   75 1    
    19    9   10 ar   
    20    9   14 ar   
    21   10   11 ar   
    22   10   76 1    
    23   11   12 ar   
    24   11   48 1    
    25   12   13 ar   
    26   12   77 1    
    27   13   14 ar   
    28   13   15 1    
    29   14   78 1    
    30   15   16 1    
    31   15   79 1    
    32   15   80 1    
    33   16   17 1    
    34   17   18 1    
    35   17   81 1    
    36   17   82 1    
    37   18   19 1    
    38   18   22 1    
    39   18   83 1    
    40   19   20 am   BACKBONE|DICT|INTERRES
    41   19   21 2    
    42   20   84 1    
    43   20   85 1    
    44   22   23 am   BACKBONE|DICT|INTERRES
    45   22   86 1    
    46   23   24 2    
    47   23   25 1    
    48   25   26 1    
    49   25   27 1    
    50   25   87 1    
    51   26   88 1    
    52   26   89 1    
    53   26   90 1    
    54   27   28 am   BACKBONE|DICT|INTERRES
    55   27   91 1    
    56   28   29 2    
    57   28   30 1    
    58   30   31 1    
    59   30   32 1    
    60   30   92 1    
    61   31   93 1    
    62   31   94 1    
    63   31   95 1    
    64   32   33 am   BACKBONE|DICT|INTERRES
    65   32   96 1    
    66   33   34 2    
    67   33   35 1    
    68   35   36 1    
    69   35   37 1    
    70   35   97 1    
    71   36   98 1    
    72   36   99 1    
    73   36  100 1    
    74   37   38 am   BACKBONE|DICT|INTERRES
    75   37  101 1    
    76   38   39 2    
    77   38   40 1    
    78   40   41 1    
    79   40   42 1    
    80   40  102 1    
    81   41  103 1    
    82   41  104 1    
    83   41  105 1    
    84   42   43 am   BACKBONE|DICT|INTERRES
    85   42  106 1    
    86   43   44 2    
    87   43   45 1    
    88   45   46 1    
    89   45   49 1    
    90   45  107 1    
    91   46   47 1    
    92   46  108 1    
    93   46  109 1    
    94   47   48 1    
    95   48  110 1    
    96   48  111 1    
    97   49   50 am   BACKBONE|DICT|INTERRES
    98   49  112 1    
    99   50   51 2    
   100   50   52 1    
   101   52   53 1    
   102   52   54 1    
   103   52  113 1    
   104   53  114 1    
   105   53  115 1    
   106   53  116 1    
   107   54   55 am   BACKBONE|DICT|INTERRES
   108   54  117 1    
   109   55   56 2    
   110   55   57 1    
   111   57   58 1    
   112   57   59 1    
   113   57  118 1    
   114   58  119 1    
   115   58  120 1    
   116   58  121 1    
   117   59   60 am   BACKBONE|DICT|INTERRES
   118   59  122 1    
   119   60   61 2    
   120   60   62 1    
   121   62   63 1    
   122   62   64 1    
   123   62  123 1    
   124   63  124 1    
   125   63  125 1    
   126   63  126 1    
   127   64   65 am   BACKBONE|DICT|INTERRES
   128   64  127 1    
   129   65   66 2    
@<TRIPOS>SUBSTRUCTURE
     1 UNK         1 GROUP             0       ****    0 ROOT    
