@<TRIPOS>MOLECULE
3R134
127   129    1
SMALL
USER_CHARGES


@<TRIPOS>ATOM
      1 CA         30.1323  -45.7937  -52.5554 C.3       0 UNK        -0.1968 
      2 C          31.5174  -45.7910  -51.9279 C.2       0 UNK         0.4852 
      3 O          31.8206  -46.6814  -51.1335 O.2       0 UNK        -0.5359 
      4 N          32.3612  -44.8007  -52.2615 N.am      1 UNK        -0.4300 
      5 CA         33.6743  -44.5822  -51.6326 C.3       1 UNK         0.0863 
      6 C6         34.2862  -43.1957  -51.9765 C.3       11 UNK        -0.0953 
      7 S7         35.0305  -43.0441  -53.6414 S.3       11 UNK        -0.2369 
      8 C8         33.9109  -41.8753  -54.4734 C.3       11 UNK         0.0226 
      9 C9         32.5313  -42.4724  -54.7013 C.ar      11 UNK        -0.0699 
     10 C10        32.3857  -43.6249  -55.4757 C.ar      11 UNK        -0.0804 
     11 C11        31.1276  -44.2009  -55.6613 C.ar      11 UNK        -0.0871 
     12 C12        30.0026  -43.5904  -55.0982 C.ar      11 UNK        -0.1008 
     13 C13        30.1261  -42.4108  -54.3483 C.ar      11 UNK        -0.0735 
     14 C14        31.3998  -41.8707  -54.1456 C.ar      11 UNK        -0.0945 
     15 C15        28.9349  -41.6809  -53.7203 C.3       11 UNK         0.0169 
     16 S16        27.2730  -42.2181  -54.2520 S.3       11 UNK        -0.2669 
     17 C17        27.2550  -41.7030  -56.0081 C.3       11 UNK        -0.0850 
     18 CA         25.9915  -42.2024  -56.7708 C.3       10 UNK         0.0855 
     19 C          25.9583  -41.7196  -58.2531 C.2       10 UNK         0.5543 
     20 N          25.4764  -42.5166  -59.1991 N.am      10 UNK        -0.7343 
     21 O          26.3425  -40.5900  -58.5470 O.2       10 UNK        -0.5027 
     22 N          25.7301  -43.6399  -56.5711 N.am      10 UNK        -0.4495 
     23 C          26.5251  -44.6536  -56.9350 C.2       10 UNK         0.4903 
     24 O          27.5633  -44.5183  -57.5845 O.2       10 UNK        -0.4860 
     25 CA         26.1270  -46.0556  -56.4383 C.3       9 UNK         0.0227 
     26 CB         24.6829  -46.1630  -55.8949 C.3       9 UNK        -0.1964 
     27 N          26.3892  -47.0878  -57.4413 N.am      9 UNK        -0.4231 
     28 C          25.8026  -47.2401  -58.6379 C.2       9 UNK         0.5014 
     29 O          24.9303  -46.4940  -59.0855 O.2       9 UNK        -0.5270 
     30 CA         26.2538  -48.4547  -59.4669 C.3       8 UNK         0.0284 
     31 CB         27.4940  -48.1045  -60.3066 C.3       8 UNK        -0.1977 
     32 N          26.5546  -49.5993  -58.6018 N.am      8 UNK        -0.4342 
     33 C          25.6613  -50.5223  -58.2159 C.2       8 UNK         0.5039 
     34 O          24.5126  -50.5904  -58.6551 O.2       8 UNK        -0.5547 
     35 CA         26.1171  -51.5361  -57.1466 C.3       7 UNK         0.0281 
     36 CB         26.7745  -52.7594  -57.8059 C.3       7 UNK        -0.1963 
     37 N          27.0418  -50.9564  -56.1683 N.am      7 UNK        -0.4444 
     38 C          26.7143  -50.0086  -55.2773 C.2       7 UNK         0.5104 
     39 O          25.5600  -49.6303  -55.0810 O.2       7 UNK        -0.5100 
     40 CA         27.8631  -49.3382  -54.4949 C.3       6 UNK         0.0396 
     41 CB         27.8808  -49.8289  -53.0396 C.3       6 UNK        -0.1801 
     42 N          29.1986  -49.5104  -55.0846 N.am      6 UNK        -0.4747 
     43 C          29.5694  -49.0957  -56.3082 C.2       6 UNK         0.5012 
     44 O          28.7954  -48.5371  -57.0855 O.2       6 UNK        -0.5003 
     45 CA         31.0170  -49.3668  -56.7729 C.3       5 UNK         0.0782 
     46 C46        31.7783  -48.0704  -57.1419 C.3       11 UNK        -0.0868 
     47 S47        31.9372  -46.8559  -55.7861 S.3       11 UNK        -0.2515 
     48 C48        30.9897  -45.4668  -56.4935 C.3       11 UNK         0.0199 
     49 N          31.7807  -50.2079  -55.8480 N.am      5 UNK        -0.4607 
     50 C          31.6366  -51.5355  -55.7344 C.2       4 UNK         0.5031 
     51 O          30.8367  -52.1913  -56.4022 O.2       4 UNK        -0.5119 
     52 CA         32.5141  -52.2505  -54.6921 C.3       4 UNK         0.0263 
     53 CB         33.7702  -52.8327  -55.3592 C.3       4 UNK        -0.1967 
     54 N          32.9185  -51.3920  -53.5753 N.am      4 UNK        -0.4237 
     55 C          32.0928  -50.8528  -52.6705 C.2       3 UNK         0.4908 
     56 O          30.8734  -51.0150  -52.6844 O.2       3 UNK        -0.5102 
     57 CA         32.7222  -49.9593  -51.5888 C.3       3 UNK         0.0241 
     58 CB         33.4664  -50.7944  -50.5282 C.3       3 UNK        -0.1971 
     59 N          33.5605  -48.8751  -52.1211 N.am      3 UNK        -0.4139 
     60 C          34.7257  -48.9524  -52.7858 C.2       2 UNK         0.5016 
     61 O          35.2939  -50.0160  -53.0397 O.2       2 UNK        -0.5319 
     62 CA         35.3550  -47.6408  -53.2935 C.3       2 UNK         0.0286 
     63 CB         35.5711  -47.6909  -54.8162 C.3       2 UNK        -0.1963 
     64 N          34.5525  -46.4590  -52.9671 N.am      2 UNK        -0.4790 
     65 C          34.6725  -45.7453  -51.8381 C.2       1 UNK         0.5024 
     66 O          35.5069  -45.9872  -50.9647 O.2       1 UNK        -0.4888 
     67 H67        30.1625  -46.2075  -53.5615 H         1 UNK         0.0892 
     68 H68        29.4483  -46.4021  -51.9642 H         1 UNK         0.0892 
     69 H69        29.7223  -44.7857  -52.5982 H         1 UNK         0.0892 
     70 H70        32.0854  -44.1189  -52.9569 H         1 UNK         0.3107 
     71 H71        33.4750  -44.5636  -50.5586 H         1 UNK         0.0773 
     72 H72        35.0744  -42.9662  -51.2574 H         1 UNK         0.0680 
     73 H73        33.5385  -42.4136  -51.8365 H         1 UNK         0.0680 
     74 H74        34.3413  -41.6027  -55.4379 H         1 UNK         0.0650 
     75 H75        33.8542  -40.9554  -53.8893 H         1 UNK         0.0650 
     76 H76        33.2583  -44.0884  -55.9165 H         1 UNK         0.1397 
     77 H77        29.0330  -44.0405  -55.2532 H         1 UNK         0.1363 
     78 H78        31.5091  -40.9703  -53.5557 H         1 UNK         0.1355 
     79 H79        28.9954  -41.8014  -52.6377 H         1 UNK         0.0707 
     80 H80        29.0239  -40.6109  -53.9156 H         1 UNK         0.0707 
     81 H81        28.1579  -42.0624  -56.5036 H         1 UNK         0.1034 
     82 H82        27.3103  -40.6134  -56.0392 H         1 UNK         0.1034 
     83 H83        25.1361  -41.7050  -56.3121 H         1 UNK         0.0482 
     84 H84        25.1713  -43.4499  -58.9698 H         1 UNK         0.3460 
     85 H85        25.4469  -42.1931  -60.1532 H         1 UNK         0.3460 
     86 H86        24.8921  -43.8563  -56.0520 H         1 UNK         0.2989 
     87 H87        26.8014  -46.2742  -55.6101 H         1 UNK         0.0559 
     88 H88        24.5411  -45.5387  -55.0119 H         1 UNK         0.0848 
     89 H89        24.4542  -47.1851  -55.5937 H         1 UNK         0.0848 
     90 H90        23.9410  -45.8676  -56.6375 H         1 UNK         0.0848 
     91 H91        27.1852  -47.6877  -57.2391 H         1 UNK         0.3144 
     92 H92        25.4441  -48.7162  -60.1517 H         1 UNK         0.0727 
     93 H93        27.8067  -48.9484  -60.9218 H         1 UNK         0.0790 
     94 H94        28.3398  -47.8114  -59.6832 H         1 UNK         0.0790 
     95 H95        27.2838  -47.2724  -60.9801 H         1 UNK         0.0790 
     96 H96        27.4627  -49.5871  -58.1512 H         1 UNK         0.3215 
     97 H97        25.2266  -51.8727  -56.6105 H         1 UNK         0.0863 
     98 H98        27.0276  -53.5203  -57.0671 H         1 UNK         0.0808 
     99 H99        27.6881  -52.4916  -58.3388 H         1 UNK         0.0808 
    100 H100       26.0996  -53.2227  -58.5274 H         1 UNK         0.0808 
    101 H101       28.0122  -51.2302  -56.2327 H         1 UNK         0.3118 
    102 H102       27.6550  -48.2668  -54.4826 H         1 UNK         0.0546 
    103 H103       28.1069  -50.8941  -52.9771 H         1 UNK         0.0828 
    104 H104       26.9134  -49.6718  -52.5602 H         1 UNK         0.0828 
    105 H105       28.6237  -49.2927  -52.4484 H         1 UNK         0.0828 
    106 H106       29.8855  -49.9778  -54.5053 H         1 UNK         0.3005 
    107 H107       30.9119  -49.9327  -57.7020 H         1 UNK         0.1257 
    108 H108       32.7837  -48.3207  -57.4843 H         1 UNK         0.0775 
    109 H109       31.2968  -47.5991  -58.0009 H         1 UNK         0.0775 
    110 H110       31.3463  -45.2565  -57.5030 H         1 UNK         0.0840 
    111 H111       29.9428  -45.7617  -56.5889 H         1 UNK         0.0840 
    112 H112       32.4484  -49.7352  -55.2571 H         1 UNK         0.2987 
    113 H113       31.9268  -53.0752  -54.2828 H         1 UNK         0.0785 
    114 H114       34.3588  -53.4186  -54.6529 H         1 UNK         0.0798 
    115 H115       34.4130  -52.0487  -55.7623 H         1 UNK         0.0798 
    116 H116       33.5041  -53.4946  -56.1847 H         1 UNK         0.0798 
    117 H117       33.9067  -51.1585  -53.4935 H         1 UNK         0.3079 
    118 H118       31.8943  -49.4610  -51.0815 H         1 UNK         0.0794 
    119 H119       32.8002  -51.5317  -50.0783 H         1 UNK         0.0786 
    120 H120       33.8420  -50.1634  -49.7226 H         1 UNK         0.0786 
    121 H121       34.3124  -51.3385  -50.9490 H         1 UNK         0.0786 
    122 H122       33.1758  -47.9489  -51.9607 H         1 UNK         0.3032 
    123 H123       36.3355  -47.5551  -52.8193 H         1 UNK         0.1094 
    124 H124       34.6410  -47.8699  -55.3542 H         1 UNK         0.0794 
    125 H125       36.0013  -46.7606  -55.1877 H         1 UNK         0.0794 
    126 H126       36.2589  -48.4934  -55.0864 H         1 UNK         0.0794 
    127 H127       33.8405  -46.1893  -53.6324 H         1 UNK         0.3016 
@<TRIPOS>BOND
     1    1    2 1    
     2    1   67 1    
     3    1   68 1    
     4    1   69 1    
     5    2    3 2    
     6    2    4 am   BACKBONE|DICT|INTERRES
     7    4    5 1    
     8    4   70 1    
     9    5    6 1    
    10    5   65 1    
    11    5   71 1    
    12    6    7 1    
    13    6   72 1    
    14    6   73 1    
    15    7    8 1    
    16    8    9 1    
    17    8   74 1    
    18    8   75 1    
    19    9   10 ar   
    20    9   14 ar   
    21   10   11 ar   
    22   10   76 1    
    23   11   12 ar   
    24   11   48 1    
    25   12   13 ar   
    26   12   77 1    
    27   13   14 ar   
    28   13   15 1    
    29   14   78 1    
    30   15   16 1    
    31   15   79 1    
    32   15   80 1    
    33   16   17 1    
    34   17   18 1    
    35   17   81 1    
    36   17   82 1    
    37   18   19 1    
    38   18   22 1    
    39   18   83 1    
    40   19   20 am   BACKBONE|DICT|INTERRES
    41   19   21 2    
    42   20   84 1    
    43   20   85 1    
    44   22   23 am   BACKBONE|DICT|INTERRES
    45   22   86 1    
    46   23   24 2    
    47   23   25 1    
    48   25   26 1    
    49   25   27 1    
    50   25   87 1    
    51   26   88 1    
    52   26   89 1    
    53   26   90 1    
    54   27   28 am   BACKBONE|DICT|INTERRES
    55   27   91 1    
    56   28   29 2    
    57   28   30 1    
    58   30   31 1    
    59   30   32 1    
    60   30   92 1    
    61   31   93 1    
    62   31   94 1    
    63   31   95 1    
    64   32   33 am   BACKBONE|DICT|INTERRES
    65   32   96 1    
    66   33   34 2    
    67   33   35 1    
    68   35   36 1    
    69   35   37 1    
    70   35   97 1    
    71   36   98 1    
    72   36   99 1    
    73   36  100 1    
    74   37   38 am   BACKBONE|DICT|INTERRES
    75   37  101 1    
    76   38   39 2    
    77   38   40 1    
    78   40   41 1    
    79   40   42 1    
    80   40  102 1    
    81   41  103 1    
    82   41  104 1    
    83   41  105 1    
    84   42   43 am   BACKBONE|DICT|INTERRES
    85   42  106 1    
    86   43   44 2    
    87   43   45 1    
    88   45   46 1    
    89   45   49 1    
    90   45  107 1    
    91   46   47 1    
    92   46  108 1    
    93   46  109 1    
    94   47   48 1    
    95   48  110 1    
    96   48  111 1    
    97   49   50 am   BACKBONE|DICT|INTERRES
    98   49  112 1    
    99   50   51 2    
   100   50   52 1    
   101   52   53 1    
   102   52   54 1    
   103   52  113 1    
   104   53  114 1    
   105   53  115 1    
   106   53  116 1    
   107   54   55 am   BACKBONE|DICT|INTERRES
   108   54  117 1    
   109   55   56 2    
   110   55   57 1    
   111   57   58 1    
   112   57   59 1    
   113   57  118 1    
   114   58  119 1    
   115   58  120 1    
   116   58  121 1    
   117   59   60 am   BACKBONE|DICT|INTERRES
   118   59  122 1    
   119   60   61 2    
   120   60   62 1    
   121   62   63 1    
   122   62   64 1    
   123   62  123 1    
   124   63  124 1    
   125   63  125 1    
   126   63  126 1    
   127   64   65 am   BACKBONE|DICT|INTERRES
   128   64  127 1    
   129   65   66 2    
@<TRIPOS>SUBSTRUCTURE
     1 UNK         1 GROUP             0       ****    0 ROOT    
