@<TRIPOS>MOLECULE
3R134
127   129    1
SMALL
USER_CHARGES


@<TRIPOS>ATOM
      1 CA         29.9032  -45.0289  -52.9683 C.3       0 UNK        -0.1968 
      2 C          30.9672  -45.2374  -51.9031 C.2       0 UNK         0.4852 
      3 O          30.7004  -45.9021  -50.9018 O.2       0 UNK        -0.5359 
      4 N          32.1674  -44.6739  -52.1047 N.am      1 UNK        -0.4300 
      5 CA         33.2903  -44.7684  -51.1620 C.3       1 UNK         0.0863 
      6 C6         34.1975  -43.5114  -51.2150 C.3       11 UNK        -0.0953 
      7 S7         35.2158  -43.3346  -52.7216 S.3       11 UNK        -0.2369 
      8 C8         34.4529  -41.9103  -53.5654 C.3       11 UNK         0.0226 
      9 C9         33.3073  -42.3299  -54.4749 C.ar      11 UNK        -0.0699 
     10 C10        33.5556  -43.1990  -55.5405 C.ar      11 UNK        -0.0804 
     11 C11        32.5212  -43.5951  -56.3883 C.ar      11 UNK        -0.0871 
     12 C12        31.2362  -43.0845  -56.1878 C.ar      11 UNK        -0.1008 
     13 C13        30.9655  -42.2102  -55.1282 C.ar      11 UNK        -0.0735 
     14 C14        32.0114  -41.8417  -54.2720 C.ar      11 UNK        -0.0945 
     15 C15        29.5490  -41.6985  -54.8536 C.3       11 UNK         0.0169 
     16 S16        28.6231  -41.1885  -56.3438 S.3       11 UNK        -0.2669 
     17 C17        27.8394  -42.7505  -56.8915 C.3       11 UNK        -0.0850 
     18 CA         26.2902  -42.7714  -56.7177 C.3       10 UNK         0.0855 
     19 C          25.5144  -42.0293  -57.8531 C.2       10 UNK         0.5543 
     20 N          24.2960  -42.4389  -58.1867 N.am      10 UNK        -0.7343 
     21 O          26.0012  -41.0579  -58.4258 O.2       10 UNK        -0.5027 
     22 N          25.7876  -44.1274  -56.4204 N.am      10 UNK        -0.4495 
     23 C          25.8884  -45.1926  -57.2287 C.2       10 UNK         0.4903 
     24 O          26.4164  -45.1593  -58.3421 O.2       10 UNK        -0.4860 
     25 CA         25.2980  -46.5027  -56.6771 C.3       9 UNK         0.0227 
     26 CB         23.7612  -46.5434  -56.8021 C.3       9 UNK        -0.1964 
     27 N          25.9455  -47.6856  -57.2560 N.am      9 UNK        -0.4231 
     28 C          25.7851  -48.2522  -58.4612 C.2       9 UNK         0.5014 
     29 O          24.9213  -47.9340  -59.2802 O.2       9 UNK        -0.5270 
     30 CA         26.7729  -49.3785  -58.8248 C.3       8 UNK         0.0284 
     31 CB         27.9970  -48.7981  -59.5517 C.3       8 UNK        -0.1977 
     32 N          27.2235  -50.1661  -57.6715 N.am      8 UNK        -0.4342 
     33 C          26.4479  -51.0191  -56.9863 C.2       8 UNK         0.5039 
     34 O          25.2774  -51.2671  -57.2796 O.2       8 UNK        -0.5547 
     35 CA         27.0763  -51.7075  -55.7614 C.3       7 UNK         0.0281 
     36 CB         27.9473  -52.9002  -56.1882 C.3       7 UNK        -0.1963 
     37 N          27.8646  -50.7874  -54.9388 N.am      7 UNK        -0.4444 
     38 C          27.3501  -49.7703  -54.2321 C.2       7 UNK         0.5104 
     39 O          26.1443  -49.5451  -54.1287 O.2       7 UNK        -0.5100 
     40 CA         28.3505  -48.8144  -53.5598 C.3       6 UNK         0.0396 
     41 CB         28.7960  -49.3505  -52.1912 C.3       6 UNK        -0.1801 
     42 N          29.5263  -48.5477  -54.3912 N.am      6 UNK        -0.4747 
     43 C          29.4933  -47.9318  -55.5814 C.2       6 UNK         0.5012 
     44 O          28.4681  -47.4800  -56.0838 O.2       6 UNK        -0.5003 
     45 CA         30.8181  -47.8211  -56.3546 C.3       5 UNK         0.0782 
     46 C46        31.6177  -46.5999  -55.8572 C.3       11 UNK        -0.0868 
     47 S47        33.1192  -46.2710  -56.8386 S.3       11 UNK        -0.2515 
     48 C48        32.7836  -44.6032  -57.4998 C.3       11 UNK         0.0199 
     49 N          31.5809  -49.0672  -56.2791 N.am      5 UNK        -0.4607 
     50 C          31.2008  -50.2210  -56.8420 C.2       4 UNK         0.5031 
     51 O          30.1818  -50.3488  -57.5211 O.2       4 UNK        -0.5119 
     52 CA         32.0842  -51.4458  -56.5552 C.3       4 UNK         0.0263 
     53 CB         33.2977  -51.4716  -57.4978 C.3       4 UNK        -0.1967 
     54 N          32.5383  -51.4917  -55.1618 N.am      4 UNK        -0.4237 
     55 C          31.7229  -51.6622  -54.1110 C.2       3 UNK         0.4908 
     56 O          30.5098  -51.8474  -54.2097 O.2       3 UNK        -0.5102 
     57 CA         32.3592  -51.5690  -52.7131 C.3       3 UNK         0.0241 
     58 CB         32.9662  -52.9211  -52.3055 C.3       3 UNK        -0.1971 
     59 N          33.3705  -50.5118  -52.5794 N.am      3 UNK        -0.4139 
     60 C          33.1416  -49.2067  -52.7799 C.2       2 UNK         0.5016 
     61 O          32.0671  -48.7534  -53.1811 O.2       2 UNK        -0.5319 
     62 CA         34.3112  -48.2485  -52.5257 C.3       2 UNK         0.0286 
     63 CB         35.2436  -48.1974  -53.7475 C.3       2 UNK        -0.1963 
     64 N          33.7671  -46.9135  -52.2905 N.am      2 UNK        -0.4790 
     65 C          34.0792  -46.0961  -51.2775 C.2       1 UNK         0.5024 
     66 O          34.9463  -46.3554  -50.4412 O.2       1 UNK        -0.4888 
     67 H67        29.4150  -45.9731  -53.2010 H         1 UNK         0.0892 
     68 H68        29.1444  -44.3354  -52.6077 H         1 UNK         0.0892 
     69 H69        30.3247  -44.6306  -53.8878 H         1 UNK         0.0892 
     70 H70        32.3470  -44.1363  -52.9426 H         1 UNK         0.3107 
     71 H71        32.8662  -44.7814  -50.1554 H         1 UNK         0.0773 
     72 H72        34.8818  -43.5222  -50.3648 H         1 UNK         0.0680 
     73 H73        33.5893  -42.6164  -51.0773 H         1 UNK         0.0680 
     74 H74        34.1322  -41.1673  -52.8337 H         1 UNK         0.0650 
     75 H75        35.2155  -41.4238  -54.1751 H         1 UNK         0.0650 
     76 H76        34.5528  -43.5888  -55.6954 H         1 UNK         0.1397 
     77 H77        30.4461  -43.3944  -56.8533 H         1 UNK         0.1363 
     78 H78        31.8171  -41.1723  -53.4448 H         1 UNK         0.1355 
     79 H79        28.9844  -42.4580  -54.3125 H         1 UNK         0.0707 
     80 H80        29.5956  -40.8320  -54.1922 H         1 UNK         0.0707 
     81 H81        28.1143  -42.9429  -57.9303 H         1 UNK         0.1034 
     82 H82        28.2758  -43.5702  -56.3196 H         1 UNK         0.1034 
     83 H83        26.0593  -42.2035  -55.8157 H         1 UNK         0.0482 
     84 H84        23.8791  -43.2305  -57.7247 H         1 UNK         0.3460 
     85 H85        23.7938  -41.9543  -58.9140 H         1 UNK         0.3460 
     86 H86        25.3216  -44.2335  -55.5304 H         1 UNK         0.2989 
     87 H87        25.5448  -46.5452  -55.6149 H         1 UNK         0.0559 
     88 H88        23.4297  -46.3848  -57.8286 H         1 UNK         0.0848 
     89 H89        23.2996  -45.7652  -56.1937 H         1 UNK         0.0848 
     90 H90        23.3607  -47.4987  -56.4626 H         1 UNK         0.0848 
     91 H91        26.7760  -47.9710  -56.7431 H         1 UNK         0.3144 
     92 H92        26.2612  -50.0553  -59.5123 H         1 UNK         0.0727 
     93 H93        28.5577  -48.1158  -58.9121 H         1 UNK         0.0790 
     94 H94        27.6951  -48.2389  -60.4383 H         1 UNK         0.0790 
     95 H95        28.6760  -49.5857  -59.8793 H         1 UNK         0.0790 
     96 H96        28.2021  -50.0797  -57.4109 H         1 UNK         0.3215 
     97 H97        26.2608  -52.0899  -55.1435 H         1 UNK         0.0863 
     98 H98        28.3341  -53.4374  -55.3221 H         1 UNK         0.0808 
     99 H99        28.7988  -52.5861  -56.7923 H         1 UNK         0.0808 
    100 H100       27.3708  -53.6116  -56.7809 H         1 UNK         0.0808 
    101 H101       28.8675  -50.9462  -54.8990 H         1 UNK         0.3118 
    102 H102       27.8382  -47.8639  -53.3982 H         1 UNK         0.0546 
    103 H103       29.4698  -48.6526  -51.6930 H         1 UNK         0.0828 
    104 H104       29.3109  -50.3068  -52.2802 H         1 UNK         0.0828 
    105 H105       27.9388  -49.5012  -51.5340 H         1 UNK         0.0828 
    106 H106       30.4309  -48.8282  -54.0144 H         1 UNK         0.3005 
    107 H107       30.5622  -47.6535  -57.4034 H         1 UNK         0.1257 
    108 H108       30.9721  -45.7242  -55.8830 H         1 UNK         0.0775 
    109 H109       31.9166  -46.7218  -54.8161 H         1 UNK         0.0775 
    110 H110       33.6398  -44.2759  -58.0913 H         1 UNK         0.0840 
    111 H111       31.9383  -44.6553  -58.1878 H         1 UNK         0.0840 
    112 H112       32.4079  -49.0502  -55.7018 H         1 UNK         0.2987 
    113 H113       31.4840  -52.3385  -56.7444 H         1 UNK         0.0785 
    114 H114       33.9517  -50.6124  -57.3429 H         1 UNK         0.0798 
    115 H115       32.9796  -51.4547  -58.5412 H         1 UNK         0.0798 
    116 H116       33.8905  -52.3755  -57.3566 H         1 UNK         0.0798 
    117 H117       33.5232  -51.3509  -54.9910 H         1 UNK         0.3079 
    118 H118       31.5566  -51.3357  -52.0105 H         1 UNK         0.0794 
    119 H119       33.8081  -53.1967  -52.9418 H         1 UNK         0.0786 
    120 H120       32.2261  -53.7193  -52.3802 H         1 UNK         0.0786 
    121 H121       33.3163  -52.9041  -51.2731 H         1 UNK         0.0786 
    122 H122       34.2858  -50.8022  -52.2656 H         1 UNK         0.3032 
    123 H123       34.8643  -48.5978  -51.6508 H         1 UNK         0.1094 
    124 H124       36.0671  -47.5018  -53.5845 H         1 UNK         0.0794 
    125 H125       35.6820  -49.1747  -53.9525 H         1 UNK         0.0794 
    126 H126       34.7146  -47.8791  -54.6469 H         1 UNK         0.0794 
    127 H127       32.9723  -46.6770  -52.8678 H         1 UNK         0.3016 
@<TRIPOS>BOND
     1    1    2 1    
     2    1   67 1    
     3    1   68 1    
     4    1   69 1    
     5    2    3 2    
     6    2    4 am   BACKBONE|DICT|INTERRES
     7    4    5 1    
     8    4   70 1    
     9    5    6 1    
    10    5   65 1    
    11    5   71 1    
    12    6    7 1    
    13    6   72 1    
    14    6   73 1    
    15    7    8 1    
    16    8    9 1    
    17    8   74 1    
    18    8   75 1    
    19    9   10 ar   
    20    9   14 ar   
    21   10   11 ar   
    22   10   76 1    
    23   11   12 ar   
    24   11   48 1    
    25   12   13 ar   
    26   12   77 1    
    27   13   14 ar   
    28   13   15 1    
    29   14   78 1    
    30   15   16 1    
    31   15   79 1    
    32   15   80 1    
    33   16   17 1    
    34   17   18 1    
    35   17   81 1    
    36   17   82 1    
    37   18   19 1    
    38   18   22 1    
    39   18   83 1    
    40   19   20 am   BACKBONE|DICT|INTERRES
    41   19   21 2    
    42   20   84 1    
    43   20   85 1    
    44   22   23 am   BACKBONE|DICT|INTERRES
    45   22   86 1    
    46   23   24 2    
    47   23   25 1    
    48   25   26 1    
    49   25   27 1    
    50   25   87 1    
    51   26   88 1    
    52   26   89 1    
    53   26   90 1    
    54   27   28 am   BACKBONE|DICT|INTERRES
    55   27   91 1    
    56   28   29 2    
    57   28   30 1    
    58   30   31 1    
    59   30   32 1    
    60   30   92 1    
    61   31   93 1    
    62   31   94 1    
    63   31   95 1    
    64   32   33 am   BACKBONE|DICT|INTERRES
    65   32   96 1    
    66   33   34 2    
    67   33   35 1    
    68   35   36 1    
    69   35   37 1    
    70   35   97 1    
    71   36   98 1    
    72   36   99 1    
    73   36  100 1    
    74   37   38 am   BACKBONE|DICT|INTERRES
    75   37  101 1    
    76   38   39 2    
    77   38   40 1    
    78   40   41 1    
    79   40   42 1    
    80   40  102 1    
    81   41  103 1    
    82   41  104 1    
    83   41  105 1    
    84   42   43 am   BACKBONE|DICT|INTERRES
    85   42  106 1    
    86   43   44 2    
    87   43   45 1    
    88   45   46 1    
    89   45   49 1    
    90   45  107 1    
    91   46   47 1    
    92   46  108 1    
    93   46  109 1    
    94   47   48 1    
    95   48  110 1    
    96   48  111 1    
    97   49   50 am   BACKBONE|DICT|INTERRES
    98   49  112 1    
    99   50   51 2    
   100   50   52 1    
   101   52   53 1    
   102   52   54 1    
   103   52  113 1    
   104   53  114 1    
   105   53  115 1    
   106   53  116 1    
   107   54   55 am   BACKBONE|DICT|INTERRES
   108   54  117 1    
   109   55   56 2    
   110   55   57 1    
   111   57   58 1    
   112   57   59 1    
   113   57  118 1    
   114   58  119 1    
   115   58  120 1    
   116   58  121 1    
   117   59   60 am   BACKBONE|DICT|INTERRES
   118   59  122 1    
   119   60   61 2    
   120   60   62 1    
   121   62   63 1    
   122   62   64 1    
   123   62  123 1    
   124   63  124 1    
   125   63  125 1    
   126   63  126 1    
   127   64   65 am   BACKBONE|DICT|INTERRES
   128   64  127 1    
   129   65   66 2    
@<TRIPOS>SUBSTRUCTURE
     1 UNK         1 GROUP             0       ****    0 ROOT    
