@<TRIPOS>MOLECULE
3R134
127   129    1
SMALL
USER_CHARGES


@<TRIPOS>ATOM
      1 CA         33.0190  -45.2749  -50.5343 C.3       0 UNK        -0.1968 
      2 C          33.5600  -46.1063  -51.6872 C.2       0 UNK         0.4852 
      3 O          32.9074  -47.0660  -52.1030 O.2       0 UNK        -0.5359 
      4 N          34.7534  -45.7558  -52.1912 N.am      1 UNK        -0.4300 
      5 CA         35.4548  -46.4069  -53.3099 C.3       1 UNK         0.0863 
      6 C6         34.7406  -46.1976  -54.6737 C.3       11 UNK        -0.0953 
      7 S7         34.6317  -44.4521  -55.1785 S.3       11 UNK        -0.2369 
      8 C8         33.3144  -44.5607  -56.4398 C.3       11 UNK         0.0226 
      9 C9         32.0251  -43.8481  -56.0412 C.ar      11 UNK        -0.0699 
     10 C10        31.5138  -43.9341  -54.7412 C.ar      11 UNK        -0.0804 
     11 C11        30.3311  -43.2725  -54.3956 C.ar      11 UNK        -0.0871 
     12 C12        29.6533  -42.5230  -55.3610 C.ar      11 UNK        -0.1008 
     13 C13        30.1453  -42.4377  -56.6658 C.ar      11 UNK        -0.0735 
     14 C14        31.3275  -43.1054  -56.9992 C.ar      11 UNK        -0.0945 
     15 C15        29.4177  -41.6093  -57.7137 C.3       11 UNK         0.0169 
     16 S16        28.0763  -42.5527  -58.4994 S.3       11 UNK        -0.2669 
     17 C17        26.6183  -41.9333  -57.5858 C.3       11 UNK        -0.0850 
     18 CA         25.3198  -42.7338  -57.8650 C.3       10 UNK         0.0855 
     19 C          24.8262  -42.5586  -59.3338 C.2       10 UNK         0.5543 
     20 N          24.8483  -43.5882  -60.1737 N.am      10 UNK        -0.7343 
     21 O          24.4049  -41.4675  -59.7102 O.2       10 UNK        -0.5027 
     22 N          25.4484  -44.1266  -57.4171 N.am      10 UNK        -0.4495 
     23 C          24.4281  -44.9764  -57.2445 C.2       10 UNK         0.4903 
     24 O          23.2451  -44.6350  -57.2899 O.2       10 UNK        -0.4860 
     25 CA         24.7838  -46.4540  -56.9784 C.3       9 UNK         0.0227 
     26 CB         23.7408  -47.4240  -57.5711 C.3       9 UNK        -0.1964 
     27 N          26.1353  -46.8432  -57.4035 N.am      9 UNK        -0.4231 
     28 C          26.6637  -46.7792  -58.6365 C.2       9 UNK         0.5014 
     29 O          26.0838  -46.3015  -59.6135 O.2       9 UNK        -0.5270 
     30 CA         28.0872  -47.3381  -58.8012 C.3       8 UNK         0.0284 
     31 CB         29.1334  -46.3093  -58.3388 C.3       8 UNK        -0.1977 
     32 N          28.2885  -48.5971  -58.0798 N.am      8 UNK        -0.4342 
     33 C          27.6751  -49.7554  -58.3651 C.2       8 UNK         0.5039 
     34 O          26.8972  -49.9096  -59.3073 O.2       8 UNK        -0.5547 
     35 CA         27.9732  -50.9425  -57.4363 C.3       7 UNK         0.0281 
     36 CB         29.3089  -51.6106  -57.8043 C.3       7 UNK        -0.1963 
     37 N          27.9941  -50.5296  -56.0324 N.am      7 UNK        -0.4444 
     38 C          26.8998  -50.3722  -55.2746 C.2       7 UNK         0.5104 
     39 O          25.7585  -50.6320  -55.6562 O.2       7 UNK        -0.5100 
     40 CA         27.1070  -49.8292  -53.8483 C.3       6 UNK         0.0396 
     41 CB         27.2418  -50.9875  -52.8477 C.3       6 UNK        -0.1801 
     42 N          28.2681  -48.9439  -53.7228 N.am      6 UNK        -0.4747 
     43 C          28.3552  -47.7259  -54.2821 C.2       6 UNK         0.5012 
     44 O          27.4604  -47.2272  -54.9633 O.2       6 UNK        -0.5003 
     45 CA         29.6897  -46.9654  -54.1091 C.3       5 UNK         0.0782 
     46 C46        29.7036  -46.1717  -52.7795 C.3       11 UNK        -0.0868 
     47 S47        28.6029  -44.7162  -52.7849 S.3       11 UNK        -0.2515 
     48 C48        29.7894  -43.3497  -52.9768 C.3       11 UNK         0.0199 
     49 N          30.8583  -47.8511  -54.2108 N.am      5 UNK        -0.4607 
     50 C          31.0971  -48.7057  -55.2186 C.2       4 UNK         0.5031 
     51 O          30.4387  -48.7201  -56.2577 O.2       4 UNK        -0.5119 
     52 CA         32.1808  -49.7824  -55.0238 C.3       4 UNK         0.0263 
     53 CB         33.3477  -49.5748  -55.9995 C.3       4 UNK        -0.1967 
     54 N          32.6647  -49.8946  -53.6410 N.am      4 UNK        -0.4237 
     55 C          31.9185  -50.3682  -52.6279 C.2       3 UNK         0.4908 
     56 O          30.7702  -50.7872  -52.7873 O.2       3 UNK        -0.5102 
     57 CA         32.4802  -50.3023  -51.1949 C.3       3 UNK         0.0241 
     58 CB         32.2690  -51.6193  -50.4177 C.3       3 UNK        -0.1971 
     59 N          33.8592  -49.8098  -51.0987 N.am      3 UNK        -0.4139 
     60 C          35.0052  -50.4479  -51.3791 C.2       2 UNK         0.5016 
     61 O          35.0766  -51.6217  -51.7456 O.2       2 UNK        -0.5319 
     62 CA         36.2857  -49.5920  -51.2498 C.3       2 UNK         0.0286 
     63 CB         37.5271  -50.2649  -51.8750 C.3       2 UNK        -0.1963 
     64 N          36.1084  -48.2275  -51.7766 N.am      2 UNK        -0.4790 
     65 C          35.7395  -47.9020  -53.0271 C.2       1 UNK         0.5024 
     66 O          35.5724  -48.7384  -53.9143 O.2       1 UNK        -0.4888 
     67 H67        33.6982  -44.4687  -50.2580 H         1 UNK         0.0892 
     68 H68        32.8670  -45.9056  -49.6590 H         1 UNK         0.0892 
     69 H69        32.0612  -44.8326  -50.8033 H         1 UNK         0.0892 
     70 H70        35.2327  -44.9576  -51.7977 H         1 UNK         0.3107 
     71 H71        36.4358  -45.9338  -53.3758 H         1 UNK         0.0773 
     72 H72        35.2716  -46.7172  -55.4734 H         1 UNK         0.0680 
     73 H73        33.7348  -46.6189  -54.6383 H         1 UNK         0.0680 
     74 H74        33.7095  -44.1313  -57.3617 H         1 UNK         0.0650 
     75 H75        33.0829  -45.6020  -56.6676 H         1 UNK         0.0650 
     76 H76        32.0414  -44.5136  -53.9970 H         1 UNK         0.1397 
     77 H77        28.7423  -42.0053  -55.0948 H         1 UNK         0.1363 
     78 H78        31.7079  -43.0406  -58.0096 H         1 UNK         0.1355 
     79 H79        30.1170  -41.2916  -58.4886 H         1 UNK         0.0707 
     80 H80        29.0285  -40.6925  -57.2682 H         1 UNK         0.0707 
     81 H81        26.4733  -40.8792  -57.8304 H         1 UNK         0.1034 
     82 H82        26.8338  -41.9603  -56.5172 H         1 UNK         0.1034 
     83 H83        24.5410  -42.2848  -57.2454 H         1 UNK         0.0482 
     84 H84        24.5225  -43.4623  -61.1183 H         1 UNK         0.3460 
     85 H85        25.2199  -44.4865  -59.8825 H         1 UNK         0.3460 
     86 H86        26.3888  -44.4906  -57.3816 H         1 UNK         0.2989 
     87 H87        24.7679  -46.5747  -55.8944 H         1 UNK         0.0559 
     88 H88        22.7496  -47.2413  -57.1546 H         1 UNK         0.0848 
     89 H89        23.9962  -48.4610  -57.3511 H         1 UNK         0.0848 
     90 H90        23.6640  -47.3202  -58.6539 H         1 UNK         0.0848 
     91 H91        26.7290  -47.1755  -56.6448 H         1 UNK         0.3144 
     92 H92        28.2477  -47.5350  -59.8632 H         1 UNK         0.0727 
     93 H93        30.1479  -46.6873  -58.4672 H         1 UNK         0.0790 
     94 H94        29.0082  -46.0428  -57.2888 H         1 UNK         0.0790 
     95 H95        29.0564  -45.3897  -58.9196 H         1 UNK         0.0790 
     96 H96        28.9778  -48.5891  -57.3294 H         1 UNK         0.3215 
     97 H97        27.1811  -51.6822  -57.5744 H         1 UNK         0.0863 
     98 H98        29.5076  -52.4748  -57.1703 H         1 UNK         0.0808 
     99 H99        30.1518  -50.9255  -57.7108 H         1 UNK         0.0808 
    100 H100       29.2927  -51.9638  -58.8362 H         1 UNK         0.0808 
    101 H101       28.8859  -50.2424  -55.6536 H         1 UNK         0.3118 
    102 H102       26.2173  -49.2539  -53.5833 H         1 UNK         0.0546 
    103 H103       26.3710  -51.6433  -52.8904 H         1 UNK         0.0828 
    104 H104       27.3209  -50.6219  -51.8239 H         1 UNK         0.0828 
    105 H105       28.1207  -51.5996  -53.0541 H         1 UNK         0.0828 
    106 H106       29.0678  -49.3119  -53.2207 H         1 UNK         0.3005 
    107 H107       29.7658  -46.2581  -54.9374 H         1 UNK         0.1257 
    108 H108       30.7114  -45.8240  -52.5673 H         1 UNK         0.0775 
    109 H109       29.4372  -46.8123  -51.9365 H         1 UNK         0.0775 
    110 H110       29.2867  -42.4146  -52.7248 H         1 UNK         0.0840 
    111 H111       30.6026  -43.4531  -52.2575 H         1 UNK         0.0840 
    112 H112       31.4902  -47.8521  -53.4163 H         1 UNK         0.2987 
    113 H113       31.7165  -50.7373  -55.2796 H         1 UNK         0.0785 
    114 H114       33.8052  -48.5950  -55.8850 H         1 UNK         0.0798 
    115 H115       33.0051  -49.6481  -57.0325 H         1 UNK         0.0798 
    116 H116       34.1234  -50.3281  -55.8611 H         1 UNK         0.0798 
    117 H117       33.5955  -49.5415  -53.4520 H         1 UNK         0.3079 
    118 H118       31.8794  -49.5412  -50.6944 H         1 UNK         0.0794 
    119 H119       32.7530  -52.4645  -50.9075 H         1 UNK         0.0786 
    120 H120       31.2079  -51.8599  -50.3411 H         1 UNK         0.0786 
    121 H121       32.6577  -51.5493  -49.4019 H         1 UNK         0.0786 
    122 H122       33.9281  -48.8234  -50.8844 H         1 UNK         0.3032 
    123 H123       36.4723  -49.4929  -50.1789 H         1 UNK         0.1094 
    124 H124       37.7324  -51.2241  -51.3982 H         1 UNK         0.0794 
    125 H125       37.3939  -50.4556  -52.9403 H         1 UNK         0.0794 
    126 H126       38.4168  -49.6473  -51.7533 H         1 UNK         0.0794 
    127 H127       36.2150  -47.4771  -51.1071 H         1 UNK         0.3016 
@<TRIPOS>BOND
     1    1    2 1    
     2    1   67 1    
     3    1   68 1    
     4    1   69 1    
     5    2    3 2    
     6    2    4 am   BACKBONE|DICT|INTERRES
     7    4    5 1    
     8    4   70 1    
     9    5    6 1    
    10    5   65 1    
    11    5   71 1    
    12    6    7 1    
    13    6   72 1    
    14    6   73 1    
    15    7    8 1    
    16    8    9 1    
    17    8   74 1    
    18    8   75 1    
    19    9   10 ar   
    20    9   14 ar   
    21   10   11 ar   
    22   10   76 1    
    23   11   12 ar   
    24   11   48 1    
    25   12   13 ar   
    26   12   77 1    
    27   13   14 ar   
    28   13   15 1    
    29   14   78 1    
    30   15   16 1    
    31   15   79 1    
    32   15   80 1    
    33   16   17 1    
    34   17   18 1    
    35   17   81 1    
    36   17   82 1    
    37   18   19 1    
    38   18   22 1    
    39   18   83 1    
    40   19   20 am   BACKBONE|DICT|INTERRES
    41   19   21 2    
    42   20   84 1    
    43   20   85 1    
    44   22   23 am   BACKBONE|DICT|INTERRES
    45   22   86 1    
    46   23   24 2    
    47   23   25 1    
    48   25   26 1    
    49   25   27 1    
    50   25   87 1    
    51   26   88 1    
    52   26   89 1    
    53   26   90 1    
    54   27   28 am   BACKBONE|DICT|INTERRES
    55   27   91 1    
    56   28   29 2    
    57   28   30 1    
    58   30   31 1    
    59   30   32 1    
    60   30   92 1    
    61   31   93 1    
    62   31   94 1    
    63   31   95 1    
    64   32   33 am   BACKBONE|DICT|INTERRES
    65   32   96 1    
    66   33   34 2    
    67   33   35 1    
    68   35   36 1    
    69   35   37 1    
    70   35   97 1    
    71   36   98 1    
    72   36   99 1    
    73   36  100 1    
    74   37   38 am   BACKBONE|DICT|INTERRES
    75   37  101 1    
    76   38   39 2    
    77   38   40 1    
    78   40   41 1    
    79   40   42 1    
    80   40  102 1    
    81   41  103 1    
    82   41  104 1    
    83   41  105 1    
    84   42   43 am   BACKBONE|DICT|INTERRES
    85   42  106 1    
    86   43   44 2    
    87   43   45 1    
    88   45   46 1    
    89   45   49 1    
    90   45  107 1    
    91   46   47 1    
    92   46  108 1    
    93   46  109 1    
    94   47   48 1    
    95   48  110 1    
    96   48  111 1    
    97   49   50 am   BACKBONE|DICT|INTERRES
    98   49  112 1    
    99   50   51 2    
   100   50   52 1    
   101   52   53 1    
   102   52   54 1    
   103   52  113 1    
   104   53  114 1    
   105   53  115 1    
   106   53  116 1    
   107   54   55 am   BACKBONE|DICT|INTERRES
   108   54  117 1    
   109   55   56 2    
   110   55   57 1    
   111   57   58 1    
   112   57   59 1    
   113   57  118 1    
   114   58  119 1    
   115   58  120 1    
   116   58  121 1    
   117   59   60 am   BACKBONE|DICT|INTERRES
   118   59  122 1    
   119   60   61 2    
   120   60   62 1    
   121   62   63 1    
   122   62   64 1    
   123   62  123 1    
   124   63  124 1    
   125   63  125 1    
   126   63  126 1    
   127   64   65 am   BACKBONE|DICT|INTERRES
   128   64  127 1    
   129   65   66 2    
@<TRIPOS>SUBSTRUCTURE
     1 UNK         1 GROUP             0       ****    0 ROOT    
