@<TRIPOS>MOLECULE
3R134
127   129    1
SMALL
USER_CHARGES


@<TRIPOS>ATOM
      1 CA         31.3963  -45.2215  -49.0128 C.3       0 UNK        -0.1968 
      2 C          32.2275  -45.3873  -50.2761 C.2       0 UNK         0.4852 
      3 O          31.7622  -46.0143  -51.2271 O.2       0 UNK        -0.5359 
      4 N          33.4450  -44.8249  -50.2874 N.am      1 UNK        -0.4300 
      5 CA         34.4391  -44.8554  -51.3703 C.3       1 UNK         0.0863 
      6 C6         33.9532  -44.2558  -52.7186 C.3       11 UNK        -0.0953 
      7 S7         33.2825  -42.5639  -52.5918 S.3       11 UNK        -0.2369 
      8 C8         31.5573  -42.8241  -53.1348 C.3       11 UNK         0.0226 
      9 C9         31.3652  -42.7603  -54.6505 C.ar      11 UNK        -0.0699 
     10 C10        32.1827  -43.4847  -55.5279 C.ar      11 UNK        -0.0804 
     11 C11        31.9747  -43.4380  -56.9076 C.ar      11 UNK        -0.0871 
     12 C12        30.9319  -42.6628  -57.4179 C.ar      11 UNK        -0.1008 
     13 C13        30.0998  -41.9420  -56.5580 C.ar      11 UNK        -0.0735 
     14 C14        30.3241  -41.9895  -55.1787 C.ar      11 UNK        -0.0945 
     15 C15        28.9565  -41.1188  -57.1273 C.3       11 UNK         0.0169 
     16 S16        27.5324  -42.1691  -57.5486 S.3       11 UNK        -0.2669 
     17 C17        26.8832  -42.6067  -55.8961 C.3       11 UNK        -0.0850 
     18 CA         27.1818  -44.0724  -55.4455 C.3       10 UNK         0.0855 
     19 C          26.6306  -44.3327  -54.0090 C.2       10 UNK         0.5543 
     20 N          26.0482  -45.4840  -53.7050 N.am      10 UNK        -0.7343 
     21 O          26.7539  -43.4756  -53.1373 O.2       10 UNK        -0.5027 
     22 N          26.8242  -45.0718  -56.4738 N.am      10 UNK        -0.4495 
     23 C          25.5965  -45.2434  -56.9831 C.2       10 UNK         0.4903 
     24 O          24.5748  -44.7551  -56.4990 O.2       10 UNK        -0.4860 
     25 CA         25.4805  -46.0145  -58.3033 C.3       9 UNK         0.0227 
     26 CB         25.8071  -45.0716  -59.4812 C.3       9 UNK        -0.1964 
     27 N          26.3051  -47.2250  -58.3611 N.am      9 UNK        -0.4231 
     28 C          26.1146  -48.1993  -59.2643 C.2       9 UNK         0.5014 
     29 O          25.2339  -48.1743  -60.1264 O.2       9 UNK        -0.5270 
     30 CA         27.0529  -49.4154  -59.2123 C.3       8 UNK         0.0284 
     31 CB         28.3822  -49.1000  -59.9166 C.3       8 UNK        -0.1977 
     32 N          27.2978  -49.9020  -57.8536 N.am      8 UNK        -0.4342 
     33 C          26.3553  -50.4261  -57.0555 C.2       8 UNK         0.5039 
     34 O          25.1833  -50.5956  -57.3952 O.2       8 UNK        -0.5547 
     35 CA         26.7834  -50.8291  -55.6350 C.3       7 UNK         0.0281 
     36 CB         27.3570  -52.2551  -55.6305 C.3       7 UNK        -0.1963 
     37 N          27.7490  -49.9023  -55.0395 N.am      7 UNK        -0.4444 
     38 C          27.4852  -48.6216  -54.7408 C.2       7 UNK         0.5104 
     39 O          26.3865  -48.0906  -54.9050 O.2       7 UNK        -0.5100 
     40 CA         28.6599  -47.7725  -54.2239 C.3       6 UNK         0.0396 
     41 CB         28.9838  -48.1020  -52.7598 C.3       6 UNK        -0.1801 
     42 N          29.8565  -47.9177  -55.0502 N.am      6 UNK        -0.4747 
     43 C          29.9228  -47.5868  -56.3494 C.2       6 UNK         0.5012 
     44 O          28.9979  -47.0534  -56.9693 O.2       6 UNK        -0.5003 
     45 CA         31.2141  -47.9837  -57.0912 C.3       5 UNK         0.0782 
     46 C46        32.2856  -46.8646  -57.0519 C.3       11 UNK        -0.0868 
     47 S47        32.1002  -45.7281  -58.4671 S.3       11 UNK        -0.2515 
     48 C48        32.8869  -44.2088  -57.8501 C.3       11 UNK         0.0199 
     49 N          31.7323  -49.2728  -56.6180 N.am      5 UNK        -0.4607 
     50 C          31.1528  -50.4498  -56.8940 C.2       4 UNK         0.5031 
     51 O          30.1238  -50.5631  -57.5582 O.2       4 UNK        -0.5119 
     52 CA         31.8102  -51.7092  -56.3083 C.3       4 UNK         0.0263 
     53 CB         33.0677  -52.0901  -57.1061 C.3       4 UNK        -0.1967 
     54 N          32.1462  -51.5686  -54.8909 N.am      4 UNK        -0.4237 
     55 C          31.2455  -51.3961  -53.9132 C.2       3 UNK         0.4908 
     56 O          30.0305  -51.3520  -54.0982 O.2       3 UNK        -0.5102 
     57 CA         31.7896  -51.2067  -52.4886 C.3       3 UNK         0.0241 
     58 CB         31.9859  -52.5686  -51.8034 C.3       3 UNK        -0.1971 
     59 N          33.0336  -50.4329  -52.4114 N.am      3 UNK        -0.4139 
     60 C          33.1950  -49.1870  -52.8767 C.2       2 UNK         0.5016 
     61 O          32.3479  -48.5742  -53.5350 O.2       2 UNK        -0.5319 
     62 CA         34.5366  -48.5147  -52.5773 C.3       2 UNK         0.0286 
     63 CB         35.4804  -48.6019  -53.7900 C.3       2 UNK        -0.1963 
     64 N          34.2465  -47.1251  -52.2599 N.am      2 UNK        -0.4790 
     65 C          35.0102  -46.2748  -51.5684 C.2       1 UNK         0.5024 
     66 O          36.1111  -46.5654  -51.0985 O.2       1 UNK        -0.4888 
     67 H67        31.1561  -46.1975  -48.5923 H         1 UNK         0.0892 
     68 H68        30.4621  -44.7112  -49.2454 H         1 UNK         0.0892 
     69 H69        31.9189  -44.6424  -48.2516 H         1 UNK         0.0892 
     70 H70        33.7545  -44.3401  -49.4566 H         1 UNK         0.3107 
     71 H71        35.2678  -44.2351  -51.0246 H         1 UNK         0.0773 
     72 H72        33.1934  -44.9002  -53.1603 H         1 UNK         0.0680 
     73 H73        34.7782  -44.2281  -53.4329 H         1 UNK         0.0680 
     74 H74        31.1850  -43.7801  -52.7655 H         1 UNK         0.0650 
     75 H75        30.9478  -42.0601  -52.6499 H         1 UNK         0.0650 
     76 H76        32.9928  -44.0873  -55.1531 H         1 UNK         0.1397 
     77 H77        30.7595  -42.6296  -58.4853 H         1 UNK         0.1363 
     78 H78        29.6769  -41.4337  -54.5142 H         1 UNK         0.1355 
     79 H79        29.2934  -40.6055  -58.0292 H         1 UNK         0.0707 
     80 H80        28.6497  -40.3373  -56.4303 H         1 UNK         0.0707 
     81 H81        25.8060  -42.4323  -55.9101 H         1 UNK         0.1034 
     82 H82        27.2773  -41.8977  -55.1665 H         1 UNK         0.1034 
     83 H83        28.2638  -44.1625  -55.3438 H         1 UNK         0.0482 
     84 H84        25.9837  -46.2336  -54.3852 H         1 UNK         0.3460 
     85 H85        25.6987  -45.6242  -52.7714 H         1 UNK         0.3460 
     86 H86        27.6123  -45.5472  -56.8985 H         1 UNK         0.2989 
     87 H87        24.4351  -46.3192  -58.3903 H         1 UNK         0.0559 
     88 H88        25.5591  -45.5202  -60.4428 H         1 UNK         0.0848 
     89 H89        26.8645  -44.8047  -59.4986 H         1 UNK         0.0848 
     90 H90        25.2401  -44.1422  -59.4087 H         1 UNK         0.0848 
     91 H91        27.0498  -47.3216  -57.6779 H         1 UNK         0.3144 
     92 H92        26.5701  -50.2256  -59.7630 H         1 UNK         0.0727 
     93 H93        29.0287  -49.9764  -59.9596 H         1 UNK         0.0790 
     94 H94        28.9265  -48.3010  -59.4143 H         1 UNK         0.0790 
     95 H95        28.2098  -48.7769  -60.9442 H         1 UNK         0.0790 
     96 H96        28.2609  -49.8930  -57.5301 H         1 UNK         0.3215 
     97 H97        25.8889  -50.8208  -55.0085 H         1 UNK         0.0863 
     98 H98        27.5714  -52.5923  -54.6163 H         1 UNK         0.0808 
     99 H99        28.2811  -52.3197  -56.2066 H         1 UNK         0.0808 
    100 H100       26.6498  -52.9632  -56.0646 H         1 UNK         0.0808 
    101 H101       28.6707  -50.2802  -54.8286 H         1 UNK         0.3118 
    102 H102       28.3721  -46.7231  -54.2737 H         1 UNK         0.0546 
    103 H103       28.1172  -47.9261  -52.1214 H         1 UNK         0.0828 
    104 H104       29.7955  -47.4787  -52.3845 H         1 UNK         0.0828 
    105 H105       29.2774  -49.1433  -52.6330 H         1 UNK         0.0828 
    106 H106       30.6787  -48.3146  -54.6023 H         1 UNK         0.3005 
    107 H107       30.9312  -48.1424  -58.1343 H         1 UNK         0.1257 
    108 H108       33.2874  -47.2912  -57.1241 H         1 UNK         0.0775 
    109 H109       32.2634  -46.3173  -56.1077 H         1 UNK         0.0775 
    110 H110       33.8338  -44.4559  -57.3672 H         1 UNK         0.0840 
    111 H111       33.1392  -43.5753  -58.7018 H         1 UNK         0.0840 
    112 H112       32.5329  -49.2481  -56.0033 H         1 UNK         0.2987 
    113 H113       31.0909  -52.5262  -56.3989 H         1 UNK         0.0785 
    114 H114       33.8464  -51.3304  -57.0274 H         1 UNK         0.0798 
    115 H115       32.8350  -52.2098  -58.1653 H         1 UNK         0.0798 
    116 H116       33.4851  -53.0359  -56.7600 H         1 UNK         0.0798 
    117 H117       33.1246  -51.5886  -54.6439 H         1 UNK         0.3079 
    118 H118       31.0347  -50.6534  -51.9269 H         1 UNK         0.0794 
    119 H119       32.7639  -53.1587  -52.2895 H         1 UNK         0.0786 
    120 H120       31.0664  -53.1555  -51.8315 H         1 UNK         0.0786 
    121 H121       32.2587  -52.4505  -50.7545 H         1 UNK         0.0786 
    122 H122       33.7932  -50.8607  -51.9011 H         1 UNK         0.3032 
    123 H123       34.9997  -48.9907  -51.7099 H         1 UNK         0.1094 
    124 H124       35.0504  -48.1204  -54.6694 H         1 UNK         0.0794 
    125 H125       36.4385  -48.1247  -53.5835 H         1 UNK         0.0794 
    126 H126       35.6868  -49.6404  -54.0518 H         1 UNK         0.0794 
    127 H127       33.2997  -46.8361  -52.4948 H         1 UNK         0.3016 
@<TRIPOS>BOND
     1    1    2 1    
     2    1   67 1    
     3    1   68 1    
     4    1   69 1    
     5    2    3 2    
     6    2    4 am   BACKBONE|DICT|INTERRES
     7    4    5 1    
     8    4   70 1    
     9    5    6 1    
    10    5   65 1    
    11    5   71 1    
    12    6    7 1    
    13    6   72 1    
    14    6   73 1    
    15    7    8 1    
    16    8    9 1    
    17    8   74 1    
    18    8   75 1    
    19    9   10 ar   
    20    9   14 ar   
    21   10   11 ar   
    22   10   76 1    
    23   11   12 ar   
    24   11   48 1    
    25   12   13 ar   
    26   12   77 1    
    27   13   14 ar   
    28   13   15 1    
    29   14   78 1    
    30   15   16 1    
    31   15   79 1    
    32   15   80 1    
    33   16   17 1    
    34   17   18 1    
    35   17   81 1    
    36   17   82 1    
    37   18   19 1    
    38   18   22 1    
    39   18   83 1    
    40   19   20 am   BACKBONE|DICT|INTERRES
    41   19   21 2    
    42   20   84 1    
    43   20   85 1    
    44   22   23 am   BACKBONE|DICT|INTERRES
    45   22   86 1    
    46   23   24 2    
    47   23   25 1    
    48   25   26 1    
    49   25   27 1    
    50   25   87 1    
    51   26   88 1    
    52   26   89 1    
    53   26   90 1    
    54   27   28 am   BACKBONE|DICT|INTERRES
    55   27   91 1    
    56   28   29 2    
    57   28   30 1    
    58   30   31 1    
    59   30   32 1    
    60   30   92 1    
    61   31   93 1    
    62   31   94 1    
    63   31   95 1    
    64   32   33 am   BACKBONE|DICT|INTERRES
    65   32   96 1    
    66   33   34 2    
    67   33   35 1    
    68   35   36 1    
    69   35   37 1    
    70   35   97 1    
    71   36   98 1    
    72   36   99 1    
    73   36  100 1    
    74   37   38 am   BACKBONE|DICT|INTERRES
    75   37  101 1    
    76   38   39 2    
    77   38   40 1    
    78   40   41 1    
    79   40   42 1    
    80   40  102 1    
    81   41  103 1    
    82   41  104 1    
    83   41  105 1    
    84   42   43 am   BACKBONE|DICT|INTERRES
    85   42  106 1    
    86   43   44 2    
    87   43   45 1    
    88   45   46 1    
    89   45   49 1    
    90   45  107 1    
    91   46   47 1    
    92   46  108 1    
    93   46  109 1    
    94   47   48 1    
    95   48  110 1    
    96   48  111 1    
    97   49   50 am   BACKBONE|DICT|INTERRES
    98   49  112 1    
    99   50   51 2    
   100   50   52 1    
   101   52   53 1    
   102   52   54 1    
   103   52  113 1    
   104   53  114 1    
   105   53  115 1    
   106   53  116 1    
   107   54   55 am   BACKBONE|DICT|INTERRES
   108   54  117 1    
   109   55   56 2    
   110   55   57 1    
   111   57   58 1    
   112   57   59 1    
   113   57  118 1    
   114   58  119 1    
   115   58  120 1    
   116   58  121 1    
   117   59   60 am   BACKBONE|DICT|INTERRES
   118   59  122 1    
   119   60   61 2    
   120   60   62 1    
   121   62   63 1    
   122   62   64 1    
   123   62  123 1    
   124   63  124 1    
   125   63  125 1    
   126   63  126 1    
   127   64   65 am   BACKBONE|DICT|INTERRES
   128   64  127 1    
   129   65   66 2    
@<TRIPOS>SUBSTRUCTURE
     1 UNK         1 GROUP             0       ****    0 ROOT    
