@<TRIPOS>MOLECULE
3R134
127   129    1
SMALL
USER_CHARGES


@<TRIPOS>ATOM
      1 CA         34.5341  -42.7675  -47.5919 C.3       0 UNK        -0.1968 
      2 C          34.6734  -42.8377  -49.1057 C.2       0 UNK         0.4852 
      3 O          34.9995  -41.8310  -49.7371 O.2       0 UNK        -0.5359 
      4 N          34.4352  -44.0166  -49.6880 N.am      1 UNK        -0.4300 
      5 CA         34.5245  -44.2958  -51.1201 C.3       1 UNK         0.0863 
      6 C6         33.3293  -43.7305  -51.9388 C.3       11 UNK        -0.0953 
      7 S7         31.6674  -44.1439  -51.2963 S.3       11 UNK        -0.2369 
      8 C8         31.2173  -45.6234  -52.2551 C.3       11 UNK         0.0226 
      9 C9         30.9755  -45.3240  -53.7279 C.ar      11 UNK        -0.0699 
     10 C10        31.9764  -45.5636  -54.6726 C.ar      11 UNK        -0.0804 
     11 C11        31.7488  -45.3219  -56.0304 C.ar      11 UNK        -0.0871 
     12 C12        30.4947  -44.8623  -56.4439 C.ar      11 UNK        -0.1008 
     13 C13        29.4815  -44.6175  -55.5087 C.ar      11 UNK        -0.0735 
     14 C14        29.7354  -44.8407  -54.1512 C.ar      11 UNK        -0.0945 
     15 C15        28.0934  -44.1643  -55.9452 C.3       11 UNK         0.0169 
     16 S16        28.1247  -42.8056  -57.1642 S.3       11 UNK        -0.2669 
     17 C17        26.5597  -41.9313  -56.7963 C.3       11 UNK        -0.0850 
     18 CA         25.3182  -42.4618  -57.5625 C.3       10 UNK         0.0855 
     19 C          25.3480  -42.1241  -59.0833 C.2       10 UNK         0.5543 
     20 N          25.1784  -43.0793  -59.9905 N.am      10 UNK        -0.7343 
     21 O          25.5080  -40.9618  -59.4484 O.2       10 UNK        -0.5027 
     22 N          25.0693  -43.8754  -57.2521 N.am      10 UNK        -0.4495 
     23 C          23.8697  -44.4635  -57.2021 C.2       10 UNK         0.4903 
     24 O          22.8040  -43.8589  -57.3318 O.2       10 UNK        -0.4860 
     25 CA         23.8738  -45.9887  -56.9674 C.3       9 UNK         0.0227 
     26 CB         22.5496  -46.6574  -57.3923 C.3       9 UNK        -0.1964 
     27 N          25.0148  -46.6853  -57.5812 N.am      9 UNK        -0.4231 
     28 C          25.3591  -46.6839  -58.8819 C.2       9 UNK         0.5014 
     29 O          24.7923  -46.0023  -59.7370 O.2       9 UNK        -0.5270 
     30 CA         26.5450  -47.5684  -59.3154 C.3       8 UNK         0.0284 
     31 CB         27.7927  -46.6985  -59.5442 C.3       8 UNK        -0.1977 
     32 N          26.8655  -48.6386  -58.3660 N.am      8 UNK        -0.4342 
     33 C          26.0563  -49.6692  -58.0689 C.2       8 UNK         0.5039 
     34 O          25.0073  -49.9005  -58.6714 O.2       8 UNK        -0.5547 
     35 CA         26.4448  -50.5795  -56.8845 C.3       7 UNK         0.0281 
     36 CB         26.9419  -51.9406  -57.3967 C.3       7 UNK        -0.1963 
     37 N          27.4481  -50.0062  -55.9802 N.am      7 UNK        -0.4444 
     38 C          27.3047  -48.8687  -55.2799 C.2       7 UNK         0.5104 
     39 O          26.2632  -48.2105  -55.2602 O.2       7 UNK        -0.5100 
     40 CA         28.5449  -48.3246  -54.5415 C.3       6 UNK         0.0396 
     41 CB         28.4863  -48.6912  -53.0513 C.3       6 UNK        -0.1801 
     42 N          29.8357  -48.7573  -55.0911 N.am      6 UNK        -0.4747 
     43 C          30.2309  -48.6481  -56.3704 C.2       6 UNK         0.5012 
     44 O          29.5422  -48.1277  -57.2488 O.2       6 UNK        -0.5003 
     45 CA         31.5631  -49.3334  -56.7567 C.3       5 UNK         0.0782 
     46 C46        32.7643  -48.3571  -56.7573 C.3       11 UNK        -0.0868 
     47 S47        32.6498  -47.0545  -58.0306 S.3       11 UNK        -0.2515 
     48 C48        32.8648  -45.5373  -57.0449 C.3       11 UNK         0.0199 
     49 N          31.8674  -50.5050  -55.9263 N.am      5 UNK        -0.4607 
     50 C          31.1015  -51.5872  -55.7412 C.2       4 UNK         0.5031 
     51 O          30.0089  -51.7447  -56.2849 O.2       4 UNK        -0.5119 
     52 CA         31.5993  -52.6495  -54.7413 C.3       4 UNK         0.0263 
     53 CB         32.4118  -53.7459  -55.4577 C.3       4 UNK        -0.1967 
     54 N          32.3194  -52.1078  -53.5739 N.am      4 UNK        -0.4237 
     55 C          33.5112  -51.4939  -53.5356 C.2       3 UNK         0.4908 
     56 O          34.2301  -51.3203  -54.5229 O.2       3 UNK        -0.5102 
     57 CA         33.9649  -50.9742  -52.1606 C.3       3 UNK         0.0241 
     58 CB         34.7102  -52.0759  -51.3894 C.3       3 UNK        -0.1971 
     59 N          34.8349  -49.8011  -52.2807 N.am      3 UNK        -0.4139 
     60 C          34.4478  -48.6057  -52.7462 C.2       2 UNK         0.5016 
     61 O          33.2928  -48.3392  -53.0842 O.2       2 UNK        -0.5319 
     62 CA         35.5580  -47.5523  -52.9153 C.3       2 UNK         0.0286 
     63 CB         36.0463  -47.5377  -54.3738 C.3       2 UNK        -0.1963 
     64 N          35.1587  -46.1915  -52.5371 N.am      2 UNK        -0.4790 
     65 C          34.7595  -45.8061  -51.3165 C.2       1 UNK         0.5024 
     66 O          34.6209  -46.5772  -50.3619 O.2       1 UNK        -0.4888 
     67 H67        33.7795  -42.0303  -47.3190 H         1 UNK         0.0892 
     68 H68        35.4806  -42.4705  -47.1409 H         1 UNK         0.0892 
     69 H69        34.2407  -43.7263  -47.1649 H         1 UNK         0.0892 
     70 H70        34.2158  -44.8361  -49.1344 H         1 UNK         0.3107 
     71 H71        35.4332  -43.8113  -51.4846 H         1 UNK         0.0773 
     72 H72        33.4096  -44.0055  -52.9891 H         1 UNK         0.0680 
     73 H73        33.3947  -42.6416  -51.9373 H         1 UNK         0.0680 
     74 H74        31.9909  -46.3791  -52.1342 H         1 UNK         0.0650 
     75 H75        30.3130  -46.0518  -51.8214 H         1 UNK         0.0650 
     76 H76        32.9338  -45.9446  -54.3468 H         1 UNK         0.1397 
     77 H77        30.3071  -44.7009  -57.4965 H         1 UNK         0.1363 
     78 H78        28.9583  -44.6655  -53.4198 H         1 UNK         0.1355 
     79 H79        27.5145  -43.8553  -55.0738 H         1 UNK         0.0707 
     80 H80        27.5735  -45.0213  -56.3741 H         1 UNK         0.0707 
     81 H81        26.7085  -40.8717  -57.0128 H         1 UNK         0.1034 
     82 H82        26.3696  -41.9688  -55.7228 H         1 UNK         0.1034 
     83 H83        24.4681  -41.8949  -57.1781 H         1 UNK         0.0482 
     84 H84        25.0188  -44.0448  -59.7219 H         1 UNK         0.3460 
     85 H85        25.1940  -42.8326  -60.9669 H         1 UNK         0.3460 
     86 H86        25.8903  -44.4551  -57.1787 H         1 UNK         0.2989 
     87 H87        23.9818  -46.1274  -55.8907 H         1 UNK         0.0559 
     88 H88        22.5668  -47.7299  -57.1975 H         1 UNK         0.0848 
     89 H89        22.3481  -46.5134  -58.4544 H         1 UNK         0.0848 
     90 H90        21.7044  -46.2432  -56.8411 H         1 UNK         0.0848 
     91 H91        25.5521  -47.2680  -56.9456 H         1 UNK         0.3144 
     92 H92        26.2730  -48.0350  -60.2643 H         1 UNK         0.0727 
     93 H93        28.6294  -47.2923  -59.9128 H         1 UNK         0.0790 
     94 H94        28.1149  -46.2033  -58.6271 H         1 UNK         0.0790 
     95 H95        27.5982  -45.9195  -60.2829 H         1 UNK         0.0790 
     96 H96        27.7399  -48.5364  -57.8552 H         1 UNK         0.3215 
     97 H97        25.5378  -50.7448  -56.2992 H         1 UNK         0.0863 
     98 H98        27.1626  -52.6202  -56.5734 H         1 UNK         0.0808 
     99 H99        27.8462  -51.8374  -57.9979 H         1 UNK         0.0808 
    100 H100       26.1887  -52.4228  -58.0214 H         1 UNK         0.0808 
    101 H101       28.3501  -50.4712  -55.9631 H         1 UNK         0.3118 
    102 H102       28.5079  -47.2393  -54.6291 H         1 UNK         0.0546 
    103 H103       27.5581  -48.3391  -52.5990 H         1 UNK         0.0828 
    104 H104       29.3072  -48.2365  -52.4972 H         1 UNK         0.0828 
    105 H105       28.5349  -49.7702  -52.8996 H         1 UNK         0.0828 
    106 H106       30.4754  -49.1977  -54.4458 H         1 UNK         0.3005 
    107 H107       31.4304  -49.7061  -57.7747 H         1 UNK         0.1257 
    108 H108       33.6850  -48.9082  -56.9561 H         1 UNK         0.0775 
    109 H109       32.8974  -47.9200  -55.7682 H         1 UNK         0.0775 
    110 H110       33.8365  -45.5678  -56.5496 H         1 UNK         0.0840 
    111 H111       32.9006  -44.6833  -57.7228 H         1 UNK         0.0840 
    112 H112       32.7668  -50.5009  -55.4540 H         1 UNK         0.2987 
    113 H113       30.7052  -53.1251  -54.3347 H         1 UNK         0.0785 
    114 H114       33.3092  -53.3487  -55.9329 H         1 UNK         0.0798 
    115 H115       31.8170  -54.2190  -56.2402 H         1 UNK         0.0798 
    116 H116       32.7177  -54.5297  -54.7648 H         1 UNK         0.0798 
    117 H117       31.8126  -52.1821  -52.7020 H         1 UNK         0.3079 
    118 H118       33.0822  -50.6780  -51.5895 H         1 UNK         0.0794 
    119 H119       35.6085  -52.4004  -51.9168 H         1 UNK         0.0786 
    120 H120       34.0790  -52.9550  -51.2517 H         1 UNK         0.0786 
    121 H121       35.0074  -51.7352  -50.3973 H         1 UNK         0.0786 
    122 H122       35.8115  -49.9485  -52.0724 H         1 UNK         0.3032 
    123 H123       36.3966  -47.8307  -52.2731 H         1 UNK         0.1094 
    124 H124       35.2604  -47.2177  -55.0588 H         1 UNK         0.0794 
    125 H125       36.8987  -46.8705  -54.5032 H         1 UNK         0.0794 
    126 H126       36.3650  -48.5322  -54.6903 H         1 UNK         0.0794 
    127 H127       35.2466  -45.4894  -53.2569 H         1 UNK         0.3016 
@<TRIPOS>BOND
     1    1    2 1    
     2    1   67 1    
     3    1   68 1    
     4    1   69 1    
     5    2    3 2    
     6    2    4 am   BACKBONE|DICT|INTERRES
     7    4    5 1    
     8    4   70 1    
     9    5    6 1    
    10    5   65 1    
    11    5   71 1    
    12    6    7 1    
    13    6   72 1    
    14    6   73 1    
    15    7    8 1    
    16    8    9 1    
    17    8   74 1    
    18    8   75 1    
    19    9   10 ar   
    20    9   14 ar   
    21   10   11 ar   
    22   10   76 1    
    23   11   12 ar   
    24   11   48 1    
    25   12   13 ar   
    26   12   77 1    
    27   13   14 ar   
    28   13   15 1    
    29   14   78 1    
    30   15   16 1    
    31   15   79 1    
    32   15   80 1    
    33   16   17 1    
    34   17   18 1    
    35   17   81 1    
    36   17   82 1    
    37   18   19 1    
    38   18   22 1    
    39   18   83 1    
    40   19   20 am   BACKBONE|DICT|INTERRES
    41   19   21 2    
    42   20   84 1    
    43   20   85 1    
    44   22   23 am   BACKBONE|DICT|INTERRES
    45   22   86 1    
    46   23   24 2    
    47   23   25 1    
    48   25   26 1    
    49   25   27 1    
    50   25   87 1    
    51   26   88 1    
    52   26   89 1    
    53   26   90 1    
    54   27   28 am   BACKBONE|DICT|INTERRES
    55   27   91 1    
    56   28   29 2    
    57   28   30 1    
    58   30   31 1    
    59   30   32 1    
    60   30   92 1    
    61   31   93 1    
    62   31   94 1    
    63   31   95 1    
    64   32   33 am   BACKBONE|DICT|INTERRES
    65   32   96 1    
    66   33   34 2    
    67   33   35 1    
    68   35   36 1    
    69   35   37 1    
    70   35   97 1    
    71   36   98 1    
    72   36   99 1    
    73   36  100 1    
    74   37   38 am   BACKBONE|DICT|INTERRES
    75   37  101 1    
    76   38   39 2    
    77   38   40 1    
    78   40   41 1    
    79   40   42 1    
    80   40  102 1    
    81   41  103 1    
    82   41  104 1    
    83   41  105 1    
    84   42   43 am   BACKBONE|DICT|INTERRES
    85   42  106 1    
    86   43   44 2    
    87   43   45 1    
    88   45   46 1    
    89   45   49 1    
    90   45  107 1    
    91   46   47 1    
    92   46  108 1    
    93   46  109 1    
    94   47   48 1    
    95   48  110 1    
    96   48  111 1    
    97   49   50 am   BACKBONE|DICT|INTERRES
    98   49  112 1    
    99   50   51 2    
   100   50   52 1    
   101   52   53 1    
   102   52   54 1    
   103   52  113 1    
   104   53  114 1    
   105   53  115 1    
   106   53  116 1    
   107   54   55 am   BACKBONE|DICT|INTERRES
   108   54  117 1    
   109   55   56 2    
   110   55   57 1    
   111   57   58 1    
   112   57   59 1    
   113   57  118 1    
   114   58  119 1    
   115   58  120 1    
   116   58  121 1    
   117   59   60 am   BACKBONE|DICT|INTERRES
   118   59  122 1    
   119   60   61 2    
   120   60   62 1    
   121   62   63 1    
   122   62   64 1    
   123   62  123 1    
   124   63  124 1    
   125   63  125 1    
   126   63  126 1    
   127   64   65 am   BACKBONE|DICT|INTERRES
   128   64  127 1    
   129   65   66 2    
@<TRIPOS>SUBSTRUCTURE
     1 UNK         1 GROUP             0       ****    0 ROOT    
