@<TRIPOS>MOLECULE
3R134
127   129    1
SMALL
USER_CHARGES


@<TRIPOS>ATOM
      1 CA         30.3869  -49.8179  -50.4253 C.3       0 UNK        -0.1968 
      2 C          30.9667  -48.5264  -49.8659 C.2       0 UNK         0.4852 
      3 O          30.5598  -48.0947  -48.7860 O.2       0 UNK        -0.5359 
      4 N          31.9091  -47.9174  -50.5929 N.am      1 UNK        -0.4300 
      5 CA         32.6640  -46.7291  -50.1891 C.3       1 UNK         0.0863 
      6 C6         32.4331  -45.5271  -51.1512 C.3       11 UNK        -0.0953 
      7 S7         32.7281  -45.8769  -52.9216 S.3       11 UNK        -0.2369 
      8 C8         32.4775  -44.2254  -53.6431 C.3       11 UNK         0.0226 
      9 C9         31.8533  -44.3273  -55.0259 C.ar      11 UNK        -0.0699 
     10 C10        32.6133  -44.7770  -56.1082 C.ar      11 UNK        -0.0804 
     11 C11        32.0319  -44.9257  -57.3711 C.ar      11 UNK        -0.0871 
     12 C12        30.6860  -44.5946  -57.5518 C.ar      11 UNK        -0.1008 
     13 C13        29.9199  -44.1176  -56.4826 C.ar      11 UNK        -0.0735 
     14 C14        30.5110  -43.9895  -55.2212 C.ar      11 UNK        -0.0945 
     15 C15        28.4452  -43.7829  -56.6681 C.3       11 UNK         0.0169 
     16 S16        28.1607  -42.6385  -58.0613 S.3       11 UNK        -0.2669 
     17 C17        26.7391  -41.6479  -57.4743 C.3       11 UNK        -0.0850 
     18 CA         25.3494  -42.2063  -57.8797 C.3       10 UNK         0.0855 
     19 C          25.0660  -42.0881  -59.4078 C.2       10 UNK         0.5543 
     20 N          24.7191  -43.1579  -60.1148 N.am      10 UNK        -0.7343 
     21 O          25.1441  -40.9934  -59.9604 O.2       10 UNK        -0.5027 
     22 N          25.1317  -43.5434  -57.3139 N.am      10 UNK        -0.4495 
     23 C          23.9431  -44.0636  -56.9907 C.2       10 UNK         0.4903 
     24 O          22.8829  -43.4385  -57.0475 O.2       10 UNK        -0.4860 
     25 CA         23.9527  -45.5341  -56.5269 C.3       9 UNK         0.0227 
     26 CB         22.5671  -46.2034  -56.6446 C.3       9 UNK        -0.1964 
     27 N          24.9762  -46.3589  -57.1860 N.am      9 UNK        -0.4231 
     28 C          25.1110  -46.5855  -58.5052 C.2       9 UNK         0.5014 
     29 O          24.4243  -46.0313  -59.3647 O.2       9 UNK        -0.5270 
     30 CA         26.2008  -47.5778  -58.9618 C.3       8 UNK         0.0284 
     31 CB         27.3792  -46.8164  -59.5924 C.3       8 UNK        -0.1977 
     32 N          26.7016  -48.4449  -57.8905 N.am      8 UNK        -0.4342 
     33 C          25.9743  -49.3788  -57.2549 C.2       8 UNK         0.5039 
     34 O          24.8440  -49.7132  -57.6118 O.2       8 UNK        -0.5547 
     35 CA         26.5709  -50.0245  -55.9860 C.3       7 UNK         0.0281 
     36 CB         27.0177  -51.4657  -56.2790 C.3       7 UNK        -0.1963 
     37 N          27.6893  -49.2842  -55.3900 N.am      7 UNK        -0.4444 
     38 C          27.6440  -48.0143  -54.9537 C.2       7 UNK         0.5104 
     39 O          26.6114  -47.3431  -54.9239 O.2       7 UNK        -0.5100 
     40 CA         28.9774  -47.3483  -54.5561 C.3       6 UNK         0.0396 
     41 CB         29.1426  -47.3863  -53.0311 C.3       6 UNK        -0.1801 
     42 N          30.1718  -47.9231  -55.1921 N.am      6 UNK        -0.4747 
     43 C          30.3455  -48.1179  -56.5112 C.2       6 UNK         0.5012 
     44 O          29.5228  -47.7641  -57.3569 O.2       6 UNK        -0.5003 
     45 CA         31.5721  -48.9517  -56.9583 C.3       5 UNK         0.0782 
     46 C46        32.7531  -48.0802  -57.4557 C.3       11 UNK        -0.0868 
     47 S47        32.4018  -47.1609  -58.9942 S.3       11 UNK        -0.2515 
     48 C48        32.8553  -45.4546  -58.5373 C.3       11 UNK         0.0199 
     49 N          32.0490  -49.9000  -55.9433 N.am      5 UNK        -0.4607 
     50 C          31.3408  -50.8322  -55.2890 C.2       4 UNK         0.5031 
     51 O          30.1388  -51.0246  -55.4701 O.2       4 UNK        -0.5119 
     52 CA         32.0900  -51.6821  -54.2406 C.3       4 UNK         0.0263 
     53 CB         32.1066  -53.1614  -54.6601 C.3       4 UNK        -0.1967 
     54 N          33.4690  -51.2429  -53.9836 N.am      4 UNK        -0.4237 
     55 C          33.8129  -50.1088  -53.3592 C.2       3 UNK         0.4908 
     56 O          32.9950  -49.3192  -52.8747 O.2       3 UNK        -0.5102 
     57 CA         35.3132  -49.7829  -53.3256 C.3       3 UNK         0.0241 
     58 CB         35.8708  -49.5386  -54.7413 C.3       3 UNK        -0.1971 
     59 N          35.5012  -48.5816  -52.5251 N.am      3 UNK        -0.4139 
     60 C          36.5527  -48.2830  -51.7540 C.2       2 UNK         0.5016 
     61 O          37.5718  -48.9710  -51.6840 O.2       2 UNK        -0.5319 
     62 CA         36.4442  -46.9969  -50.9081 C.3       2 UNK         0.0286 
     63 CB         37.2749  -45.8664  -51.5369 C.3       2 UNK        -0.1963 
     64 N          35.0581  -46.5400  -50.7533 N.am      2 UNK        -0.4790 
     65 C          34.1323  -47.1625  -50.0108 C.2       1 UNK         0.5024 
     66 O          34.4005  -48.0824  -49.2351 O.2       1 UNK        -0.4888 
     67 H67        29.3018  -49.7461  -50.4924 H         1 UNK         0.0892 
     68 H68        30.6332  -50.6528  -49.7700 H         1 UNK         0.0892 
     69 H69        30.7747  -50.0419  -51.4186 H         1 UNK         0.0892 
     70 H70        32.2303  -48.3552  -51.4548 H         1 UNK         0.3107 
     71 H71        32.3439  -46.4041  -49.1971 H         1 UNK         0.0773 
     72 H72        33.0333  -44.6676  -50.8467 H         1 UNK         0.0680 
     73 H73        31.3959  -45.2021  -51.0556 H         1 UNK         0.0680 
     74 H74        31.8432  -43.6265  -52.9878 H         1 UNK         0.0650 
     75 H75        33.4361  -43.7083  -53.7029 H         1 UNK         0.0650 
     76 H76        33.6516  -45.0385  -55.9557 H         1 UNK         0.1397 
     77 H77        30.2302  -44.7226  -58.5242 H         1 UNK         0.1363 
     78 H78        29.9208  -43.6443  -54.3834 H         1 UNK         0.1355 
     79 H79        28.0416  -43.3541  -55.7500 H         1 UNK         0.0707 
     80 H80        27.8960  -44.7087  -56.8429 H         1 UNK         0.0707 
     81 H81        26.8586  -40.6323  -57.8563 H         1 UNK         0.1034 
     82 H82        26.7908  -41.5432  -56.3898 H         1 UNK         0.1034 
     83 H83        24.6162  -41.5433  -57.4163 H         1 UNK         0.0482 
     84 H84        24.6274  -44.0714  -59.6834 H         1 UNK         0.3460 
     85 H85        24.5340  -43.0533  -61.0994 H         1 UNK         0.3460 
     86 H86        25.9432  -44.1398  -57.2752 H         1 UNK         0.2989 
     87 H87        24.2195  -45.5144  -55.4694 H         1 UNK         0.0559 
     88 H88        22.5944  -47.2352  -56.2937 H         1 UNK         0.0848 
     89 H89        22.2083  -46.2095  -57.6744 H         1 UNK         0.0848 
     90 H90        21.8238  -45.6780  -56.0438 H         1 UNK         0.0848 
     91 H91        25.6096  -46.8365  -56.5498 H         1 UNK         0.3144 
     92 H92        25.7565  -48.2164  -59.7279 H         1 UNK         0.0727 
     93 H93        28.1352  -47.5015  -59.9768 H         1 UNK         0.0790 
     94 H94        27.8649  -46.1550  -58.8741 H         1 UNK         0.0790 
     95 H95        27.0460  -46.1996  -60.4282 H         1 UNK         0.0790 
     96 H96        27.6466  -48.2531  -57.5651 H         1 UNK         0.3215 
     97 H97        25.7730  -50.0580  -55.2414 H         1 UNK         0.0863 
     98 H98        27.3663  -51.9657  -55.3751 H         1 UNK         0.0808 
     99 H99        27.8266  -51.4942  -57.0102 H         1 UNK         0.0808 
    100 H100       26.1940  -52.0583  -56.6793 H         1 UNK         0.0808 
    101 H101       28.5869  -49.7615  -55.3869 H         1 UNK         0.3118 
    102 H102       28.9161  -46.3056  -54.8674 H         1 UNK         0.0546 
    103 H103       28.2716  -46.9607  -52.5307 H         1 UNK         0.0828 
    104 H104       30.0071  -46.8096  -52.7081 H         1 UNK         0.0828 
    105 H105       29.2600  -48.4074  -52.6705 H         1 UNK         0.0828 
    106 H106       30.8993  -48.2489  -54.5711 H         1 UNK         0.3005 
    107 H107       31.2284  -49.5600  -57.7979 H         1 UNK         0.1257 
    108 H108       33.6119  -48.7173  -57.6733 H         1 UNK         0.0775 
    109 H109       33.0868  -47.4073  -56.6660 H         1 UNK         0.0775 
    110 H110       33.9215  -45.4182  -58.3077 H         1 UNK         0.0840 
    111 H111       32.7093  -44.8071  -59.4031 H         1 UNK         0.0840 
    112 H112       33.0265  -49.8277  -55.7085 H         1 UNK         0.2987 
    113 H113       31.5295  -51.5996  -53.3072 H         1 UNK         0.0785 
    114 H114       32.6567  -53.3118  -55.5899 H         1 UNK         0.0798 
    115 H115       31.0938  -53.5357  -54.8173 H         1 UNK         0.0798 
    116 H116       32.5633  -53.7870  -53.8929 H         1 UNK         0.0798 
    117 H117       34.2013  -51.8358  -54.3489 H         1 UNK         0.3079 
    118 H118       35.8333  -50.6217  -52.8579 H         1 UNK         0.0794 
    119 H119       35.3507  -48.7220  -55.2441 H         1 UNK         0.0786 
    120 H120       35.7792  -50.4256  -55.3690 H         1 UNK         0.0786 
    121 H121       36.9302  -49.2830  -54.7070 H         1 UNK         0.0786 
    122 H122       34.6829  -47.9879  -52.4794 H         1 UNK         0.3032 
    123 H123       36.8517  -47.2201  -49.9193 H         1 UNK         0.1094 
    124 H124       36.9097  -45.6003  -52.5297 H         1 UNK         0.0794 
    125 H125       37.2557  -44.9686  -50.9188 H         1 UNK         0.0794 
    126 H126       38.3196  -46.1627  -51.6425 H         1 UNK         0.0794 
    127 H127       34.7494  -45.8038  -51.3744 H         1 UNK         0.3016 
@<TRIPOS>BOND
     1    1    2 1    
     2    1   67 1    
     3    1   68 1    
     4    1   69 1    
     5    2    3 2    
     6    2    4 am   BACKBONE|DICT|INTERRES
     7    4    5 1    
     8    4   70 1    
     9    5    6 1    
    10    5   65 1    
    11    5   71 1    
    12    6    7 1    
    13    6   72 1    
    14    6   73 1    
    15    7    8 1    
    16    8    9 1    
    17    8   74 1    
    18    8   75 1    
    19    9   10 ar   
    20    9   14 ar   
    21   10   11 ar   
    22   10   76 1    
    23   11   12 ar   
    24   11   48 1    
    25   12   13 ar   
    26   12   77 1    
    27   13   14 ar   
    28   13   15 1    
    29   14   78 1    
    30   15   16 1    
    31   15   79 1    
    32   15   80 1    
    33   16   17 1    
    34   17   18 1    
    35   17   81 1    
    36   17   82 1    
    37   18   19 1    
    38   18   22 1    
    39   18   83 1    
    40   19   20 am   BACKBONE|DICT|INTERRES
    41   19   21 2    
    42   20   84 1    
    43   20   85 1    
    44   22   23 am   BACKBONE|DICT|INTERRES
    45   22   86 1    
    46   23   24 2    
    47   23   25 1    
    48   25   26 1    
    49   25   27 1    
    50   25   87 1    
    51   26   88 1    
    52   26   89 1    
    53   26   90 1    
    54   27   28 am   BACKBONE|DICT|INTERRES
    55   27   91 1    
    56   28   29 2    
    57   28   30 1    
    58   30   31 1    
    59   30   32 1    
    60   30   92 1    
    61   31   93 1    
    62   31   94 1    
    63   31   95 1    
    64   32   33 am   BACKBONE|DICT|INTERRES
    65   32   96 1    
    66   33   34 2    
    67   33   35 1    
    68   35   36 1    
    69   35   37 1    
    70   35   97 1    
    71   36   98 1    
    72   36   99 1    
    73   36  100 1    
    74   37   38 am   BACKBONE|DICT|INTERRES
    75   37  101 1    
    76   38   39 2    
    77   38   40 1    
    78   40   41 1    
    79   40   42 1    
    80   40  102 1    
    81   41  103 1    
    82   41  104 1    
    83   41  105 1    
    84   42   43 am   BACKBONE|DICT|INTERRES
    85   42  106 1    
    86   43   44 2    
    87   43   45 1    
    88   45   46 1    
    89   45   49 1    
    90   45  107 1    
    91   46   47 1    
    92   46  108 1    
    93   46  109 1    
    94   47   48 1    
    95   48  110 1    
    96   48  111 1    
    97   49   50 am   BACKBONE|DICT|INTERRES
    98   49  112 1    
    99   50   51 2    
   100   50   52 1    
   101   52   53 1    
   102   52   54 1    
   103   52  113 1    
   104   53  114 1    
   105   53  115 1    
   106   53  116 1    
   107   54   55 am   BACKBONE|DICT|INTERRES
   108   54  117 1    
   109   55   56 2    
   110   55   57 1    
   111   57   58 1    
   112   57   59 1    
   113   57  118 1    
   114   58  119 1    
   115   58  120 1    
   116   58  121 1    
   117   59   60 am   BACKBONE|DICT|INTERRES
   118   59  122 1    
   119   60   61 2    
   120   60   62 1    
   121   62   63 1    
   122   62   64 1    
   123   62  123 1    
   124   63  124 1    
   125   63  125 1    
   126   63  126 1    
   127   64   65 am   BACKBONE|DICT|INTERRES
   128   64  127 1    
   129   65   66 2    
@<TRIPOS>SUBSTRUCTURE
     1 UNK         1 GROUP             0       ****    0 ROOT    
