@<TRIPOS>MOLECULE
3R134
127   129    1
SMALL
USER_CHARGES


@<TRIPOS>ATOM
      1 CA         32.7327  -41.7417  -53.3761 C.3       0 UNK        -0.1968 
      2 C          34.0335  -42.5284  -53.3426 C.2       0 UNK         0.4852 
      3 O          34.9270  -42.1985  -52.5619 O.2       0 UNK        -0.5359 
      4 N          34.1486  -43.5634  -54.1872 N.am      1 UNK        -0.4300 
      5 CA         35.3394  -44.4160  -54.3052 C.3       1 UNK         0.0863 
      6 C6         35.4336  -45.0663  -55.7158 C.3       11 UNK        -0.0953 
      7 S7         34.6197  -46.6869  -55.9241 S.3       11 UNK        -0.2369 
      8 C8         33.0518  -46.2871  -56.7636 C.3       11 UNK         0.0226 
      9 C9         32.0783  -45.4847  -55.9061 C.ar      11 UNK        -0.0699 
     10 C10        31.7724  -45.8771  -54.5981 C.ar      11 UNK        -0.0804 
     11 C11        30.8809  -45.1331  -53.8146 C.ar      11 UNK        -0.0871 
     12 C12        30.2746  -44.0008  -54.3661 C.ar      11 UNK        -0.1008 
     13 C13        30.5447  -43.6166  -55.6819 C.ar      11 UNK        -0.0735 
     14 C14        31.4533  -44.3565  -56.4424 C.ar      11 UNK        -0.0945 
     15 C15        29.8718  -42.3932  -56.2843 C.3       11 UNK         0.0169 
     16 S16        28.3085  -42.8305  -57.1083 S.3       11 UNK        -0.2669 
     17 C17        27.1132  -42.7874  -55.7256 C.3       11 UNK        -0.0850 
     18 CA         26.7340  -44.1912  -55.1673 C.3       10 UNK         0.0855 
     19 C          25.8107  -44.1131  -53.9153 C.2       10 UNK         0.5543 
     20 N          24.9181  -45.0709  -53.6945 N.am      10 UNK        -0.7343 
     21 O          25.9236  -43.1902  -53.1124 O.2       10 UNK        -0.5027 
     22 N          26.2790  -45.1490  -56.1873 N.am      10 UNK        -0.4495 
     23 C          25.2588  -45.0124  -57.0441 C.2       10 UNK         0.4903 
     24 O          24.5529  -44.0062  -57.1263 O.2       10 UNK        -0.4860 
     25 CA         24.9621  -46.2351  -57.9368 C.3       9 UNK         0.0227 
     26 CB         24.1816  -45.8798  -59.2203 C.3       9 UNK        -0.1964 
     27 N          26.1639  -47.0274  -58.2290 N.am      9 UNK        -0.4231 
     28 C          27.2248  -46.6801  -58.9749 C.2       9 UNK         0.5014 
     29 O          27.2964  -45.6457  -59.6390 O.2       9 UNK        -0.5270 
     30 CA         28.4293  -47.6440  -58.9698 C.3       8 UNK         0.0284 
     31 CB         29.5598  -47.0741  -58.0973 C.3       8 UNK        -0.1977 
     32 N          28.1058  -48.9966  -58.5036 N.am      8 UNK        -0.4342 
     33 C          27.3560  -49.8814  -59.1766 C.2       8 UNK         0.5039 
     34 O          26.9052  -49.6827  -60.3051 O.2       8 UNK        -0.5547 
     35 CA         27.0235  -51.1944  -58.4514 C.3       7 UNK         0.0281 
     36 CB         28.1396  -52.2312  -58.6576 C.3       7 UNK        -0.1963 
     37 N          26.8026  -50.9760  -57.0191 N.am      7 UNK        -0.4444 
     38 C          25.6680  -50.4859  -56.4986 C.2       7 UNK         0.5104 
     39 O          24.6701  -50.2161  -57.1665 O.2       7 UNK        -0.5100 
     40 CA         25.6444  -50.2276  -54.9808 C.3       6 UNK         0.0396 
     41 CB         25.1788  -51.4843  -54.2291 C.3       6 UNK        -0.1801 
     42 N          26.9357  -49.7891  -54.4451 N.am      6 UNK        -0.4747 
     43 C          27.5215  -48.6178  -54.7344 C.2       6 UNK         0.5012 
     44 O          27.0183  -47.7673  -55.4664 O.2       6 UNK        -0.5003 
     45 CA         28.9256  -48.3732  -54.1498 C.3       5 UNK         0.0782 
     46 C46        28.8215  -47.6580  -52.7822 C.3       11 UNK        -0.0868 
     47 S47        30.4531  -47.2895  -52.0516 S.3       11 UNK        -0.2515 
     48 C48        30.5973  -45.4978  -52.3590 C.3       11 UNK         0.0199 
     49 N          29.7462  -49.5895  -54.0846 N.am      5 UNK        -0.4607 
     50 C          30.0779  -50.3606  -55.1295 C.2       4 UNK         0.5031 
     51 O          29.6070  -50.2093  -56.2593 O.2       4 UNK        -0.5119 
     52 CA         31.1050  -51.4822  -54.8581 C.3       4 UNK         0.0263 
     53 CB         31.7200  -52.0394  -56.1593 C.3       4 UNK        -0.1967 
     54 N          32.1713  -51.0992  -53.9158 N.am      4 UNK        -0.4237 
     55 C          32.9862  -50.0386  -54.0247 C.2       3 UNK         0.4908 
     56 O          32.9226  -49.2140  -54.9344 O.2       3 UNK        -0.5102 
     57 CA         34.0606  -49.8689  -52.9469 C.3       3 UNK         0.0241 
     58 CB         35.4258  -50.3746  -53.4443 C.3       3 UNK        -0.1971 
     59 N          34.1511  -48.4515  -52.6024 N.am      3 UNK        -0.4139 
     60 C          34.4406  -47.9769  -51.3852 C.2       2 UNK         0.5016 
     61 O          34.7669  -48.6991  -50.4409 O.2       2 UNK        -0.5319 
     62 CA         34.3008  -46.4573  -51.1564 C.3       2 UNK         0.0286 
     63 CB         35.2350  -45.9313  -50.0447 C.3       2 UNK        -0.1963 
     64 N          34.4078  -45.6323  -52.3683 N.am      2 UNK        -0.4790 
     65 C          35.4942  -45.4148  -53.1285 C.2       1 UNK         0.5024 
     66 O          36.5858  -45.9512  -52.9352 O.2       1 UNK        -0.4888 
     67 H67        32.0171  -42.1630  -52.6707 H         1 UNK         0.0892 
     68 H68        32.9096  -40.7019  -53.1022 H         1 UNK         0.0892 
     69 H69        32.2896  -41.7508  -54.3710 H         1 UNK         0.0892 
     70 H70        33.3756  -43.8048  -54.7943 H         1 UNK         0.3107 
     71 H71        36.2004  -43.7480  -54.2263 H         1 UNK         0.0773 
     72 H72        36.4869  -45.2296  -55.9494 H         1 UNK         0.0680 
     73 H73        35.0782  -44.3784  -56.4849 H         1 UNK         0.0680 
     74 H74        32.5696  -47.2250  -57.0410 H         1 UNK         0.0650 
     75 H75        33.2760  -45.7670  -57.6960 H         1 UNK         0.0650 
     76 H76        32.2404  -46.7612  -54.1912 H         1 UNK         0.1397 
     77 H77        29.5889  -43.4127  -53.7712 H         1 UNK         0.1363 
     78 H78        31.6638  -44.0567  -57.4602 H         1 UNK         0.1355 
     79 H79        29.7041  -41.6297  -55.5234 H         1 UNK         0.0707 
     80 H80        30.5344  -41.9374  -57.0216 H         1 UNK         0.0707 
     81 H81        27.5193  -42.1610  -54.9301 H         1 UNK         0.1034 
     82 H82        26.2190  -42.2670  -56.0711 H         1 UNK         0.1034 
     83 H83        27.6506  -44.6371  -54.7845 H         1 UNK         0.0482 
     84 H84        24.3295  -45.0209  -52.8782 H         1 UNK         0.3460 
     85 H85        24.8335  -45.8434  -54.3353 H         1 UNK         0.3460 
     86 H86        26.7279  -46.0597  -56.1412 H         1 UNK         0.2989 
     87 H87        24.3228  -46.8880  -57.3410 H         1 UNK         0.0559 
     88 H88        24.7132  -45.1496  -59.8309 H         1 UNK         0.0848 
     89 H89        23.2094  -45.4492  -58.9780 H         1 UNK         0.0848 
     90 H90        24.0005  -46.7632  -59.8325 H         1 UNK         0.0848 
     91 H91        26.2507  -47.8823  -57.6954 H         1 UNK         0.3144 
     92 H92        28.7937  -47.7207  -59.9962 H         1 UNK         0.0727 
     93 H93        29.2346  -46.9099  -57.0701 H         1 UNK         0.0790 
     94 H94        29.9010  -46.1120  -58.4819 H         1 UNK         0.0790 
     95 H95        30.4216  -47.7410  -58.0755 H         1 UNK         0.0790 
     96 H96        28.5040  -49.2856  -57.6139 H         1 UNK         0.3215 
     97 H97        26.1065  -51.5959  -58.8891 H         1 UNK         0.0863 
     98 H98        27.9097  -53.1697  -58.1531 H         1 UNK         0.0808 
     99 H99        29.1002  -51.8749  -58.2858 H         1 UNK         0.0808 
    100 H100       28.2673  -52.4558  -59.7174 H         1 UNK         0.0808 
    101 H101       27.6032  -51.0989  -56.4124 H         1 UNK         0.3118 
    102 H102       24.9187  -49.4330  -54.7938 H         1 UNK         0.0546 
    103 H103       25.8750  -52.3143  -54.3556 H         1 UNK         0.0828 
    104 H104       24.2057  -51.8176  -54.5928 H         1 UNK         0.0828 
    105 H105       25.0740  -51.2925  -53.1611 H         1 UNK         0.0828 
    106 H106       27.4256  -50.4318  -53.8390 H         1 UNK         0.3005 
    107 H107       29.4340  -47.6963  -54.8393 H         1 UNK         0.1257 
    108 H108       28.2719  -48.2758  -52.0694 H         1 UNK         0.0775 
    109 H109       28.2523  -46.7309  -52.8780 H         1 UNK         0.0775 
    110 H110       29.6868  -45.0089  -52.0082 H         1 UNK         0.0840 
    111 H111       31.4033  -45.1010  -51.7422 H         1 UNK         0.0840 
    112 H112       30.1897  -49.7696  -53.1959 H         1 UNK         0.2987 
    113 H113       30.5485  -52.2914  -54.3832 H         1 UNK         0.0785 
    114 H114       30.9520  -52.4620  -56.8074 H         1 UNK         0.0798 
    115 H115       32.4378  -52.8329  -55.9522 H         1 UNK         0.0798 
    116 H116       32.2336  -51.2617  -56.7261 H         1 UNK         0.0798 
    117 H117       32.2953  -51.7176  -53.1255 H         1 UNK         0.3079 
    118 H118       33.7627  -50.4424  -52.0663 H         1 UNK         0.0794 
    119 H119       35.3763  -51.4279  -53.7227 H         1 UNK         0.0786 
    120 H120       36.1894  -50.2771  -52.6723 H         1 UNK         0.0786 
    121 H121       35.7631  -49.8183  -54.3203 H         1 UNK         0.0786 
    122 H122       33.8941  -47.8152  -53.3458 H         1 UNK         0.3032 
    123 H123       33.2799  -46.3244  -50.7961 H         1 UNK         0.1094 
    124 H124       35.1037  -44.8604  -49.8892 H         1 UNK         0.0794 
    125 H125       35.0275  -46.4217  -49.0928 H         1 UNK         0.0794 
    126 H126       36.2848  -46.1111  -50.2778 H         1 UNK         0.0794 
    127 H127       33.5695  -45.1360  -52.6334 H         1 UNK         0.3016 
@<TRIPOS>BOND
     1    1    2 1    
     2    1   67 1    
     3    1   68 1    
     4    1   69 1    
     5    2    3 2    
     6    2    4 am   BACKBONE|DICT|INTERRES
     7    4    5 1    
     8    4   70 1    
     9    5    6 1    
    10    5   65 1    
    11    5   71 1    
    12    6    7 1    
    13    6   72 1    
    14    6   73 1    
    15    7    8 1    
    16    8    9 1    
    17    8   74 1    
    18    8   75 1    
    19    9   10 ar   
    20    9   14 ar   
    21   10   11 ar   
    22   10   76 1    
    23   11   12 ar   
    24   11   48 1    
    25   12   13 ar   
    26   12   77 1    
    27   13   14 ar   
    28   13   15 1    
    29   14   78 1    
    30   15   16 1    
    31   15   79 1    
    32   15   80 1    
    33   16   17 1    
    34   17   18 1    
    35   17   81 1    
    36   17   82 1    
    37   18   19 1    
    38   18   22 1    
    39   18   83 1    
    40   19   20 am   BACKBONE|DICT|INTERRES
    41   19   21 2    
    42   20   84 1    
    43   20   85 1    
    44   22   23 am   BACKBONE|DICT|INTERRES
    45   22   86 1    
    46   23   24 2    
    47   23   25 1    
    48   25   26 1    
    49   25   27 1    
    50   25   87 1    
    51   26   88 1    
    52   26   89 1    
    53   26   90 1    
    54   27   28 am   BACKBONE|DICT|INTERRES
    55   27   91 1    
    56   28   29 2    
    57   28   30 1    
    58   30   31 1    
    59   30   32 1    
    60   30   92 1    
    61   31   93 1    
    62   31   94 1    
    63   31   95 1    
    64   32   33 am   BACKBONE|DICT|INTERRES
    65   32   96 1    
    66   33   34 2    
    67   33   35 1    
    68   35   36 1    
    69   35   37 1    
    70   35   97 1    
    71   36   98 1    
    72   36   99 1    
    73   36  100 1    
    74   37   38 am   BACKBONE|DICT|INTERRES
    75   37  101 1    
    76   38   39 2    
    77   38   40 1    
    78   40   41 1    
    79   40   42 1    
    80   40  102 1    
    81   41  103 1    
    82   41  104 1    
    83   41  105 1    
    84   42   43 am   BACKBONE|DICT|INTERRES
    85   42  106 1    
    86   43   44 2    
    87   43   45 1    
    88   45   46 1    
    89   45   49 1    
    90   45  107 1    
    91   46   47 1    
    92   46  108 1    
    93   46  109 1    
    94   47   48 1    
    95   48  110 1    
    96   48  111 1    
    97   49   50 am   BACKBONE|DICT|INTERRES
    98   49  112 1    
    99   50   51 2    
   100   50   52 1    
   101   52   53 1    
   102   52   54 1    
   103   52  113 1    
   104   53  114 1    
   105   53  115 1    
   106   53  116 1    
   107   54   55 am   BACKBONE|DICT|INTERRES
   108   54  117 1    
   109   55   56 2    
   110   55   57 1    
   111   57   58 1    
   112   57   59 1    
   113   57  118 1    
   114   58  119 1    
   115   58  120 1    
   116   58  121 1    
   117   59   60 am   BACKBONE|DICT|INTERRES
   118   59  122 1    
   119   60   61 2    
   120   60   62 1    
   121   62   63 1    
   122   62   64 1    
   123   62  123 1    
   124   63  124 1    
   125   63  125 1    
   126   63  126 1    
   127   64   65 am   BACKBONE|DICT|INTERRES
   128   64  127 1    
   129   65   66 2    
@<TRIPOS>SUBSTRUCTURE
     1 UNK         1 GROUP             0       ****    0 ROOT    
