@<TRIPOS>MOLECULE
3R134
127   129    1
SMALL
USER_CHARGES


@<TRIPOS>ATOM
      1 CA         36.5702  -47.0472  -56.6693 C.3       0 UNK        -0.1968 
      2 C          35.3550  -47.0400  -55.7558 C.2       0 UNK         0.4852 
      3 O          34.6323  -48.0358  -55.6954 O.2       0 UNK        -0.5359 
      4 N          35.1339  -45.9352  -55.0287 N.am      1 UNK        -0.4300 
      5 CA         33.9848  -45.6770  -54.1430 C.3       1 UNK         0.0863 
      6 C6         33.9863  -44.2172  -53.6273 C.3       11 UNK        -0.0953 
      7 S7         33.7685  -43.0220  -54.9917 S.3       11 UNK        -0.2369 
      8 C8         32.6563  -41.7752  -54.2611 C.3       11 UNK         0.0226 
      9 C9         31.2379  -42.2939  -54.0592 C.ar      11 UNK        -0.0699 
     10 C10        30.8134  -42.6987  -52.7921 C.ar      11 UNK        -0.0804 
     11 C11        29.5151  -43.1730  -52.5929 C.ar      11 UNK        -0.0871 
     12 C12        28.6300  -43.2188  -53.6752 C.ar      11 UNK        -0.1008 
     13 C13        29.0348  -42.8249  -54.9557 C.ar      11 UNK        -0.0735 
     14 C14        30.3451  -42.3534  -55.1339 C.ar      11 UNK        -0.0945 
     15 C15        28.0226  -42.9638  -56.0990 C.3       11 UNK         0.0169 
     16 S16        28.5340  -42.3021  -57.7241 S.3       11 UNK        -0.2669 
     17 C17        29.6993  -43.5873  -58.2984 C.3       11 UNK        -0.0850 
     18 CA         29.2882  -44.1951  -59.6706 C.3       10 UNK         0.0855 
     19 C          30.4327  -45.0290  -60.3263 C.2       10 UNK         0.5543 
     20 N          30.1446  -46.1228  -61.0208 N.am      10 UNK        -0.7343 
     21 O          31.6004  -44.6577  -60.2407 O.2       10 UNK        -0.5027 
     22 N          27.9662  -44.8516  -59.6472 N.am      10 UNK        -0.4495 
     23 C          27.6268  -45.9497  -58.9592 C.2       10 UNK         0.4903 
     24 O          28.3899  -46.5816  -58.2266 O.2       10 UNK        -0.4860 
     25 CA         26.1963  -46.4604  -59.1992 C.3       9 UNK         0.0227 
     26 CB         26.1457  -47.3339  -60.4637 C.3       9 UNK        -0.1964 
     27 N          25.6936  -47.2425  -58.0714 N.am      9 UNK        -0.4231 
     28 C          25.3393  -46.7521  -56.8798 C.2       9 UNK         0.5014 
     29 O          25.3428  -45.5515  -56.6045 O.2       9 UNK        -0.5270 
     30 CA         24.8913  -47.7648  -55.8105 C.3       8 UNK         0.0284 
     31 CB         23.4218  -48.1822  -56.0166 C.3       8 UNK        -0.1977 
     32 N          25.7715  -48.9342  -55.6571 N.am      8 UNK        -0.4342 
     33 C          26.0144  -49.9383  -56.5154 C.2       8 UNK         0.5039 
     34 O          25.5032  -50.0066  -57.6344 O.2       8 UNK        -0.5547 
     35 CA         27.0147  -51.0375  -56.0936 C.3       7 UNK         0.0281 
     36 CB         28.1607  -51.1445  -57.1148 C.3       7 UNK        -0.1963 
     37 N          27.5952  -50.8407  -54.7625 N.am      7 UNK        -0.4444 
     38 C          26.9755  -51.0809  -53.5982 C.2       7 UNK         0.5104 
     39 O          25.8568  -51.5853  -53.5066 O.2       7 UNK        -0.5100 
     40 CA         27.7073  -50.6119  -52.3257 C.3       6 UNK         0.0396 
     41 CB         28.6902  -51.6884  -51.8391 C.3       6 UNK        -0.1801 
     42 N          28.4263  -49.3471  -52.5228 N.am      6 UNK        -0.4747 
     43 C          27.8488  -48.1775  -52.8500 C.2       6 UNK         0.5012 
     44 O          26.6314  -48.0216  -52.9305 O.2       6 UNK        -0.5003 
     45 CA         28.7872  -47.0374  -53.2728 C.3       5 UNK         0.0782 
     46 C46        29.4724  -46.3403  -52.0717 C.3       11 UNK        -0.0868 
     47 S47        28.2925  -45.2744  -51.1695 S.3       11 UNK        -0.2515 
     48 C48        29.0899  -43.6322  -51.2015 C.3       11 UNK         0.0199 
     49 N          29.7160  -47.6032  -54.2436 N.am      5 UNK        -0.4607 
     50 C          30.3317  -46.9688  -55.2394 C.2       4 UNK         0.5031 
     51 O          30.3409  -45.7492  -55.3724 O.2       4 UNK        -0.5119 
     52 CA         31.0522  -47.8747  -56.2586 C.3       4 UNK         0.0263 
     53 CB         31.8124  -47.0808  -57.3359 C.3       4 UNK        -0.1967 
     54 N          31.9699  -48.8260  -55.6251 N.am      4 UNK        -0.4237 
     55 C          31.6249  -49.9352  -54.9546 C.2       3 UNK         0.4908 
     56 O          30.4556  -50.2798  -54.7664 O.2       3 UNK        -0.5102 
     57 CA         32.7654  -50.7633  -54.3498 C.3       3 UNK         0.0241 
     58 CB         33.4991  -51.5551  -55.4443 C.3       3 UNK        -0.1971 
     59 N          33.7124  -49.8884  -53.6577 N.am      3 UNK        -0.4139 
     60 C          33.8088  -49.7558  -52.3270 C.2       2 UNK         0.5016 
     61 O          33.1784  -50.4389  -51.5192 O.2       2 UNK        -0.5319 
     62 CA         34.7571  -48.6581  -51.8018 C.3       2 UNK         0.0286 
     63 CB         36.1649  -49.2283  -51.5663 C.3       2 UNK        -0.1963 
     64 N          34.8464  -47.5026  -52.7007 N.am      2 UNK        -0.4790 
     65 C          33.8229  -46.6803  -52.9770 C.2       1 UNK         0.5024 
     66 O          32.7554  -46.7197  -52.3674 O.2       1 UNK        -0.4888 
     67 H67        37.1283  -46.1127  -56.6150 H         1 UNK         0.0892 
     68 H68        37.2405  -47.8610  -56.3945 H         1 UNK         0.0892 
     69 H69        36.2581  -47.1969  -57.7024 H         1 UNK         0.0892 
     70 H70        35.7696  -45.1561  -55.1271 H         1 UNK         0.3107 
     71 H71        33.0874  -45.8042  -54.7493 H         1 UNK         0.0773 
     72 H72        34.9170  -43.9908  -53.1043 H         1 UNK         0.0680 
     73 H73        33.1879  -44.0702  -52.9003 H         1 UNK         0.0680 
     74 H74        33.0789  -41.4263  -53.3176 H         1 UNK         0.0650 
     75 H75        32.6294  -40.9058  -54.9195 H         1 UNK         0.0650 
     76 H76        31.5008  -42.6503  -51.9588 H         1 UNK         0.1397 
     77 H77        27.6249  -43.5883  -53.5240 H         1 UNK         0.1363 
     78 H78        30.6929  -42.0425  -56.1072 H         1 UNK         0.1355 
     79 H79        27.7631  -44.0177  -56.2155 H         1 UNK         0.0707 
     80 H80        27.1029  -42.4533  -55.8099 H         1 UNK         0.0707 
     81 H81        29.7959  -44.3713  -57.5465 H         1 UNK         0.1034 
     82 H82        30.6825  -43.1183  -58.3632 H         1 UNK         0.1034 
     83 H83        29.1634  -43.3563  -60.3563 H         1 UNK         0.0482 
     84 H84        30.8909  -46.6442  -61.4525 H         1 UNK         0.3460 
     85 H85        29.1922  -46.4374  -61.1044 H         1 UNK         0.3460 
     86 H86        27.2691  -44.4237  -60.2393 H         1 UNK         0.2989 
     87 H87        25.5360  -45.6016  -59.3381 H         1 UNK         0.0559 
     88 H88        26.7889  -48.2105  -60.3729 H         1 UNK         0.0848 
     89 H89        26.4729  -46.7773  -61.3428 H         1 UNK         0.0848 
     90 H90        25.1325  -47.6831  -60.6641 H         1 UNK         0.0848 
     91 H91        25.6729  -48.2558  -58.1726 H         1 UNK         0.3144 
     92 H92        24.9407  -47.2394  -54.8557 H         1 UNK         0.0727 
     93 H93        23.2723  -48.7079  -56.9601 H         1 UNK         0.0790 
     94 H94        22.7687  -47.3086  -56.0273 H         1 UNK         0.0790 
     95 H95        23.0793  -48.8330  -55.2121 H         1 UNK         0.0790 
     96 H96        26.2466  -48.9650  -54.7626 H         1 UNK         0.3215 
     97 H97        26.4686  -51.9832  -56.0939 H         1 UNK         0.0863 
     98 H98        28.7144  -50.2090  -57.1967 H         1 UNK         0.0808 
     99 H99        27.7810  -51.3853  -58.1087 H         1 UNK         0.0808 
    100 H100       28.8668  -51.9288  -56.8412 H         1 UNK         0.0808 
    101 H101       28.5558  -50.5093  -54.7348 H         1 UNK         0.3118 
    102 H102       26.9576  -50.4531  -51.5478 H         1 UNK         0.0546 
    103 H103       29.1595  -51.4019  -50.8979 H         1 UNK         0.0828 
    104 H104       29.4823  -51.8734  -52.5662 H         1 UNK         0.0828 
    105 H105       28.1771  -52.6358  -51.6683 H         1 UNK         0.0828 
    106 H106       29.4334  -49.3938  -52.4575 H         1 UNK         0.3005 
    107 H107       28.1831  -46.2975  -53.8044 H         1 UNK         0.1257 
    108 H108       30.3030  -45.7308  -52.4279 H         1 UNK         0.0775 
    109 H109       29.9120  -47.0635  -51.3827 H         1 UNK         0.0775 
    110 H110       28.3984  -42.8983  -50.7859 H         1 UNK         0.0840 
    111 H111       29.9470  -43.6606  -50.5268 H         1 UNK         0.0840 
    112 H112       29.7934  -48.6153  -54.2474 H         1 UNK         0.2987 
    113 H113       30.2742  -48.4431  -56.7711 H         1 UNK         0.0785 
    114 H114       32.2774  -47.7428  -58.0661 H         1 UNK         0.0798 
    115 H115       31.1311  -46.4295  -57.8811 H         1 UNK         0.0798 
    116 H116       32.5903  -46.4484  -56.9110 H         1 UNK         0.0798 
    117 H117       32.9598  -48.5944  -55.7027 H         1 UNK         0.3079 
    118 H118       32.3240  -51.4783  -53.6520 H         1 UNK         0.0794 
    119 H119       34.2728  -52.1926  -55.0162 H         1 UNK         0.0786 
    120 H120       33.9751  -50.8981  -56.1737 H         1 UNK         0.0786 
    121 H121       32.8089  -52.2026  -55.9870 H         1 UNK         0.0786 
    122 H122       34.2462  -49.2532  -54.2446 H         1 UNK         0.3032 
    123 H123       34.3591  -48.3133  -50.8446 H         1 UNK         0.1094 
    124 H124       36.6217  -49.5757  -52.4940 H         1 UNK         0.0794 
    125 H125       36.8261  -48.4834  -51.1233 H         1 UNK         0.0794 
    126 H126       36.1313  -50.0773  -50.8818 H         1 UNK         0.0794 
    127 H127       35.6947  -47.4030  -53.2393 H         1 UNK         0.3016 
@<TRIPOS>BOND
     1    1    2 1    
     2    1   67 1    
     3    1   68 1    
     4    1   69 1    
     5    2    3 2    
     6    2    4 am   BACKBONE|DICT|INTERRES
     7    4    5 1    
     8    4   70 1    
     9    5    6 1    
    10    5   65 1    
    11    5   71 1    
    12    6    7 1    
    13    6   72 1    
    14    6   73 1    
    15    7    8 1    
    16    8    9 1    
    17    8   74 1    
    18    8   75 1    
    19    9   10 ar   
    20    9   14 ar   
    21   10   11 ar   
    22   10   76 1    
    23   11   12 ar   
    24   11   48 1    
    25   12   13 ar   
    26   12   77 1    
    27   13   14 ar   
    28   13   15 1    
    29   14   78 1    
    30   15   16 1    
    31   15   79 1    
    32   15   80 1    
    33   16   17 1    
    34   17   18 1    
    35   17   81 1    
    36   17   82 1    
    37   18   19 1    
    38   18   22 1    
    39   18   83 1    
    40   19   20 am   BACKBONE|DICT|INTERRES
    41   19   21 2    
    42   20   84 1    
    43   20   85 1    
    44   22   23 am   BACKBONE|DICT|INTERRES
    45   22   86 1    
    46   23   24 2    
    47   23   25 1    
    48   25   26 1    
    49   25   27 1    
    50   25   87 1    
    51   26   88 1    
    52   26   89 1    
    53   26   90 1    
    54   27   28 am   BACKBONE|DICT|INTERRES
    55   27   91 1    
    56   28   29 2    
    57   28   30 1    
    58   30   31 1    
    59   30   32 1    
    60   30   92 1    
    61   31   93 1    
    62   31   94 1    
    63   31   95 1    
    64   32   33 am   BACKBONE|DICT|INTERRES
    65   32   96 1    
    66   33   34 2    
    67   33   35 1    
    68   35   36 1    
    69   35   37 1    
    70   35   97 1    
    71   36   98 1    
    72   36   99 1    
    73   36  100 1    
    74   37   38 am   BACKBONE|DICT|INTERRES
    75   37  101 1    
    76   38   39 2    
    77   38   40 1    
    78   40   41 1    
    79   40   42 1    
    80   40  102 1    
    81   41  103 1    
    82   41  104 1    
    83   41  105 1    
    84   42   43 am   BACKBONE|DICT|INTERRES
    85   42  106 1    
    86   43   44 2    
    87   43   45 1    
    88   45   46 1    
    89   45   49 1    
    90   45  107 1    
    91   46   47 1    
    92   46  108 1    
    93   46  109 1    
    94   47   48 1    
    95   48  110 1    
    96   48  111 1    
    97   49   50 am   BACKBONE|DICT|INTERRES
    98   49  112 1    
    99   50   51 2    
   100   50   52 1    
   101   52   53 1    
   102   52   54 1    
   103   52  113 1    
   104   53  114 1    
   105   53  115 1    
   106   53  116 1    
   107   54   55 am   BACKBONE|DICT|INTERRES
   108   54  117 1    
   109   55   56 2    
   110   55   57 1    
   111   57   58 1    
   112   57   59 1    
   113   57  118 1    
   114   58  119 1    
   115   58  120 1    
   116   58  121 1    
   117   59   60 am   BACKBONE|DICT|INTERRES
   118   59  122 1    
   119   60   61 2    
   120   60   62 1    
   121   62   63 1    
   122   62   64 1    
   123   62  123 1    
   124   63  124 1    
   125   63  125 1    
   126   63  126 1    
   127   64   65 am   BACKBONE|DICT|INTERRES
   128   64  127 1    
   129   65   66 2    
@<TRIPOS>SUBSTRUCTURE
     1 UNK         1 GROUP             0       ****    0 ROOT    
