@<TRIPOS>MOLECULE
3R134
127   129    1
SMALL
USER_CHARGES


@<TRIPOS>ATOM
      1 CA         32.5464  -47.5081  -50.4983 C.3       0 UNK        -0.1968 
      2 C          33.9421  -46.9288  -50.6657 C.2       0 UNK         0.4852 
      3 O          34.7719  -47.0684  -49.7659 O.2       0 UNK        -0.5359 
      4 N          34.2055  -46.2756  -51.8047 N.am      1 UNK        -0.4300 
      5 CA         35.5042  -45.6813  -52.1426 C.3       1 UNK         0.0863 
      6 C6         35.3691  -44.5467  -53.1877 C.3       11 UNK        -0.0953 
      7 S7         34.5300  -45.0380  -54.7369 S.3       11 UNK        -0.2369 
      8 C8         33.8439  -43.4398  -55.2807 C.3       11 UNK         0.0226 
      9 C9         32.3485  -43.3062  -55.0121 C.ar      11 UNK        -0.0699 
     10 C10        31.8225  -43.4757  -53.7262 C.ar      11 UNK        -0.0804 
     11 C11        30.4518  -43.3233  -53.4904 C.ar      11 UNK        -0.0871 
     12 C12        29.6024  -42.9943  -54.5513 C.ar      11 UNK        -0.1008 
     13 C13        30.1184  -42.8003  -55.8363 C.ar      11 UNK        -0.0735 
     14 C14        31.4884  -42.9628  -56.0595 C.ar      11 UNK        -0.0945 
     15 C15        29.2093  -42.3750  -56.9793 C.3       11 UNK         0.0169 
     16 S16        29.0125  -43.7039  -58.2007 S.3       11 UNK        -0.2669 
     17 C17        27.8381  -42.9303  -59.3659 C.3       11 UNK        -0.0850 
     18 CA         26.3593  -43.2169  -58.9999 C.3       10 UNK         0.0855 
     19 C          25.3969  -42.5417  -60.0137 C.2       10 UNK         0.5543 
     20 N          25.0008  -41.3020  -59.7597 N.am      10 UNK        -0.7343 
     21 O          25.0448  -43.1113  -61.0452 O.2       10 UNK        -0.5027 
     22 N          26.1206  -44.6571  -58.8603 N.am      10 UNK        -0.4495 
     23 C          25.0439  -45.2283  -58.3166 C.2       10 UNK         0.4903 
     24 O          24.0830  -44.5969  -57.8752 O.2       10 UNK        -0.4860 
     25 CA         25.0433  -46.7631  -58.2028 C.3       9 UNK         0.0227 
     26 CB         24.3361  -47.4137  -59.4070 C.3       9 UNK        -0.1964 
     27 N          26.3626  -47.3657  -57.9572 N.am      9 UNK        -0.4231 
     28 C          27.4223  -47.4804  -58.7734 C.2       9 UNK         0.5014 
     29 O          27.4731  -47.0012  -59.9067 O.2       9 UNK        -0.5270 
     30 CA         28.6365  -48.2612  -58.2337 C.3       8 UNK         0.0284 
     31 CB         29.6487  -47.3111  -57.5737 C.3       8 UNK        -0.1977 
     32 N          28.2644  -49.3063  -57.2774 N.am      8 UNK        -0.4342 
     33 C          27.5554  -50.4049  -57.5750 C.2       8 UNK         0.5039 
     34 O          27.2122  -50.7167  -58.7159 O.2       8 UNK        -0.5547 
     35 CA         27.1296  -51.2861  -56.3914 C.3       7 UNK         0.0281 
     36 CB         28.2636  -52.2399  -55.9802 C.3       7 UNK        -0.1963 
     37 N          26.7122  -50.4732  -55.2451 N.am      7 UNK        -0.4444 
     38 C          25.5196  -49.8673  -55.1457 C.2       7 UNK         0.5104 
     39 O          24.6209  -49.9851  -55.9782 O.2       7 UNK        -0.5100 
     40 CA         25.2850  -48.9692  -53.9169 C.3       6 UNK         0.0396 
     41 CB         24.6375  -49.7763  -52.7808 C.3       6 UNK        -0.1801 
     42 N          26.5064  -48.3293  -53.4211 N.am      6 UNK        -0.4747 
     43 C          27.1683  -47.3492  -54.0552 C.2       6 UNK         0.5012 
     44 O          26.7997  -46.8579  -55.1208 O.2       6 UNK        -0.5003 
     45 CA         28.4952  -46.8871  -53.4157 C.3       5 UNK         0.0782 
     46 C46        28.2415  -45.7532  -52.3918 C.3       11 UNK        -0.0868 
     47 S47        29.7675  -45.1981  -51.5542 S.3       11 UNK        -0.2515 
     48 C48        29.9033  -43.4611  -52.0775 C.3       11 UNK         0.0199 
     49 N          29.2490  -48.0062  -52.8318 N.am      5 UNK        -0.4607 
     50 C          29.7066  -49.0569  -53.5212 C.2       4 UNK         0.5031 
     51 O          29.4640  -49.2506  -54.7141 O.2       4 UNK        -0.5119 
     52 CA         30.5281  -50.0938  -52.7422 C.3       4 UNK         0.0263 
     53 CB         29.6351  -51.2635  -52.2986 C.3       4 UNK        -0.1967 
     54 N          31.6286  -50.6021  -53.5622 N.am      4 UNK        -0.4237 
     55 C          32.6843  -49.8662  -53.9301 C.2       3 UNK         0.4908 
     56 O          32.8975  -48.7164  -53.5301 O.2       3 UNK        -0.5102 
     57 CA         33.6518  -50.5107  -54.9358 C.3       3 UNK         0.0241 
     58 CB         33.1116  -50.3574  -56.3679 C.3       3 UNK        -0.1971 
     59 N          34.9469  -49.8418  -54.8396 N.am      3 UNK        -0.4139 
     60 C          35.8642  -50.1154  -53.9031 C.2       2 UNK         0.5016 
     61 O          35.8797  -51.1388  -53.2183 O.2       2 UNK        -0.5319 
     62 CA         36.8573  -48.9894  -53.6157 C.3       2 UNK         0.0286 
     63 CB         37.7272  -48.6515  -54.8443 C.3       2 UNK        -0.1963 
     64 N          36.0747  -47.8363  -53.1728 N.am      2 UNK        -0.4790 
     65 C          36.5455  -46.7379  -52.5720 C.2       1 UNK         0.5024 
     66 O          37.7397  -46.5423  -52.3414 O.2       1 UNK        -0.4888 
     67 H67        31.9339  -47.3395  -51.3832 H         1 UNK         0.0892 
     68 H68        32.0465  -47.0482  -49.6463 H         1 UNK         0.0892 
     69 H69        32.6067  -48.5819  -50.3248 H         1 UNK         0.0892 
     70 H70        33.5011  -46.2282  -52.5289 H         1 UNK         0.3107 
     71 H71        35.9001  -45.2227  -51.2335 H         1 UNK         0.0773 
     72 H72        34.8194  -43.7206  -52.7354 H         1 UNK         0.0680 
     73 H73        36.3493  -44.1378  -53.4405 H         1 UNK         0.0680 
     74 H74        34.0456  -43.3441  -56.3485 H         1 UNK         0.0650 
     75 H75        34.3723  -42.6144  -54.8023 H         1 UNK         0.0650 
     76 H76        32.4785  -43.7209  -52.9034 H         1 UNK         0.1397 
     77 H77        28.5439  -42.8632  -54.3723 H         1 UNK         0.1363 
     78 H78        31.8832  -42.8099  -57.0547 H         1 UNK         0.1355 
     79 H79        28.2272  -42.0860  -56.6023 H         1 UNK         0.0707 
     80 H80        29.6285  -41.4932  -57.4656 H         1 UNK         0.0707 
     81 H81        28.0256  -41.8555  -59.4059 H         1 UNK         0.1034 
     82 H82        28.0601  -43.3102  -60.3653 H         1 UNK         0.1034 
     83 H83        26.1686  -42.7744  -58.0200 H         1 UNK         0.0482 
     84 H84        25.2900  -40.8219  -58.9216 H         1 UNK         0.3460 
     85 H85        24.3887  -40.8397  -60.4141 H         1 UNK         0.3460 
     86 H86        26.8317  -45.2704  -59.2439 H         1 UNK         0.2989 
     87 H87        24.4568  -47.0037  -57.3144 H         1 UNK         0.0559 
     88 H88        23.3143  -47.0441  -59.5026 H         1 UNK         0.0848 
     89 H89        24.2810  -48.4967  -59.2953 H         1 UNK         0.0848 
     90 H90        24.8459  -47.1974  -60.3463 H         1 UNK         0.0848 
     91 H91        26.5028  -47.6673  -56.9990 H         1 UNK         0.3144 
     92 H92        29.1237  -48.7454  -59.0825 H         1 UNK         0.0727 
     93 H93        29.2023  -46.7541  -56.7490 H         1 UNK         0.0790 
     94 H94        30.0225  -46.5827  -58.2940 H         1 UNK         0.0790 
     95 H95        30.5109  -47.8529  -57.1839 H         1 UNK         0.0790 
     96 H96        28.5828  -49.1834  -56.3172 H         1 UNK         0.3215 
     97 H97        26.2811  -51.8937  -56.7147 H         1 UNK         0.0863 
     98 H98        27.9607  -52.8844  -55.1550 H         1 UNK         0.0808 
     99 H99        29.1629  -51.7029  -55.6782 H         1 UNK         0.0808 
    100 H100       28.5410  -52.8895  -56.8115 H         1 UNK         0.0808 
    101 H101       27.4156  -50.2722  -54.5487 H         1 UNK         0.3118 
    102 H102       24.5880  -48.1822  -54.2132 H         1 UNK         0.0546 
    103 H103       25.2922  -50.5725  -52.4241 H         1 UNK         0.0828 
    104 H104       23.7098  -50.2435  -53.1145 H         1 UNK         0.0828 
    105 H105       24.3888  -49.1390  -51.9321 H         1 UNK         0.0828 
    106 H106       26.8834  -48.6744  -52.5500 H         1 UNK         0.3005 
    107 H107       29.1083  -46.4766  -54.2220 H         1 UNK         0.1257 
    108 H108       27.5453  -46.0835  -51.6184 H         1 UNK         0.0775 
    109 H109       27.7650  -44.9024  -52.8823 H         1 UNK         0.0775 
    110 H110       28.9343  -42.9688  -51.9818 H         1 UNK         0.0840 
    111 H111       30.5693  -42.9430  -51.3860 H         1 UNK         0.0840 
    112 H112       29.4820  -47.9129  -51.8539 H         1 UNK         0.2987 
    113 H113       30.9500  -49.6225  -51.8533 H         1 UNK         0.0785 
    114 H114       28.8160  -50.9145  -51.6683 H         1 UNK         0.0798 
    115 H115       30.1992  -51.9927  -51.7167 H         1 UNK         0.0798 
    116 H116       29.1933  -51.7845  -53.1481 H         1 UNK         0.0798 
    117 H117       31.5097  -51.5214  -53.9615 H         1 UNK         0.3079 
    118 H118       33.7637  -51.5719  -54.7027 H         1 UNK         0.0794 
    119 H119       33.7951  -50.7915  -57.0979 H         1 UNK         0.0786 
    120 H120       32.9583  -49.3101  -56.6326 H         1 UNK         0.0786 
    121 H121       32.1516  -50.8631  -56.4823 H         1 UNK         0.0786 
    122 H122       35.0159  -48.9551  -55.3177 H         1 UNK         0.3032 
    123 H123       37.5061  -49.3113  -52.7977 H         1 UNK         0.1094 
    124 H124       37.1409  -48.2239  -55.6583 H         1 UNK         0.0794 
    125 H125       38.5102  -47.9367  -54.5916 H         1 UNK         0.0794 
    126 H126       38.2221  -49.5444  -55.2286 H         1 UNK         0.0794 
    127 H127       35.0687  -47.9290  -53.2675 H         1 UNK         0.3016 
@<TRIPOS>BOND
     1    1    2 1    
     2    1   67 1    
     3    1   68 1    
     4    1   69 1    
     5    2    3 2    
     6    2    4 am   BACKBONE|DICT|INTERRES
     7    4    5 1    
     8    4   70 1    
     9    5    6 1    
    10    5   65 1    
    11    5   71 1    
    12    6    7 1    
    13    6   72 1    
    14    6   73 1    
    15    7    8 1    
    16    8    9 1    
    17    8   74 1    
    18    8   75 1    
    19    9   10 ar   
    20    9   14 ar   
    21   10   11 ar   
    22   10   76 1    
    23   11   12 ar   
    24   11   48 1    
    25   12   13 ar   
    26   12   77 1    
    27   13   14 ar   
    28   13   15 1    
    29   14   78 1    
    30   15   16 1    
    31   15   79 1    
    32   15   80 1    
    33   16   17 1    
    34   17   18 1    
    35   17   81 1    
    36   17   82 1    
    37   18   19 1    
    38   18   22 1    
    39   18   83 1    
    40   19   20 am   BACKBONE|DICT|INTERRES
    41   19   21 2    
    42   20   84 1    
    43   20   85 1    
    44   22   23 am   BACKBONE|DICT|INTERRES
    45   22   86 1    
    46   23   24 2    
    47   23   25 1    
    48   25   26 1    
    49   25   27 1    
    50   25   87 1    
    51   26   88 1    
    52   26   89 1    
    53   26   90 1    
    54   27   28 am   BACKBONE|DICT|INTERRES
    55   27   91 1    
    56   28   29 2    
    57   28   30 1    
    58   30   31 1    
    59   30   32 1    
    60   30   92 1    
    61   31   93 1    
    62   31   94 1    
    63   31   95 1    
    64   32   33 am   BACKBONE|DICT|INTERRES
    65   32   96 1    
    66   33   34 2    
    67   33   35 1    
    68   35   36 1    
    69   35   37 1    
    70   35   97 1    
    71   36   98 1    
    72   36   99 1    
    73   36  100 1    
    74   37   38 am   BACKBONE|DICT|INTERRES
    75   37  101 1    
    76   38   39 2    
    77   38   40 1    
    78   40   41 1    
    79   40   42 1    
    80   40  102 1    
    81   41  103 1    
    82   41  104 1    
    83   41  105 1    
    84   42   43 am   BACKBONE|DICT|INTERRES
    85   42  106 1    
    86   43   44 2    
    87   43   45 1    
    88   45   46 1    
    89   45   49 1    
    90   45  107 1    
    91   46   47 1    
    92   46  108 1    
    93   46  109 1    
    94   47   48 1    
    95   48  110 1    
    96   48  111 1    
    97   49   50 am   BACKBONE|DICT|INTERRES
    98   49  112 1    
    99   50   51 2    
   100   50   52 1    
   101   52   53 1    
   102   52   54 1    
   103   52  113 1    
   104   53  114 1    
   105   53  115 1    
   106   53  116 1    
   107   54   55 am   BACKBONE|DICT|INTERRES
   108   54  117 1    
   109   55   56 2    
   110   55   57 1    
   111   57   58 1    
   112   57   59 1    
   113   57  118 1    
   114   58  119 1    
   115   58  120 1    
   116   58  121 1    
   117   59   60 am   BACKBONE|DICT|INTERRES
   118   59  122 1    
   119   60   61 2    
   120   60   62 1    
   121   62   63 1    
   122   62   64 1    
   123   62  123 1    
   124   63  124 1    
   125   63  125 1    
   126   63  126 1    
   127   64   65 am   BACKBONE|DICT|INTERRES
   128   64  127 1    
   129   65   66 2    
@<TRIPOS>SUBSTRUCTURE
     1 UNK         1 GROUP             0       ****    0 ROOT    
