@<TRIPOS>MOLECULE
3R134
127   129    1
SMALL
USER_CHARGES


@<TRIPOS>ATOM
      1 CA         33.2056  -44.5883  -50.1502 C.3       0 UNK        -0.1968 
      2 C          34.0783  -45.0468  -51.3093 C.2       0 UNK         0.4852 
      3 O          35.2687  -44.7298  -51.3399 O.2       0 UNK        -0.5359 
      4 N          33.4937  -45.7834  -52.2632 N.am      1 UNK        -0.4300 
      5 CA         34.1923  -46.3708  -53.4114 C.3       1 UNK         0.0863 
      6 C6         33.2127  -46.6590  -54.5832 C.3       11 UNK        -0.0953 
      7 S7         33.8999  -46.1672  -56.2010 S.3       11 UNK        -0.2369 
      8 C8         33.7743  -44.3448  -56.1460 C.3       11 UNK         0.0226 
      9 C9         32.3452  -43.8787  -55.9172 C.ar      11 UNK        -0.0699 
     10 C10        31.9337  -43.4650  -54.6478 C.ar      11 UNK        -0.0804 
     11 C11        30.5971  -43.1378  -54.4094 C.ar      11 UNK        -0.0871 
     12 C12        29.6771  -43.1848  -55.4614 C.ar      11 UNK        -0.1008 
     13 C13        30.0796  -43.5881  -56.7386 C.ar      11 UNK        -0.0735 
     14 C14        31.4195  -43.9200  -56.9611 C.ar      11 UNK        -0.0945 
     15 C15        29.0663  -43.7862  -57.8568 C.3       11 UNK         0.0169 
     16 S16        28.1273  -42.2859  -58.2942 S.3       11 UNK        -0.2669 
     17 C17        26.4358  -42.3941  -57.5783 C.3       11 UNK        -0.0850 
     18 CA         25.9971  -43.6336  -56.7339 C.3       10 UNK         0.0855 
     19 C          24.6435  -43.3929  -55.9997 C.2       10 UNK         0.5543 
     20 N          24.5708  -42.3703  -55.1568 N.am      10 UNK        -0.7343 
     21 O          23.6633  -44.1206  -56.1591 O.2       10 UNK        -0.5027 
     22 N          26.0263  -44.9195  -57.4478 N.am      10 UNK        -0.4495 
     23 C          25.4083  -45.2643  -58.5828 C.2       10 UNK         0.4903 
     24 O          24.7679  -44.4826  -59.2879 O.2       10 UNK        -0.4860 
     25 CA         25.4955  -46.7551  -58.9732 C.3       9 UNK         0.0227 
     26 CB         25.1981  -47.0098  -60.4671 C.3       9 UNK        -0.1964 
     27 N          26.7410  -47.4149  -58.5512 N.am      9 UNK        -0.4231 
     28 C          27.9845  -47.2014  -59.0137 C.2       9 UNK         0.5014 
     29 O          28.2500  -46.3832  -59.8948 O.2       9 UNK        -0.5270 
     30 CA         29.1405  -48.0332  -58.4102 C.3       8 UNK         0.0284 
     31 CB         30.2394  -47.1334  -57.8208 C.3       8 UNK        -0.1977 
     32 N          28.7203  -48.9776  -57.3749 N.am      8 UNK        -0.4342 
     33 C          28.1404  -50.1643  -57.5936 C.2       8 UNK         0.5039 
     34 O          27.9465  -50.6404  -58.7121 O.2       8 UNK        -0.5547 
     35 CA         27.6480  -50.9213  -56.3484 C.3       7 UNK         0.0281 
     36 CB         28.7704  -51.7916  -55.7591 C.3       7 UNK        -0.1963 
     37 N          27.1201  -50.0198  -55.3172 N.am      7 UNK        -0.4444 
     38 C          26.0119  -49.2758  -55.4537 C.2       7 UNK         0.5104 
     39 O          25.2981  -49.2888  -56.4561 O.2       7 UNK        -0.5100 
     40 CA         25.6701  -48.3189  -54.2986 C.3       6 UNK         0.0396 
     41 CB         24.9052  -49.0586  -53.1897 C.3       6 UNK        -0.1801 
     42 N          26.8521  -47.6637  -53.7311 N.am      6 UNK        -0.4747 
     43 C          27.6246  -46.7886  -54.3930 C.2       6 UNK         0.5012 
     44 O          27.4145  -46.4343  -55.5512 O.2       6 UNK        -0.5003 
     45 CA         28.8744  -46.2694  -53.6557 C.3       5 UNK         0.0782 
     46 C46        28.5022  -45.0853  -52.7298 C.3       11 UNK        -0.0868 
     47 S47        29.9645  -44.2926  -51.9805 S.3       11 UNK        -0.2515 
     48 C48        30.1446  -42.7912  -53.0000 C.3       11 UNK         0.0199 
     49 N          29.5766  -47.3499  -52.9478 N.am      5 UNK        -0.4607 
     50 C          30.1029  -48.4200  -53.5560 C.2       4 UNK         0.5031 
     51 O          30.0570  -48.6055  -54.7757 O.2       4 UNK        -0.5119 
     52 CA         30.7546  -49.4804  -52.6652 C.3       4 UNK         0.0263 
     53 CB         29.6879  -50.4183  -52.0671 C.3       4 UNK        -0.1967 
     54 N          31.6864  -50.2202  -53.5079 N.am      4 UNK        -0.4237 
     55 C          32.6341  -51.0764  -53.1131 C.2       3 UNK         0.4908 
     56 O          32.8065  -51.4274  -51.9457 O.2       3 UNK        -0.5102 
     57 CA         33.5798  -51.5910  -54.2106 C.3       3 UNK         0.0241 
     58 CB         32.8761  -51.8189  -55.5655 C.3       3 UNK        -0.1971 
     59 N          34.6556  -50.6156  -54.3754 N.am      3 UNK        -0.4139 
     60 C          35.7961  -50.6056  -53.6718 C.2       2 UNK         0.5016 
     61 O          36.1747  -51.5300  -52.9507 O.2       2 UNK        -0.5319 
     62 CA         36.6484  -49.3255  -53.7687 C.3       2 UNK         0.0286 
     63 CB         37.6533  -49.4285  -54.9281 C.3       2 UNK        -0.1963 
     64 N          35.8481  -48.1027  -53.9233 N.am      2 UNK        -0.4790 
     65 C          34.9859  -47.6319  -53.0093 C.2       1 UNK         0.5024 
     66 O          34.7861  -48.1723  -51.9188 O.2       1 UNK        -0.4888 
     67 H67        32.2577  -45.1272  -50.1178 H         1 UNK         0.0892 
     68 H68        33.7186  -44.7563  -49.2022 H         1 UNK         0.0892 
     69 H69        32.9912  -43.5226  -50.2404 H         1 UNK         0.0892 
     70 H70        32.5180  -46.0230  -52.1697 H         1 UNK         0.3107 
     71 H71        34.9307  -45.6349  -53.7362 H         1 UNK         0.0773 
     72 H72        32.9411  -47.7145  -54.6395 H         1 UNK         0.0680 
     73 H73        32.2604  -46.1476  -54.4456 H         1 UNK         0.0680 
     74 H74        34.1429  -43.9381  -57.0887 H         1 UNK         0.0650 
     75 H75        34.4343  -43.9560  -55.3694 H         1 UNK         0.0650 
     76 H76        32.6424  -43.4486  -53.8313 H         1 UNK         0.1397 
     77 H77        28.6429  -42.9398  -55.2760 H         1 UNK         0.1363 
     78 H78        31.7380  -44.2636  -57.9357 H         1 UNK         0.1355 
     79 H79        29.5766  -44.1072  -58.7656 H         1 UNK         0.0707 
     80 H80        28.4325  -44.6195  -57.5858 H         1 UNK         0.0707 
     81 H81        26.3378  -41.4904  -56.9745 H         1 UNK         0.1034 
     82 H82        25.7316  -42.2472  -58.3989 H         1 UNK         0.1034 
     83 H83        26.7201  -43.7617  -55.9309 H         1 UNK         0.0482 
     84 H84        23.7034  -42.2050  -54.6700 H         1 UNK         0.3460 
     85 H85        25.3604  -41.7667  -54.9853 H         1 UNK         0.3460 
     86 H86        26.5030  -45.6535  -56.9286 H         1 UNK         0.2989 
     87 H87        24.7052  -47.2472  -58.4047 H         1 UNK         0.0559 
     88 H88        24.1956  -46.6693  -60.7292 H         1 UNK         0.0848 
     89 H89        25.2509  -48.0716  -60.7076 H         1 UNK         0.0848 
     90 H90        25.8973  -46.4820  -61.1161 H         1 UNK         0.0848 
     91 H91        26.6286  -48.1025  -57.8164 H         1 UNK         0.3144 
     92 H92        29.5807  -48.6001  -59.2331 H         1 UNK         0.0727 
     93 H93        29.8729  -46.5552  -56.9725 H         1 UNK         0.0790 
     94 H94        30.6162  -46.4318  -58.5652 H         1 UNK         0.0790 
     95 H95        31.0905  -47.7201  -57.4740 H         1 UNK         0.0790 
     96 H96        28.9047  -48.7010  -56.4148 H         1 UNK         0.3215 
     97 H97        26.8359  -51.5804  -56.6635 H         1 UNK         0.0863 
     98 H98        28.4151  -52.3818  -54.9143 H         1 UNK         0.0808 
     99 H99        29.6152  -51.1922  -55.4210 H         1 UNK         0.0808 
    100 H100       29.1496  -52.4921  -56.5044 H         1 UNK         0.0808 
    101 H101       27.6648  -49.9161  -54.4749 H         1 UNK         0.3118 
    102 H102       25.0169  -47.5393  -54.6983 H         1 UNK         0.0546 
    103 H103       25.5123  -49.8368  -52.7250 H         1 UNK         0.0828 
    104 H104       24.0099  -49.5388  -53.5879 H         1 UNK         0.0828 
    105 H105       24.5800  -48.3730  -52.4069 H         1 UNK         0.0828 
    106 H106       27.0999  -47.9039  -52.7822 H         1 UNK         0.3005 
    107 H107       29.5536  -45.8976  -54.4268 H         1 UNK         0.1257 
    108 H108       27.8523  -45.4227  -51.9203 H         1 UNK         0.0775 
    109 H109       27.9309  -44.3311  -53.2746 H         1 UNK         0.0775 
    110 H110       29.2047  -42.2372  -53.0145 H         1 UNK         0.0840 
    111 H111       30.8786  -42.1326  -52.5334 H         1 UNK         0.0840 
    112 H112       29.6432  -47.2588  -51.9442 H         1 UNK         0.2987 
    113 H113       31.3132  -48.9850  -51.8682 H         1 UNK         0.0785 
    114 H114       28.9585  -49.8621  -51.4770 H         1 UNK         0.0798 
    115 H115       30.1347  -51.1582  -51.4032 H         1 UNK         0.0798 
    116 H116       29.1422  -50.9571  -52.8417 H         1 UNK         0.0798 
    117 H117       31.6028  -49.9784  -54.4883 H         1 UNK         0.3079 
    118 H118       33.9873  -52.5484  -53.8774 H         1 UNK         0.0794 
    119 H119       33.5513  -52.2959  -56.2764 H         1 UNK         0.0786 
    120 H120       32.5272  -50.8914  -56.0216 H         1 UNK         0.0786 
    121 H121       32.0141  -52.4785  -55.4526 H         1 UNK         0.0786 
    122 H122       34.4495  -49.8017  -54.9355 H         1 UNK         0.3032 
    123 H123       37.2094  -49.2401  -52.8346 H         1 UNK         0.1094 
    124 H124       37.1521  -49.4894  -55.8954 H         1 UNK         0.0794 
    125 H125       38.3247  -48.5695  -54.9499 H         1 UNK         0.0794 
    126 H126       38.2749  -50.3195  -54.8266 H         1 UNK         0.0794 
    127 H127       35.9463  -47.6026  -54.7967 H         1 UNK         0.3016 
@<TRIPOS>BOND
     1    1    2 1    
     2    1   67 1    
     3    1   68 1    
     4    1   69 1    
     5    2    3 2    
     6    2    4 am   BACKBONE|DICT|INTERRES
     7    4    5 1    
     8    4   70 1    
     9    5    6 1    
    10    5   65 1    
    11    5   71 1    
    12    6    7 1    
    13    6   72 1    
    14    6   73 1    
    15    7    8 1    
    16    8    9 1    
    17    8   74 1    
    18    8   75 1    
    19    9   10 ar   
    20    9   14 ar   
    21   10   11 ar   
    22   10   76 1    
    23   11   12 ar   
    24   11   48 1    
    25   12   13 ar   
    26   12   77 1    
    27   13   14 ar   
    28   13   15 1    
    29   14   78 1    
    30   15   16 1    
    31   15   79 1    
    32   15   80 1    
    33   16   17 1    
    34   17   18 1    
    35   17   81 1    
    36   17   82 1    
    37   18   19 1    
    38   18   22 1    
    39   18   83 1    
    40   19   20 am   BACKBONE|DICT|INTERRES
    41   19   21 2    
    42   20   84 1    
    43   20   85 1    
    44   22   23 am   BACKBONE|DICT|INTERRES
    45   22   86 1    
    46   23   24 2    
    47   23   25 1    
    48   25   26 1    
    49   25   27 1    
    50   25   87 1    
    51   26   88 1    
    52   26   89 1    
    53   26   90 1    
    54   27   28 am   BACKBONE|DICT|INTERRES
    55   27   91 1    
    56   28   29 2    
    57   28   30 1    
    58   30   31 1    
    59   30   32 1    
    60   30   92 1    
    61   31   93 1    
    62   31   94 1    
    63   31   95 1    
    64   32   33 am   BACKBONE|DICT|INTERRES
    65   32   96 1    
    66   33   34 2    
    67   33   35 1    
    68   35   36 1    
    69   35   37 1    
    70   35   97 1    
    71   36   98 1    
    72   36   99 1    
    73   36  100 1    
    74   37   38 am   BACKBONE|DICT|INTERRES
    75   37  101 1    
    76   38   39 2    
    77   38   40 1    
    78   40   41 1    
    79   40   42 1    
    80   40  102 1    
    81   41  103 1    
    82   41  104 1    
    83   41  105 1    
    84   42   43 am   BACKBONE|DICT|INTERRES
    85   42  106 1    
    86   43   44 2    
    87   43   45 1    
    88   45   46 1    
    89   45   49 1    
    90   45  107 1    
    91   46   47 1    
    92   46  108 1    
    93   46  109 1    
    94   47   48 1    
    95   48  110 1    
    96   48  111 1    
    97   49   50 am   BACKBONE|DICT|INTERRES
    98   49  112 1    
    99   50   51 2    
   100   50   52 1    
   101   52   53 1    
   102   52   54 1    
   103   52  113 1    
   104   53  114 1    
   105   53  115 1    
   106   53  116 1    
   107   54   55 am   BACKBONE|DICT|INTERRES
   108   54  117 1    
   109   55   56 2    
   110   55   57 1    
   111   57   58 1    
   112   57   59 1    
   113   57  118 1    
   114   58  119 1    
   115   58  120 1    
   116   58  121 1    
   117   59   60 am   BACKBONE|DICT|INTERRES
   118   59  122 1    
   119   60   61 2    
   120   60   62 1    
   121   62   63 1    
   122   62   64 1    
   123   62  123 1    
   124   63  124 1    
   125   63  125 1    
   126   63  126 1    
   127   64   65 am   BACKBONE|DICT|INTERRES
   128   64  127 1    
   129   65   66 2    
@<TRIPOS>SUBSTRUCTURE
     1 UNK         1 GROUP             0       ****    0 ROOT    
