@<TRIPOS>MOLECULE
3R134
127   129    1
SMALL
USER_CHARGES


@<TRIPOS>ATOM
      1 CA         33.1573  -47.6677  -59.9857 C.3       0 UNK        -0.1968 
      2 C          33.6357  -47.3680  -58.5727 C.2       0 UNK         0.4852 
      3 O          34.7477  -46.8676  -58.4010 O.2       0 UNK        -0.5359 
      4 N          32.7995  -47.6743  -57.5725 N.am      1 UNK        -0.4300 
      5 CA         33.0528  -47.5319  -56.1358 C.3       1 UNK         0.0863 
      6 C6         33.3347  -46.0699  -55.6871 C.3       11 UNK        -0.0953 
      7 S7         33.0490  -45.8344  -53.8996 S.3       11 UNK        -0.2369 
      8 C8         32.9830  -44.0199  -53.7717 C.3       11 UNK         0.0226 
      9 C9         31.5513  -43.5042  -53.7734 C.ar      11 UNK        -0.0699 
     10 C10        30.7500  -43.6864  -52.6429 C.ar      11 UNK        -0.0804 
     11 C11        29.4351  -43.2106  -52.6127 C.ar      11 UNK        -0.0871 
     12 C12        28.9265  -42.5418  -53.7310 C.ar      11 UNK        -0.1008 
     13 C13        29.7237  -42.3306  -54.8615 C.ar      11 UNK        -0.0735 
     14 C14        31.0369  -42.8155  -54.8763 C.ar      11 UNK        -0.0945 
     15 C15        29.1734  -41.5478  -56.0482 C.3       11 UNK         0.0169 
     16 S16        29.0975  -42.5687  -57.5496 S.3       11 UNK        -0.2669 
     17 C17        27.8222  -41.7081  -58.5313 C.3       11 UNK        -0.0850 
     18 CA         26.3836  -42.2244  -58.2519 C.3       10 UNK         0.0855 
     19 C          25.3473  -41.4844  -59.1469 C.2       10 UNK         0.5543 
     20 N          24.6241  -42.1628  -60.0294 N.am      10 UNK        -0.7343 
     21 O          25.1966  -40.2703  -59.0339 O.2       10 UNK        -0.5027 
     22 N          26.3100  -43.6949  -58.2898 N.am      10 UNK        -0.4495 
     23 C          25.3508  -44.4433  -57.7356 C.2       10 UNK         0.4903 
     24 O          24.3509  -43.9788  -57.1878 O.2       10 UNK        -0.4860 
     25 CA         25.5486  -45.9701  -57.7584 C.3       9 UNK         0.0227 
     26 CB         25.1051  -46.5789  -59.1030 C.3       9 UNK        -0.1964 
     27 N          26.8995  -46.4038  -57.3706 N.am      9 UNK        -0.4231 
     28 C          28.0595  -46.2600  -58.0321 C.2       9 UNK         0.5014 
     29 O          28.1590  -45.7379  -59.1429 O.2       9 UNK        -0.5270 
     30 CA         29.3230  -46.7803  -57.3331 C.3       8 UNK         0.0284 
     31 CB         29.7661  -45.8151  -56.2201 C.3       8 UNK        -0.1977 
     32 N          29.0818  -48.1018  -56.7550 N.am      8 UNK        -0.4342 
     33 C          29.6693  -49.2399  -57.1443 C.2       8 UNK         0.5039 
     34 O          30.5401  -49.2841  -58.0147 O.2       8 UNK        -0.5547 
     35 CA         29.2631  -50.5431  -56.4286 C.3       7 UNK         0.0281 
     36 CB         30.4989  -51.3273  -55.9548 C.3       7 UNK        -0.1963 
     37 N          28.4007  -50.2898  -55.2745 N.am      7 UNK        -0.4444 
     38 C          27.0621  -50.3523  -55.2807 C.2       7 UNK         0.5104 
     39 O          26.3959  -50.7190  -56.2482 O.2       7 UNK        -0.5100 
     40 CA         26.3395  -49.8894  -54.0005 C.3       6 UNK         0.0396 
     41 CB         25.9721  -51.0994  -53.1273 C.3       6 UNK        -0.1801 
     42 N          27.1158  -48.9355  -53.2000 N.am      6 UNK        -0.4747 
     43 C          27.4962  -47.7135  -53.6051 C.2       6 UNK         0.5012 
     44 O          27.1834  -47.2375  -54.6964 O.2       6 UNK        -0.5003 
     45 CA         28.4326  -46.9256  -52.6663 C.3       5 UNK         0.0782 
     46 C46        27.6011  -45.9729  -51.7741 C.3       11 UNK        -0.0868 
     47 S47        28.6250  -45.0116  -50.6114 S.3       11 UNK        -0.2515 
     48 C48        28.5847  -43.3454  -51.3526 C.3       11 UNK         0.0199 
     49 N          29.3028  -47.8183  -51.8863 N.am      5 UNK        -0.4607 
     50 C          30.2575  -48.6021  -52.4034 C.2       4 UNK         0.5031 
     51 O          30.5230  -48.6692  -53.6056 O.2       4 UNK        -0.5119 
     52 CA         30.9785  -49.5288  -51.4242 C.3       4 UNK         0.0263 
     53 CB         30.2917  -50.9078  -51.3950 C.3       4 UNK        -0.1967 
     54 N          32.3723  -49.6662  -51.8358 N.am      4 UNK        -0.4237 
     55 C          33.3725  -50.0655  -51.0393 C.2       3 UNK         0.4908 
     56 O          33.2080  -50.3769  -49.8580 O.2       3 UNK        -0.5102 
     57 CA         34.7976  -50.0968  -51.6328 C.3       3 UNK         0.0241 
     58 CB         35.6873  -51.1781  -50.9816 C.3       3 UNK        -0.1971 
     59 N          34.8490  -50.1922  -53.0971 N.am      3 UNK        -0.4139 
     60 C          34.4267  -51.1949  -53.8806 C.2       2 UNK         0.5016 
     61 O          33.8927  -52.2224  -53.4604 O.2       2 UNK        -0.5319 
     62 CA         34.6074  -50.9791  -55.3985 C.3       2 UNK         0.0286 
     63 CB         34.2486  -52.2288  -56.2239 C.3       2 UNK        -0.1963 
     64 N          33.8120  -49.8432  -55.8771 N.am      2 UNK        -0.4790 
     65 C          34.1093  -48.5525  -55.6685 C.2       1 UNK         0.5024 
     66 O          35.1517  -48.1841  -55.1222 O.2       1 UNK        -0.4888 
     67 H67        33.1400  -46.7533  -60.5780 H         1 UNK         0.0892 
     68 H68        33.8314  -48.3750  -60.4682 H         1 UNK         0.0892 
     69 H69        32.1546  -48.0955  -59.9945 H         1 UNK         0.0892 
     70 H70        31.9286  -48.1535  -57.8047 H         1 UNK         0.3107 
     71 H71        32.1216  -47.8414  -55.6602 H         1 UNK         0.0773 
     72 H72        34.3536  -45.7653  -55.9320 H         1 UNK         0.0680 
     73 H73        32.6794  -45.3841  -56.2245 H         1 UNK         0.0680 
     74 H74        33.5660  -43.5668  -54.5750 H         1 UNK         0.0650 
     75 H75        33.4665  -43.7204  -52.8408 H         1 UNK         0.0650 
     76 H76        31.1576  -44.1959  -51.7803 H         1 UNK         0.1397 
     77 H77        27.9158  -42.1575  -53.7107 H         1 UNK         0.1363 
     78 H78        31.6554  -42.6549  -55.7487 H         1 UNK         0.1355 
     79 H79        28.1761  -41.1675  -55.8218 H         1 UNK         0.0707 
     80 H80        29.8028  -40.6769  -56.2357 H         1 UNK         0.0707 
     81 H81        27.8916  -40.6344  -58.3451 H         1 UNK         0.1034 
     82 H82        28.0708  -41.8461  -59.5853 H         1 UNK         0.1034 
     83 H83        26.1387  -41.9341  -57.2284 H         1 UNK         0.0482 
     84 H84        24.7418  -43.1588  -60.1214 H         1 UNK         0.3460 
     85 H85        23.9535  -41.6751  -60.6023 H         1 UNK         0.3460 
     86 H86        27.0974  -44.1770  -58.7140 H         1 UNK         0.2989 
     87 H87        24.8910  -46.3785  -56.9892 H         1 UNK         0.0559 
     88 H88        24.0607  -46.3414  -59.3093 H         1 UNK         0.0848 
     89 H89        25.1942  -47.6652  -59.0938 H         1 UNK         0.0848 
     90 H90        25.6920  -46.2015  -59.9406 H         1 UNK         0.0848 
     91 H91        26.9566  -46.7606  -56.4180 H         1 UNK         0.3144 
     92 H92        30.1190  -46.8301  -58.0779 H         1 UNK         0.0727 
     93 H93        28.9257  -45.3768  -55.6804 H         1 UNK         0.0790 
     94 H94        30.3385  -44.9920  -56.6439 H         1 UNK         0.0790 
     95 H95        30.4024  -46.3011  -55.4828 H         1 UNK         0.0790 
     96 H96        28.3831  -48.1452  -56.0231 H         1 UNK         0.3215 
     97 H97        28.7354  -51.1566  -57.1619 H         1 UNK         0.0863 
     98 H98        30.2128  -52.2651  -55.4784 H         1 UNK         0.0808 
     99 H99        31.0917  -50.7586  -55.2381 H         1 UNK         0.0808 
    100 H100       31.1439  -51.5808  -56.7966 H         1 UNK         0.0808 
    101 H101       28.8675  -49.9391  -54.4472 H         1 UNK         0.3118 
    102 H102       25.4160  -49.3933  -54.3064 H         1 UNK         0.0546 
    103 H103       26.8585  -51.6270  -52.7725 H         1 UNK         0.0828 
    104 H104       25.3697  -51.8160  -53.6875 H         1 UNK         0.0828 
    105 H105       25.3874  -50.7997  -52.2575 H         1 UNK         0.0828 
    106 H106       27.4118  -49.2454  -52.2857 H         1 UNK         0.3005 
    107 H107       29.0806  -46.3149  -53.2996 H         1 UNK         0.1257 
    108 H108       26.8756  -46.5361  -51.1835 H         1 UNK         0.0775 
    109 H109       27.0184  -45.2860  -52.3915 H         1 UNK         0.0775 
    110 H110       27.5477  -43.0662  -51.5462 H         1 UNK         0.0840 
    111 H111       28.9565  -42.6331  -50.6149 H         1 UNK         0.0840 
    112 H112       29.1557  -47.8121  -50.8870 H         1 UNK         0.2987 
    113 H113       30.9447  -49.0813  -50.4283 H         1 UNK         0.0785 
    114 H114       29.2426  -50.8211  -51.1103 H         1 UNK         0.0798 
    115 H115       30.7653  -51.5738  -50.6736 H         1 UNK         0.0798 
    116 H116       30.3290  -51.3951  -52.3705 H         1 UNK         0.0798 
    117 H117       32.5621  -49.3942  -52.7912 H         1 UNK         0.3079 
    118 H118       35.2344  -49.1277  -51.3873 H         1 UNK         0.0794 
    119 H119       36.6943  -51.1681  -51.3987 H         1 UNK         0.0786 
    120 H120       35.2757  -52.1782  -51.1213 H         1 UNK         0.0786 
    121 H121       35.7835  -51.0145  -49.9076 H         1 UNK         0.0786 
    122 H122       35.2173  -49.3742  -53.5765 H         1 UNK         0.3032 
    123 H123       35.6648  -50.7642  -55.5713 H         1 UNK         0.1094 
    124 H124       33.2142  -52.5362  -56.0710 H         1 UNK         0.0794 
    125 H125       34.3964  -52.0586  -57.2905 H         1 UNK         0.0794 
    126 H126       34.8798  -53.0725  -55.9417 H         1 UNK         0.0794 
    127 H127       32.9465  -50.0668  -56.3466 H         1 UNK         0.3016 
@<TRIPOS>BOND
     1    1    2 1    
     2    1   67 1    
     3    1   68 1    
     4    1   69 1    
     5    2    3 2    
     6    2    4 am   BACKBONE|DICT|INTERRES
     7    4    5 1    
     8    4   70 1    
     9    5    6 1    
    10    5   65 1    
    11    5   71 1    
    12    6    7 1    
    13    6   72 1    
    14    6   73 1    
    15    7    8 1    
    16    8    9 1    
    17    8   74 1    
    18    8   75 1    
    19    9   10 ar   
    20    9   14 ar   
    21   10   11 ar   
    22   10   76 1    
    23   11   12 ar   
    24   11   48 1    
    25   12   13 ar   
    26   12   77 1    
    27   13   14 ar   
    28   13   15 1    
    29   14   78 1    
    30   15   16 1    
    31   15   79 1    
    32   15   80 1    
    33   16   17 1    
    34   17   18 1    
    35   17   81 1    
    36   17   82 1    
    37   18   19 1    
    38   18   22 1    
    39   18   83 1    
    40   19   20 am   BACKBONE|DICT|INTERRES
    41   19   21 2    
    42   20   84 1    
    43   20   85 1    
    44   22   23 am   BACKBONE|DICT|INTERRES
    45   22   86 1    
    46   23   24 2    
    47   23   25 1    
    48   25   26 1    
    49   25   27 1    
    50   25   87 1    
    51   26   88 1    
    52   26   89 1    
    53   26   90 1    
    54   27   28 am   BACKBONE|DICT|INTERRES
    55   27   91 1    
    56   28   29 2    
    57   28   30 1    
    58   30   31 1    
    59   30   32 1    
    60   30   92 1    
    61   31   93 1    
    62   31   94 1    
    63   31   95 1    
    64   32   33 am   BACKBONE|DICT|INTERRES
    65   32   96 1    
    66   33   34 2    
    67   33   35 1    
    68   35   36 1    
    69   35   37 1    
    70   35   97 1    
    71   36   98 1    
    72   36   99 1    
    73   36  100 1    
    74   37   38 am   BACKBONE|DICT|INTERRES
    75   37  101 1    
    76   38   39 2    
    77   38   40 1    
    78   40   41 1    
    79   40   42 1    
    80   40  102 1    
    81   41  103 1    
    82   41  104 1    
    83   41  105 1    
    84   42   43 am   BACKBONE|DICT|INTERRES
    85   42  106 1    
    86   43   44 2    
    87   43   45 1    
    88   45   46 1    
    89   45   49 1    
    90   45  107 1    
    91   46   47 1    
    92   46  108 1    
    93   46  109 1    
    94   47   48 1    
    95   48  110 1    
    96   48  111 1    
    97   49   50 am   BACKBONE|DICT|INTERRES
    98   49  112 1    
    99   50   51 2    
   100   50   52 1    
   101   52   53 1    
   102   52   54 1    
   103   52  113 1    
   104   53  114 1    
   105   53  115 1    
   106   53  116 1    
   107   54   55 am   BACKBONE|DICT|INTERRES
   108   54  117 1    
   109   55   56 2    
   110   55   57 1    
   111   57   58 1    
   112   57   59 1    
   113   57  118 1    
   114   58  119 1    
   115   58  120 1    
   116   58  121 1    
   117   59   60 am   BACKBONE|DICT|INTERRES
   118   59  122 1    
   119   60   61 2    
   120   60   62 1    
   121   62   63 1    
   122   62   64 1    
   123   62  123 1    
   124   63  124 1    
   125   63  125 1    
   126   63  126 1    
   127   64   65 am   BACKBONE|DICT|INTERRES
   128   64  127 1    
   129   65   66 2    
@<TRIPOS>SUBSTRUCTURE
     1 UNK         1 GROUP             0       ****    0 ROOT    
