@<TRIPOS>MOLECULE
3R134
127   129    1
SMALL
USER_CHARGES


@<TRIPOS>ATOM
      1 CA         33.2702  -45.3364  -55.4737 C.3       0 UNK        -0.1968 
      2 C          33.0666  -46.5365  -54.5657 C.2       0 UNK         0.4852 
      3 O          33.9584  -47.3779  -54.4595 O.2       0 UNK        -0.5359 
      4 N          31.9143  -46.6127  -53.8844 N.am      1 UNK        -0.4300 
      5 CA         31.5276  -47.7015  -52.9714 C.3       1 UNK         0.0863 
      6 C6         30.0321  -47.6326  -52.5652 C.3       11 UNK        -0.0953 
      7 S7         29.5195  -46.0214  -51.8707 S.3       11 UNK        -0.2369 
      8 C8         28.3258  -45.4264  -53.1116 C.3       11 UNK         0.0226 
      9 C9         29.0079  -45.0215  -54.4101 C.ar      11 UNK        -0.0699 
     10 C10        29.0205  -45.8917  -55.5041 C.ar      11 UNK        -0.0804 
     11 C11        29.6615  -45.5339  -56.6978 C.ar      11 UNK        -0.0871 
     12 C12        30.2460  -44.2674  -56.7950 C.ar      11 UNK        -0.1008 
     13 C13        30.2156  -43.3754  -55.7189 C.ar      11 UNK        -0.0735 
     14 C14        29.6034  -43.7627  -54.5247 C.ar      11 UNK        -0.0945 
     15 C15        30.8750  -42.0074  -55.8323 C.3       11 UNK         0.0169 
     16 S16        29.6713  -40.6779  -56.1583 S.3       11 UNK        -0.2669 
     17 C17        29.1529  -41.0423  -57.8737 C.3       11 UNK        -0.0850 
     18 CA         27.6418  -41.3726  -58.0098 C.3       10 UNK         0.0855 
     19 C          27.2836  -41.6732  -59.4950 C.2       10 UNK         0.5543 
     20 N          26.8991  -42.8900  -59.8596 N.am      10 UNK        -0.7343 
     21 O          27.3583  -40.7779  -60.3331 O.2       10 UNK        -0.5027 
     22 N          27.2151  -42.3994  -57.0482 N.am      10 UNK        -0.4495 
     23 C          25.9484  -42.6683  -56.7135 C.2       10 UNK         0.4903 
     24 O          24.9649  -42.0804  -57.1678 O.2       10 UNK        -0.4860 
     25 CA         25.7607  -43.7932  -55.6820 C.3       9 UNK         0.0227 
     26 CB         24.7498  -43.3922  -54.5943 C.3       9 UNK        -0.1964 
     27 N          25.3661  -45.0889  -56.2450 N.am      9 UNK        -0.4231 
     28 C          25.8069  -45.6921  -57.3586 C.2       9 UNK         0.5014 
     29 O          26.5872  -45.1910  -58.1689 O.2       9 UNK        -0.5270 
     30 CA         25.3107  -47.1344  -57.5688 C.3       8 UNK         0.0284 
     31 CB         25.6906  -47.7006  -58.9500 C.3       8 UNK        -0.1977 
     32 N          25.8291  -48.0271  -56.5285 N.am      8 UNK        -0.4342 
     33 C          25.3454  -48.1280  -55.2826 C.2       8 UNK         0.5039 
     34 O          24.4063  -47.4404  -54.8751 O.2       8 UNK        -0.5547 
     35 CA         26.0294  -49.1245  -54.3209 C.3       7 UNK         0.0281 
     36 CB         25.0283  -49.7516  -53.3280 C.3       7 UNK        -0.1963 
     37 N          26.8271  -50.1718  -54.9753 N.am      7 UNK        -0.4444 
     38 C          26.4180  -51.1074  -55.8449 C.2       7 UNK         0.5104 
     39 O          25.2592  -51.2024  -56.2515 O.2       7 UNK        -0.5100 
     40 CA         27.4987  -52.0846  -56.3608 C.3       6 UNK         0.0396 
     41 CB         27.0158  -52.9117  -57.5671 C.3       6 UNK        -0.1801 
     42 N          28.7533  -51.4118  -56.7221 N.am      6 UNK        -0.4747 
     43 C          29.6886  -50.9923  -55.8602 C.2       6 UNK         0.5012 
     44 O          29.5870  -51.1193  -54.6366 O.2       6 UNK        -0.5003 
     45 CA         30.9121  -50.2652  -56.4420 C.3       5 UNK         0.0782 
     46 C46        30.6983  -48.7289  -56.5190 C.3       11 UNK        -0.0868 
     47 S47        29.3373  -48.2183  -57.6221 S.3       11 UNK        -0.2515 
     48 C48        29.7381  -46.4597  -57.9162 C.3       11 UNK         0.0199 
     49 N          32.0359  -50.6387  -55.5858 N.am      5 UNK        -0.4607 
     50 C          33.3297  -50.4365  -55.8414 C.2       4 UNK         0.5031 
     51 O          33.7508  -49.8294  -56.8272 O.2       4 UNK        -0.5119 
     52 CA         34.3264  -51.0425  -54.8462 C.3       4 UNK         0.0263 
     53 CB         35.2342  -52.0665  -55.5621 C.3       4 UNK        -0.1967 
     54 N          35.1012  -49.9584  -54.2460 N.am      4 UNK        -0.4237 
     55 C          36.0120  -50.0771  -53.2705 C.2       3 UNK         0.4908 
     56 O          36.3169  -51.1430  -52.7343 O.2       3 UNK        -0.5102 
     57 CA         36.6812  -48.7823  -52.7907 C.3       3 UNK         0.0241 
     58 CB         37.3875  -48.0429  -53.9421 C.3       3 UNK        -0.1971 
     59 N          35.6774  -47.9111  -52.1850 N.am      3 UNK        -0.4139 
     60 C          35.5035  -47.7332  -50.8672 C.2       2 UNK         0.5016 
     61 O          36.2385  -48.2183  -50.0058 O.2       2 UNK        -0.5319 
     62 CA         34.3057  -46.8696  -50.4209 C.3       2 UNK         0.0286 
     63 CB         34.7624  -45.4354  -50.1087 C.3       2 UNK        -0.1963 
     64 N          33.2250  -46.8224  -51.4090 N.am      2 UNK        -0.4790 
     65 C          32.4537  -47.8665  -51.7462 C.2       1 UNK         0.5024 
     66 O          32.4855  -48.9487  -51.1596 O.2       1 UNK        -0.4888 
     67 H67        32.9046  -45.5584  -56.4757 H         1 UNK         0.0892 
     68 H68        32.7478  -44.4595  -55.0946 H         1 UNK         0.0892 
     69 H69        34.3291  -45.0892  -55.5440 H         1 UNK         0.0892 
     70 H70        31.2186  -45.8875  -54.0029 H         1 UNK         0.3107 
     71 H71        31.6571  -48.6283  -53.5329 H         1 UNK         0.0773 
     72 H72        29.7940  -48.4096  -51.8360 H         1 UNK         0.0680 
     73 H73        29.4102  -47.8658  -53.4287 H         1 UNK         0.0680 
     74 H74        27.5687  -46.1909  -53.2913 H         1 UNK         0.0650 
     75 H75        27.7933  -44.5678  -52.6999 H         1 UNK         0.0650 
     76 H76        28.5312  -46.8497  -55.4152 H         1 UNK         0.1397 
     77 H77        30.7362  -43.9783  -57.7146 H         1 UNK         0.1363 
     78 H78        29.5864  -43.0812  -53.6846 H         1 UNK         0.1355 
     79 H79        31.6371  -42.0086  -56.6133 H         1 UNK         0.0707 
     80 H80        31.3992  -41.7823  -54.9022 H         1 UNK         0.0707 
     81 H81        29.3979  -40.1688  -58.4811 H         1 UNK         0.1034 
     82 H82        29.7571  -41.8554  -58.2773 H         1 UNK         0.1034 
     83 H83        27.0928  -40.4649  -57.7516 H         1 UNK         0.0482 
     84 H84        26.8314  -43.6423  -59.1765 H         1 UNK         0.3460 
     85 H85        26.6697  -43.0679  -60.8237 H         1 UNK         0.3460 
     86 H86        27.9565  -42.9567  -56.6460 H         1 UNK         0.2989 
     87 H87        26.7155  -43.9462  -55.1846 H         1 UNK         0.0559 
     88 H88        24.7207  -44.1256  -53.7881 H         1 UNK         0.0848 
     89 H89        23.7408  -43.2965  -54.9976 H         1 UNK         0.0848 
     90 H90        25.0152  -42.4327  -54.1482 H         1 UNK         0.0848 
     91 H91        24.7661  -45.6596  -55.6556 H         1 UNK         0.3144 
     92 H92        24.2202  -47.1181  -57.5095 H         1 UNK         0.0727 
     93 H93        25.2952  -48.7070  -59.0889 H         1 UNK         0.0790 
     94 H94        26.7708  -47.7418  -59.0906 H         1 UNK         0.0790 
     95 H95        25.2840  -47.0794  -59.7491 H         1 UNK         0.0790 
     96 H96        26.6257  -48.5944  -56.7797 H         1 UNK         0.3215 
     97 H97        26.7367  -48.5324  -53.7387 H         1 UNK         0.0863 
     98 H98        25.5276  -50.4275  -52.6339 H         1 UNK         0.0808 
     99 H99        24.2484  -50.3139  -53.8425 H         1 UNK         0.0808 
    100 H100       24.5341  -48.9851  -52.7296 H         1 UNK         0.0808 
    101 H101       27.8024  -50.2269  -54.6974 H         1 UNK         0.3118 
    102 H102       27.7029  -52.7829  -55.5464 H         1 UNK         0.0546 
    103 H103       26.7641  -52.2764  -58.4172 H         1 UNK         0.0828 
    104 H104       26.1248  -53.4890  -57.3162 H         1 UNK         0.0828 
    105 H105       27.7755  -53.6229  -57.8915 H         1 UNK         0.0828 
    106 H106       28.8819  -51.2148  -57.7052 H         1 UNK         0.3005 
    107 H107       31.1093  -50.6533  -57.4439 H         1 UNK         0.1257 
    108 H108       30.4953  -48.3279  -55.5294 H         1 UNK         0.0775 
    109 H109       31.6110  -48.2409  -56.8625 H         1 UNK         0.0775 
    110 H110       30.7375  -46.4062  -58.3507 H         1 UNK         0.0840 
    111 H111       29.0555  -46.0798  -58.6771 H         1 UNK         0.0840 
    112 H112       31.7539  -51.1488  -54.7572 H         1 UNK         0.2987 
    113 H113       33.7786  -51.5508  -54.0501 H         1 UNK         0.0785 
    114 H114       35.8647  -52.6126  -54.8613 H         1 UNK         0.0798 
    115 H115       35.8852  -51.5840  -56.2922 H         1 UNK         0.0798 
    116 H116       34.6393  -52.8087  -56.0960 H         1 UNK         0.0798 
    117 H117       34.8536  -49.0253  -54.5750 H         1 UNK         0.3079 
    118 H118       37.4426  -49.0540  -52.0563 H         1 UNK         0.0794 
    119 H119       38.1102  -48.6928  -54.4373 H         1 UNK         0.0786 
    120 H120       37.9337  -47.1751  -53.5720 H         1 UNK         0.0786 
    121 H121       36.6879  -47.6925  -54.7016 H         1 UNK         0.0786 
    122 H122       34.9931  -47.5179  -52.8250 H         1 UNK         0.3032 
    123 H123       33.9096  -47.3132  -49.5044 H         1 UNK         0.1094 
    124 H124       33.9410  -44.8324  -49.7209 H         1 UNK         0.0794 
    125 H125       35.5488  -45.4328  -49.3525 H         1 UNK         0.0794 
    126 H126       35.1596  -44.9357  -50.9932 H         1 UNK         0.0794 
    127 H127       33.1190  -45.9658  -51.9329 H         1 UNK         0.3016 
@<TRIPOS>BOND
     1    1    2 1    
     2    1   67 1    
     3    1   68 1    
     4    1   69 1    
     5    2    3 2    
     6    2    4 am   BACKBONE|DICT|INTERRES
     7    4    5 1    
     8    4   70 1    
     9    5    6 1    
    10    5   65 1    
    11    5   71 1    
    12    6    7 1    
    13    6   72 1    
    14    6   73 1    
    15    7    8 1    
    16    8    9 1    
    17    8   74 1    
    18    8   75 1    
    19    9   10 ar   
    20    9   14 ar   
    21   10   11 ar   
    22   10   76 1    
    23   11   12 ar   
    24   11   48 1    
    25   12   13 ar   
    26   12   77 1    
    27   13   14 ar   
    28   13   15 1    
    29   14   78 1    
    30   15   16 1    
    31   15   79 1    
    32   15   80 1    
    33   16   17 1    
    34   17   18 1    
    35   17   81 1    
    36   17   82 1    
    37   18   19 1    
    38   18   22 1    
    39   18   83 1    
    40   19   20 am   BACKBONE|DICT|INTERRES
    41   19   21 2    
    42   20   84 1    
    43   20   85 1    
    44   22   23 am   BACKBONE|DICT|INTERRES
    45   22   86 1    
    46   23   24 2    
    47   23   25 1    
    48   25   26 1    
    49   25   27 1    
    50   25   87 1    
    51   26   88 1    
    52   26   89 1    
    53   26   90 1    
    54   27   28 am   BACKBONE|DICT|INTERRES
    55   27   91 1    
    56   28   29 2    
    57   28   30 1    
    58   30   31 1    
    59   30   32 1    
    60   30   92 1    
    61   31   93 1    
    62   31   94 1    
    63   31   95 1    
    64   32   33 am   BACKBONE|DICT|INTERRES
    65   32   96 1    
    66   33   34 2    
    67   33   35 1    
    68   35   36 1    
    69   35   37 1    
    70   35   97 1    
    71   36   98 1    
    72   36   99 1    
    73   36  100 1    
    74   37   38 am   BACKBONE|DICT|INTERRES
    75   37  101 1    
    76   38   39 2    
    77   38   40 1    
    78   40   41 1    
    79   40   42 1    
    80   40  102 1    
    81   41  103 1    
    82   41  104 1    
    83   41  105 1    
    84   42   43 am   BACKBONE|DICT|INTERRES
    85   42  106 1    
    86   43   44 2    
    87   43   45 1    
    88   45   46 1    
    89   45   49 1    
    90   45  107 1    
    91   46   47 1    
    92   46  108 1    
    93   46  109 1    
    94   47   48 1    
    95   48  110 1    
    96   48  111 1    
    97   49   50 am   BACKBONE|DICT|INTERRES
    98   49  112 1    
    99   50   51 2    
   100   50   52 1    
   101   52   53 1    
   102   52   54 1    
   103   52  113 1    
   104   53  114 1    
   105   53  115 1    
   106   53  116 1    
   107   54   55 am   BACKBONE|DICT|INTERRES
   108   54  117 1    
   109   55   56 2    
   110   55   57 1    
   111   57   58 1    
   112   57   59 1    
   113   57  118 1    
   114   58  119 1    
   115   58  120 1    
   116   58  121 1    
   117   59   60 am   BACKBONE|DICT|INTERRES
   118   59  122 1    
   119   60   61 2    
   120   60   62 1    
   121   62   63 1    
   122   62   64 1    
   123   62  123 1    
   124   63  124 1    
   125   63  125 1    
   126   63  126 1    
   127   64   65 am   BACKBONE|DICT|INTERRES
   128   64  127 1    
   129   65   66 2    
@<TRIPOS>SUBSTRUCTURE
     1 UNK         1 GROUP             0       ****    0 ROOT    
