@<TRIPOS>MOLECULE
3R134
127   129    1
SMALL
USER_CHARGES


@<TRIPOS>ATOM
      1 CA         36.6106  -47.2048  -55.5130 C.3       0 UNK        -0.1968 
      2 C          35.5779  -46.8765  -54.4465 C.2       0 UNK         0.4852 
      3 O          34.8336  -47.7639  -54.0261 O.2       0 UNK        -0.5359 
      4 N          35.5214  -45.6151  -53.9998 N.am      1 UNK        -0.4300 
      5 CA         34.5787  -45.1280  -52.9877 C.3       1 UNK         0.0863 
      6 C6         34.6892  -43.6010  -52.7627 C.3       11 UNK        -0.0953 
      7 S7         34.3534  -42.6399  -54.2765 S.3       11 UNK        -0.2369 
      8 C8         32.6398  -42.0906  -53.9994 C.3       11 UNK         0.0226 
      9 C9         31.6360  -43.2003  -54.2765 C.ar      11 UNK        -0.0699 
     10 C10        31.1884  -44.0295  -53.2421 C.ar      11 UNK        -0.0804 
     11 C11        30.2615  -45.0451  -53.4977 C.ar      11 UNK        -0.0871 
     12 C12        29.7575  -45.2016  -54.7906 C.ar      11 UNK        -0.1008 
     13 C13        30.1985  -44.3841  -55.8331 C.ar      11 UNK        -0.0735 
     14 C14        31.1441  -43.3888  -55.5721 C.ar      11 UNK        -0.0945 
     15 C15        29.6613  -44.5943  -57.2410 C.3       11 UNK         0.0169 
     16 S16        28.6099  -43.2261  -57.8168 S.3       11 UNK        -0.2669 
     17 C17        27.3262  -43.1211  -56.5191 C.3       11 UNK        -0.0850 
     18 CA         26.4393  -44.3924  -56.3375 C.3       10 UNK         0.0855 
     19 C          25.3563  -44.2255  -55.2325 C.2       10 UNK         0.5543 
     20 N          24.5028  -45.2196  -55.0250 N.am      10 UNK        -0.7343 
     21 O          25.2840  -43.2034  -54.5538 O.2       10 UNK        -0.5027 
     22 N          25.8842  -44.9395  -57.5854 N.am      10 UNK        -0.4495 
     23 C          25.1074  -44.2864  -58.4602 C.2       10 UNK         0.4903 
     24 O          24.8209  -43.0911  -58.3899 O.2       10 UNK        -0.4860 
     25 CA         24.5209  -45.1345  -59.5994 C.3       9 UNK         0.0227 
     26 CB         25.5757  -45.4089  -60.6843 C.3       9 UNK        -0.1964 
     27 N          23.9647  -46.3928  -59.0912 N.am      9 UNK        -0.4231 
     28 C          22.8242  -46.4596  -58.3846 C.2       9 UNK         0.5014 
     29 O          22.0921  -45.4885  -58.1862 O.2       9 UNK        -0.5270 
     30 CA         22.4007  -47.8196  -57.7988 C.3       8 UNK         0.0284 
     31 CB         21.2320  -48.4106  -58.6057 C.3       8 UNK        -0.1977 
     32 N          23.4673  -48.8182  -57.7112 N.am      8 UNK        -0.4342 
     33 C          24.5469  -48.7479  -56.9221 C.2       8 UNK         0.5039 
     34 O          24.8032  -47.7836  -56.1984 O.2       8 UNK        -0.5547 
     35 CA         25.5158  -49.9489  -56.9540 C.3       7 UNK         0.0281 
     36 CB         25.0820  -51.0865  -57.9071 C.3       7 UNK        -0.1963 
     37 N          26.8989  -49.5662  -57.2556 N.am      7 UNK        -0.4444 
     38 C          27.3403  -48.7852  -58.2500 C.2       7 UNK         0.5104 
     39 O          26.5979  -48.1797  -59.0263 O.2       7 UNK        -0.5100 
     40 CA         28.8733  -48.6800  -58.4091 C.3       6 UNK         0.0396 
     41 CB         29.2798  -47.6699  -59.4996 C.3       6 UNK        -0.1801 
     42 N          29.5879  -48.3635  -57.1635 N.am      6 UNK        -0.4747 
     43 C          29.8266  -49.2184  -56.1580 C.2       6 UNK         0.5012 
     44 O          29.3833  -50.3692  -56.1239 O.2       6 UNK        -0.5003 
     45 CA         30.6824  -48.7048  -54.9806 C.3       5 UNK         0.0782 
     46 C46        29.7953  -48.4735  -53.7314 C.3       11 UNK        -0.0868 
     47 S47        30.6763  -47.5666  -52.4146 S.3       11 UNK        -0.2515 
     48 C48        29.7979  -45.9685  -52.3801 C.3       11 UNK         0.0199 
     49 N          31.7758  -49.6374  -54.6876 N.am      5 UNK        -0.4607 
     50 C          32.7537  -49.9861  -55.5339 C.2       4 UNK         0.5031 
     51 O          32.8962  -49.5014  -56.6578 O.2       4 UNK        -0.5119 
     52 CA         33.7549  -51.0207  -55.0029 C.3       4 UNK         0.0263 
     53 CB         34.8054  -51.4454  -56.0484 C.3       4 UNK        -0.1967 
     54 N          34.4205  -50.4536  -53.8358 N.am      4 UNK        -0.4237 
     55 C          34.8832  -51.1382  -52.7843 C.2       3 UNK         0.4908 
     56 O          34.7828  -52.3598  -52.6648 O.2       3 UNK        -0.5102 
     57 CA         35.5657  -50.3286  -51.6726 C.3       3 UNK         0.0241 
     58 CB         37.0116  -49.9782  -52.0638 C.3       3 UNK        -0.1971 
     59 N          34.8269  -49.0980  -51.3756 N.am      3 UNK        -0.4139 
     60 C          34.3773  -48.7447  -50.1628 C.2       2 UNK         0.5016 
     61 O          34.5568  -49.4228  -49.1492 O.2       2 UNK        -0.5319 
     62 CA         33.5688  -47.4337  -50.0474 C.3       2 UNK         0.0286 
     63 CB         33.8688  -46.6646  -48.7425 C.3       2 UNK        -0.1963 
     64 N          33.6674  -46.5529  -51.2200 N.am      2 UNK        -0.4790 
     65 C          34.7472  -45.8884  -51.6570 C.2       1 UNK         0.5024 
     66 O          35.8396  -45.8790  -51.0864 O.2       1 UNK        -0.4888 
     67 H67        37.3229  -47.9363  -55.1331 H         1 UNK         0.0892 
     68 H68        36.1193  -47.6303  -56.3878 H         1 UNK         0.0892 
     69 H69        37.1645  -46.3214  -55.8300 H         1 UNK         0.0892 
     70 H70        36.1591  -44.9238  -54.3670 H         1 UNK         0.3107 
     71 H71        33.5818  -45.3423  -53.3763 H         1 UNK         0.0773 
     72 H72        34.0075  -43.2762  -51.9747 H         1 UNK         0.0680 
     73 H73        35.6910  -43.3397  -52.4161 H         1 UNK         0.0680 
     74 H74        32.4372  -41.2443  -54.6575 H         1 UNK         0.0650 
     75 H75        32.5270  -41.7121  -52.9824 H         1 UNK         0.0650 
     76 H76        31.5688  -43.8883  -52.2397 H         1 UNK         0.1397 
     77 H77        29.0250  -45.9686  -54.9887 H         1 UNK         0.1363 
     78 H78        31.4884  -42.7541  -56.3773 H         1 UNK         0.1355 
     79 H79        30.4969  -44.7134  -57.9322 H         1 UNK         0.0707 
     80 H80        29.0824  -45.5151  -57.2960 H         1 UNK         0.0707 
     81 H81        26.7003  -42.2577  -56.7497 H         1 UNK         0.1034 
     82 H82        27.8183  -42.8740  -55.5766 H         1 UNK         0.1034 
     83 H83        27.0890  -45.1775  -55.9558 H         1 UNK         0.0482 
     84 H84        24.5914  -46.0996  -55.5314 H         1 UNK         0.3460 
     85 H85        23.7971  -45.1217  -54.3136 H         1 UNK         0.3460 
     86 H86        26.0084  -45.9334  -57.7174 H         1 UNK         0.2989 
     87 H87        23.7119  -44.5657  -60.0631 H         1 UNK         0.0559 
     88 H88        26.4529  -45.9188  -60.2864 H         1 UNK         0.0848 
     89 H89        25.9233  -44.4749  -61.1276 H         1 UNK         0.0848 
     90 H90        25.1693  -46.0190  -61.4909 H         1 UNK         0.0848 
     91 H91        24.5371  -47.2236  -59.1868 H         1 UNK         0.3144 
     92 H92        22.0493  -47.6292  -56.7824 H         1 UNK         0.0727 
     93 H93        20.8519  -49.3234  -58.1464 H         1 UNK         0.0790 
     94 H94        21.5261  -48.6446  -59.6297 H         1 UNK         0.0790 
     95 H95        20.3987  -47.7083  -58.6593 H         1 UNK         0.0790 
     96 H96        23.3605  -49.6404  -58.2877 H         1 UNK         0.3215 
     97 H97        25.5228  -50.3511  -55.9399 H         1 UNK         0.0863 
     98 H98        25.0618  -50.7640  -58.9491 H         1 UNK         0.0808 
     99 H99        24.0943  -51.4718  -57.6501 H         1 UNK         0.0808 
    100 H100       25.7705  -51.9294  -57.8425 H         1 UNK         0.0808 
    101 H101       27.6161  -49.9945  -56.6756 H         1 UNK         0.3118 
    102 H102       29.2135  -49.6624  -58.7434 H         1 UNK         0.0546 
    103 H103       28.9026  -46.6687  -59.2936 H         1 UNK         0.0828 
    104 H104       28.8780  -47.9667  -60.4694 H         1 UNK         0.0828 
    105 H105       30.3627  -47.6101  -59.6081 H         1 UNK         0.0828 
    106 H106       29.9912  -47.4403  -57.1135 H         1 UNK         0.3005 
    107 H107       31.1388  -47.7561  -55.2718 H         1 UNK         0.1257 
    108 H108       29.4656  -49.4295  -53.3197 H         1 UNK         0.0775 
    109 H109       28.8771  -47.9425  -53.9846 H         1 UNK         0.0775 
    110 H110       28.7204  -46.1289  -52.4414 H         1 UNK         0.0840 
    111 H111       29.9736  -45.4985  -51.4111 H         1 UNK         0.0840 
    112 H112       31.7482  -50.0739  -53.7782 H         1 UNK         0.2987 
    113 H113       33.1805  -51.9019  -54.7088 H         1 UNK         0.0785 
    114 H114       35.4691  -52.2149  -55.6539 H         1 UNK         0.0798 
    115 H115       34.3272  -51.8552  -56.9389 H         1 UNK         0.0798 
    116 H116       35.4210  -50.6020  -56.3637 H         1 UNK         0.0798 
    117 H117       34.5504  -49.4400  -53.8735 H         1 UNK         0.3079 
    118 H118       35.6028  -50.9717  -50.7908 H         1 UNK         0.0794 
    119 H119       37.5251  -49.4639  -51.2512 H         1 UNK         0.0786 
    120 H120       37.0497  -49.3338  -52.9424 H         1 UNK         0.0786 
    121 H121       37.5841  -50.8782  -52.2921 H         1 UNK         0.0786 
    122 H122       34.6440  -48.4793  -52.1591 H         1 UNK         0.3032 
    123 H123       32.5248  -47.7473  -49.9988 H         1 UNK         0.1094 
    124 H124       34.9224  -46.3971  -48.6596 H         1 UNK         0.0794 
    125 H125       33.2822  -45.7483  -48.6774 H         1 UNK         0.0794 
    126 H126       33.6208  -47.2671  -47.8678 H         1 UNK         0.0794 
    127 H127       32.8323  -46.5266  -51.7925 H         1 UNK         0.3016 
@<TRIPOS>BOND
     1    1    2 1    
     2    1   67 1    
     3    1   68 1    
     4    1   69 1    
     5    2    3 2    
     6    2    4 am   BACKBONE|DICT|INTERRES
     7    4    5 1    
     8    4   70 1    
     9    5    6 1    
    10    5   65 1    
    11    5   71 1    
    12    6    7 1    
    13    6   72 1    
    14    6   73 1    
    15    7    8 1    
    16    8    9 1    
    17    8   74 1    
    18    8   75 1    
    19    9   10 ar   
    20    9   14 ar   
    21   10   11 ar   
    22   10   76 1    
    23   11   12 ar   
    24   11   48 1    
    25   12   13 ar   
    26   12   77 1    
    27   13   14 ar   
    28   13   15 1    
    29   14   78 1    
    30   15   16 1    
    31   15   79 1    
    32   15   80 1    
    33   16   17 1    
    34   17   18 1    
    35   17   81 1    
    36   17   82 1    
    37   18   19 1    
    38   18   22 1    
    39   18   83 1    
    40   19   20 am   BACKBONE|DICT|INTERRES
    41   19   21 2    
    42   20   84 1    
    43   20   85 1    
    44   22   23 am   BACKBONE|DICT|INTERRES
    45   22   86 1    
    46   23   24 2    
    47   23   25 1    
    48   25   26 1    
    49   25   27 1    
    50   25   87 1    
    51   26   88 1    
    52   26   89 1    
    53   26   90 1    
    54   27   28 am   BACKBONE|DICT|INTERRES
    55   27   91 1    
    56   28   29 2    
    57   28   30 1    
    58   30   31 1    
    59   30   32 1    
    60   30   92 1    
    61   31   93 1    
    62   31   94 1    
    63   31   95 1    
    64   32   33 am   BACKBONE|DICT|INTERRES
    65   32   96 1    
    66   33   34 2    
    67   33   35 1    
    68   35   36 1    
    69   35   37 1    
    70   35   97 1    
    71   36   98 1    
    72   36   99 1    
    73   36  100 1    
    74   37   38 am   BACKBONE|DICT|INTERRES
    75   37  101 1    
    76   38   39 2    
    77   38   40 1    
    78   40   41 1    
    79   40   42 1    
    80   40  102 1    
    81   41  103 1    
    82   41  104 1    
    83   41  105 1    
    84   42   43 am   BACKBONE|DICT|INTERRES
    85   42  106 1    
    86   43   44 2    
    87   43   45 1    
    88   45   46 1    
    89   45   49 1    
    90   45  107 1    
    91   46   47 1    
    92   46  108 1    
    93   46  109 1    
    94   47   48 1    
    95   48  110 1    
    96   48  111 1    
    97   49   50 am   BACKBONE|DICT|INTERRES
    98   49  112 1    
    99   50   51 2    
   100   50   52 1    
   101   52   53 1    
   102   52   54 1    
   103   52  113 1    
   104   53  114 1    
   105   53  115 1    
   106   53  116 1    
   107   54   55 am   BACKBONE|DICT|INTERRES
   108   54  117 1    
   109   55   56 2    
   110   55   57 1    
   111   57   58 1    
   112   57   59 1    
   113   57  118 1    
   114   58  119 1    
   115   58  120 1    
   116   58  121 1    
   117   59   60 am   BACKBONE|DICT|INTERRES
   118   59  122 1    
   119   60   61 2    
   120   60   62 1    
   121   62   63 1    
   122   62   64 1    
   123   62  123 1    
   124   63  124 1    
   125   63  125 1    
   126   63  126 1    
   127   64   65 am   BACKBONE|DICT|INTERRES
   128   64  127 1    
   129   65   66 2    
@<TRIPOS>SUBSTRUCTURE
     1 UNK         1 GROUP             0       ****    0 ROOT    
