@<TRIPOS>MOLECULE
3R134
127   129    1
SMALL
USER_CHARGES


@<TRIPOS>ATOM
      1 CA         37.9870  -49.4530  -55.1808 C.3       0 UNK        -0.1968 
      2 C          36.4910  -49.3131  -54.9439 C.2       0 UNK         0.4852 
      3 O          35.9231  -50.0778  -54.1633 O.2       0 UNK        -0.5359 
      4 N          35.8517  -48.3330  -55.5996 N.am      1 UNK        -0.4300 
      5 CA         34.4140  -48.0341  -55.5161 C.3       1 UNK         0.0863 
      6 C6         34.0070  -46.8941  -56.4853 C.3       11 UNK        -0.0953 
      7 S7         34.8856  -45.3198  -56.1649 S.3       11 UNK        -0.2369 
      8 C8         33.7049  -44.0678  -56.7603 C.3       11 UNK         0.0226 
      9 C9         32.3569  -44.1150  -56.0503 C.ar      11 UNK        -0.0699 
     10 C10        32.2615  -43.8974  -54.6707 C.ar      11 UNK        -0.0804 
     11 C11        31.0143  -43.9087  -54.0359 C.ar      11 UNK        -0.0871 
     12 C12        29.8613  -44.1298  -54.7956 C.ar      11 UNK        -0.1008 
     13 C13        29.9446  -44.3752  -56.1678 C.ar      11 UNK        -0.0735 
     14 C14        31.1955  -44.3577  -56.7897 C.ar      11 UNK        -0.0945 
     15 C15        28.6961  -44.6938  -56.9781 C.3       11 UNK         0.0169 
     16 S16        27.6622  -43.2282  -57.2788 S.3       11 UNK        -0.2669 
     17 C17        26.4703  -43.2860  -55.8878 C.3       11 UNK        -0.0850 
     18 CA         25.0326  -43.6930  -56.3088 C.3       10 UNK         0.0855 
     19 C          24.3445  -42.5991  -57.1807 C.2       10 UNK         0.5543 
     20 N          24.0650  -42.8395  -58.4575 N.am      10 UNK        -0.7343 
     21 O          24.0486  -41.5167  -56.6805 O.2       10 UNK        -0.5027 
     22 N          25.0092  -45.0434  -56.8865 N.am      10 UNK        -0.4495 
     23 C          23.9165  -45.8020  -57.0408 C.2       10 UNK         0.4903 
     24 O          22.8210  -45.5193  -56.5536 O.2       10 UNK        -0.4860 
     25 CA         24.0656  -47.0905  -57.8825 C.3       9 UNK         0.0227 
     26 CB         22.7984  -47.3862  -58.7119 C.3       9 UNK        -0.1964 
     27 N          25.2595  -47.1344  -58.7439 N.am      9 UNK        -0.4231 
     28 C          25.6094  -46.2623  -59.7066 C.2       9 UNK         0.5014 
     29 O          24.9405  -45.2699  -60.0001 O.2       9 UNK        -0.5270 
     30 CA         26.9578  -46.5071  -60.4076 C.3       8 UNK         0.0284 
     31 CB         27.5802  -45.2152  -60.9723 C.3       8 UNK        -0.1977 
     32 N          27.9001  -47.1417  -59.4847 N.am      8 UNK        -0.4342 
     33 C          28.7147  -48.1600  -59.7748 C.2       8 UNK         0.5039 
     34 O          28.8507  -48.6338  -60.9034 O.2       8 UNK        -0.5547 
     35 CA         29.5007  -48.7725  -58.5982 C.3       7 UNK         0.0281 
     36 CB         30.9045  -48.1483  -58.5128 C.3       7 UNK        -0.1963 
     37 N          28.8607  -48.6839  -57.2750 N.am      7 UNK        -0.4444 
     38 C          27.6244  -49.0934  -56.9455 C.2       7 UNK         0.5104 
     39 O          26.7832  -49.4553  -57.7682 O.2       7 UNK        -0.5100 
     40 CA         27.2453  -49.0918  -55.4534 C.3       6 UNK         0.0396 
     41 CB         26.8642  -50.5098  -54.9951 C.3       6 UNK        -0.1801 
     42 N          28.3296  -48.6033  -54.5964 N.am      6 UNK        -0.4747 
     43 C          28.3604  -47.4114  -53.9830 C.2       6 UNK         0.5012 
     44 O          27.4695  -46.5694  -54.1009 O.2       6 UNK        -0.5003 
     45 CA         29.6191  -47.1025  -53.1357 C.3       5 UNK         0.0782 
     46 C46        29.3912  -46.0227  -52.0398 C.3       11 UNK        -0.0868 
     47 S47        30.9622  -45.2220  -51.5729 S.3       11 UNK        -0.2515 
     48 C48        30.9046  -43.6706  -52.5340 C.3       11 UNK         0.0199 
     49 N          30.2894  -48.3125  -52.6352 N.am      5 UNK        -0.4607 
     50 C          29.7795  -49.2186  -51.7873 C.2       4 UNK         0.5031 
     51 O          28.6680  -49.1194  -51.2682 O.2       4 UNK        -0.5119 
     52 CA         30.6208  -50.4674  -51.4915 C.3       4 UNK         0.0263 
     53 CB         30.3533  -51.5600  -52.5420 C.3       4 UNK        -0.1967 
     54 N          32.0585  -50.1898  -51.4236 N.am      4 UNK        -0.4237 
     55 C          32.8892  -50.7442  -50.5273 C.2       3 UNK         0.4908 
     56 O          32.5257  -51.5461  -49.6653 O.2       3 UNK        -0.5102 
     57 CA         34.3826  -50.3675  -50.5923 C.3       3 UNK         0.0241 
     58 CB         35.1970  -51.5159  -51.2098 C.3       3 UNK        -0.1971 
     59 N          34.6484  -49.1355  -51.3373 N.am      3 UNK        -0.4139 
     60 C          34.3198  -47.9061  -50.9127 C.2       2 UNK         0.5016 
     61 O          33.8329  -47.6796  -49.8046 O.2       2 UNK        -0.5319 
     62 CA         34.5540  -46.7280  -51.8774 C.3       2 UNK         0.0286 
     63 CB         35.7321  -45.8638  -51.3999 C.3       2 UNK        -0.1963 
     64 N          34.7833  -47.1056  -53.2743 N.am      2 UNK        -0.4790 
     65 C          33.9274  -47.7557  -54.0770 C.2       1 UNK         0.5024 
     66 O          32.8281  -48.1757  -53.7123 O.2       1 UNK        -0.4888 
     67 H67        38.5274  -49.3348  -54.2420 H         1 UNK         0.0892 
     68 H68        38.2113  -50.4413  -55.5811 H         1 UNK         0.0892 
     69 H69        38.3607  -48.7090  -55.8839 H         1 UNK         0.0892 
     70 H70        36.3779  -47.7270  -56.2135 H         1 UNK         0.3107 
     71 H71        33.8946  -48.9381  -55.8411 H         1 UNK         0.0773 
     72 H72        34.2140  -47.1921  -57.5142 H         1 UNK         0.0680 
     73 H73        32.9286  -46.7362  -56.4385 H         1 UNK         0.0680 
     74 H74        33.5831  -44.1929  -57.8373 H         1 UNK         0.0650 
     75 H75        34.1431  -43.0795  -56.6158 H         1 UNK         0.0650 
     76 H76        33.1591  -43.7193  -54.0941 H         1 UNK         0.1397 
     77 H77        28.8964  -44.1322  -54.3125 H         1 UNK         0.1363 
     78 H78        31.2662  -44.5333  -57.8544 H         1 UNK         0.1355 
     79 H79        28.1170  -45.4746  -56.4850 H         1 UNK         0.0707 
     80 H80        28.9871  -45.0969  -57.9480 H         1 UNK         0.0707 
     81 H81        26.8218  -43.9799  -55.1246 H         1 UNK         0.1034 
     82 H82        26.4612  -42.3078  -55.4034 H         1 UNK         0.1034 
     83 H83        24.4435  -43.7405  -55.3908 H         1 UNK         0.0482 
     84 H84        24.3303  -43.7174  -58.8923 H         1 UNK         0.3460 
     85 H85        23.6159  -42.1247  -59.0067 H         1 UNK         0.3460 
     86 H86        25.8566  -45.3299  -57.3473 H         1 UNK         0.2989 
     87 H87        24.1865  -47.9028  -57.1643 H         1 UNK         0.0559 
     88 H88        21.9239  -47.5000  -58.0701 H         1 UNK         0.0848 
     89 H89        22.9018  -48.3113  -59.2789 H         1 UNK         0.0848 
     90 H90        22.5812  -46.5830  -59.4169 H         1 UNK         0.0848 
     91 H91        25.8557  -47.9458  -58.5961 H         1 UNK         0.3144 
     92 H92        26.7473  -47.1810  -61.2408 H         1 UNK         0.0727 
     93 H93        27.7571  -44.4770  -60.1895 H         1 UNK         0.0790 
     94 H94        26.9251  -44.7550  -61.7131 H         1 UNK         0.0790 
     95 H95        28.5315  -45.4164  -61.4650 H         1 UNK         0.0790 
     96 H96        27.8610  -46.8390  -58.5242 H         1 UNK         0.3215 
     97 H97        29.6155  -49.8354  -58.8208 H         1 UNK         0.0863 
     98 H98        31.5272  -48.6653  -57.7824 H         1 UNK         0.0808 
     99 H99        30.8628  -47.0948  -58.2348 H         1 UNK         0.0808 
    100 H100       31.4199  -48.2107  -59.4725 H         1 UNK         0.0808 
    101 H101       29.4565  -48.3861  -56.5176 H         1 UNK         0.3118 
    102 H102       26.3633  -48.4565  -55.3495 H         1 UNK         0.0546 
    103 H103       27.6921  -51.2104  -55.1110 H         1 UNK         0.0828 
    104 H104       26.0249  -50.8982  -55.5738 H         1 UNK         0.0828 
    105 H105       26.5628  -50.5185  -53.9474 H         1 UNK         0.0828 
    106 H106       29.0945  -49.2412  -54.4278 H         1 UNK         0.3005 
    107 H107       30.3167  -46.6857  -53.8632 H         1 UNK         0.1257 
    108 H108       28.6949  -45.2459  -52.3549 H         1 UNK         0.0775 
    109 H109       28.9427  -46.4618  -51.1481 H         1 UNK         0.0775 
    110 H110       29.9853  -43.1305  -52.3019 H         1 UNK         0.0840 
    111 H111       31.7207  -43.0264  -52.2033 H         1 UNK         0.0840 
    112 H112       31.2236  -48.4451  -53.0162 H         1 UNK         0.2987 
    113 H113       30.2751  -50.8375  -50.5235 H         1 UNK         0.0785 
    114 H114       29.2859  -51.7689  -52.6292 H         1 UNK         0.0798 
    115 H115       30.8434  -52.4952  -52.2706 H         1 UNK         0.0798 
    116 H116       30.7139  -51.2690  -53.5292 H         1 UNK         0.0798 
    117 H117       32.4373  -49.5273  -52.0893 H         1 UNK         0.3079 
    118 H118       34.7257  -50.2213  -49.5658 H         1 UNK         0.0794 
    119 H119       36.2620  -51.2838  -51.2294 H         1 UNK         0.0786 
    120 H120       34.8815  -51.7284  -52.2321 H         1 UNK         0.0786 
    121 H121       35.0762  -52.4347  -50.6343 H         1 UNK         0.0786 
    122 H122       35.0495  -49.2414  -52.2625 H         1 UNK         0.3032 
    123 H123       33.6520  -46.1164  -51.8525 H         1 UNK         0.1094 
    124 H124       36.6732  -46.4145  -51.4272 H         1 UNK         0.0794 
    125 H125       35.8449  -44.9711  -52.0156 H         1 UNK         0.0794 
    126 H126       35.5802  -45.5278  -50.3730 H         1 UNK         0.0794 
    127 H127       35.6622  -46.8150  -53.6782 H         1 UNK         0.3016 
@<TRIPOS>BOND
     1    1    2 1    
     2    1   67 1    
     3    1   68 1    
     4    1   69 1    
     5    2    3 2    
     6    2    4 am   BACKBONE|DICT|INTERRES
     7    4    5 1    
     8    4   70 1    
     9    5    6 1    
    10    5   65 1    
    11    5   71 1    
    12    6    7 1    
    13    6   72 1    
    14    6   73 1    
    15    7    8 1    
    16    8    9 1    
    17    8   74 1    
    18    8   75 1    
    19    9   10 ar   
    20    9   14 ar   
    21   10   11 ar   
    22   10   76 1    
    23   11   12 ar   
    24   11   48 1    
    25   12   13 ar   
    26   12   77 1    
    27   13   14 ar   
    28   13   15 1    
    29   14   78 1    
    30   15   16 1    
    31   15   79 1    
    32   15   80 1    
    33   16   17 1    
    34   17   18 1    
    35   17   81 1    
    36   17   82 1    
    37   18   19 1    
    38   18   22 1    
    39   18   83 1    
    40   19   20 am   BACKBONE|DICT|INTERRES
    41   19   21 2    
    42   20   84 1    
    43   20   85 1    
    44   22   23 am   BACKBONE|DICT|INTERRES
    45   22   86 1    
    46   23   24 2    
    47   23   25 1    
    48   25   26 1    
    49   25   27 1    
    50   25   87 1    
    51   26   88 1    
    52   26   89 1    
    53   26   90 1    
    54   27   28 am   BACKBONE|DICT|INTERRES
    55   27   91 1    
    56   28   29 2    
    57   28   30 1    
    58   30   31 1    
    59   30   32 1    
    60   30   92 1    
    61   31   93 1    
    62   31   94 1    
    63   31   95 1    
    64   32   33 am   BACKBONE|DICT|INTERRES
    65   32   96 1    
    66   33   34 2    
    67   33   35 1    
    68   35   36 1    
    69   35   37 1    
    70   35   97 1    
    71   36   98 1    
    72   36   99 1    
    73   36  100 1    
    74   37   38 am   BACKBONE|DICT|INTERRES
    75   37  101 1    
    76   38   39 2    
    77   38   40 1    
    78   40   41 1    
    79   40   42 1    
    80   40  102 1    
    81   41  103 1    
    82   41  104 1    
    83   41  105 1    
    84   42   43 am   BACKBONE|DICT|INTERRES
    85   42  106 1    
    86   43   44 2    
    87   43   45 1    
    88   45   46 1    
    89   45   49 1    
    90   45  107 1    
    91   46   47 1    
    92   46  108 1    
    93   46  109 1    
    94   47   48 1    
    95   48  110 1    
    96   48  111 1    
    97   49   50 am   BACKBONE|DICT|INTERRES
    98   49  112 1    
    99   50   51 2    
   100   50   52 1    
   101   52   53 1    
   102   52   54 1    
   103   52  113 1    
   104   53  114 1    
   105   53  115 1    
   106   53  116 1    
   107   54   55 am   BACKBONE|DICT|INTERRES
   108   54  117 1    
   109   55   56 2    
   110   55   57 1    
   111   57   58 1    
   112   57   59 1    
   113   57  118 1    
   114   58  119 1    
   115   58  120 1    
   116   58  121 1    
   117   59   60 am   BACKBONE|DICT|INTERRES
   118   59  122 1    
   119   60   61 2    
   120   60   62 1    
   121   62   63 1    
   122   62   64 1    
   123   62  123 1    
   124   63  124 1    
   125   63  125 1    
   126   63  126 1    
   127   64   65 am   BACKBONE|DICT|INTERRES
   128   64  127 1    
   129   65   66 2    
@<TRIPOS>SUBSTRUCTURE
     1 UNK         1 GROUP             0       ****    0 ROOT    
