@<TRIPOS>MOLECULE
3R134
127   129    1
SMALL
USER_CHARGES


@<TRIPOS>ATOM
      1 CA         37.8468  -45.7022  -52.7551 C.3       0 UNK        -0.1968 
      2 C          36.3353  -45.7007  -52.9306 C.2       0 UNK         0.4852 
      3 O          35.7559  -46.7494  -53.2111 O.2       0 UNK        -0.5359 
      4 N          35.7028  -44.5304  -52.7730 N.am      1 UNK        -0.4300 
      5 CA         34.2562  -44.3092  -52.8688 C.3       1 UNK         0.0863 
      6 C6         33.9211  -42.7960  -52.8335 C.3       11 UNK        -0.0953 
      7 S7         34.5545  -41.9314  -54.3110 S.3       11 UNK        -0.2369 
      8 C8         33.0382  -41.7101  -55.2969 C.3       11 UNK         0.0226 
      9 C9         32.3467  -43.0349  -55.5838 C.ar      11 UNK        -0.0699 
     10 C10        32.8645  -43.9084  -56.5466 C.ar      11 UNK        -0.0804 
     11 C11        32.2454  -45.1378  -56.7896 C.ar      11 UNK        -0.0871 
     12 C12        31.1010  -45.4819  -56.0656 C.ar      11 UNK        -0.1008 
     13 C13        30.5745  -44.6219  -55.1028 C.ar      11 UNK        -0.0735 
     14 C14        31.1971  -43.3938  -54.8712 C.ar      11 UNK        -0.0945 
     15 C15        29.3457  -45.0288  -54.3054 C.3       11 UNK         0.0169 
     16 S16        27.8204  -44.4210  -55.0865 S.3       11 UNK        -0.2669 
     17 C17        26.5877  -44.8763  -53.8161 C.3       11 UNK        -0.0850 
     18 CA         25.1939  -45.2812  -54.3676 C.3       10 UNK         0.0855 
     19 C          24.4487  -44.0973  -55.0483 C.2       10 UNK         0.5543 
     20 N          23.9252  -43.1663  -54.2617 N.am      10 UNK        -0.7343 
     21 O          24.3583  -43.9990  -56.2710 O.2       10 UNK        -0.5027 
     22 N          25.2645  -46.4799  -55.2135 N.am      10 UNK        -0.4495 
     23 C          24.2230  -47.2775  -55.4852 C.2       10 UNK         0.4903 
     24 O          23.1096  -47.1602  -54.9696 O.2       10 UNK        -0.4860 
     25 CA         24.4880  -48.3828  -56.5199 C.3       9 UNK         0.0227 
     26 CB         23.3081  -49.3605  -56.7119 C.3       9 UNK        -0.1964 
     27 N          24.9398  -47.7933  -57.7838 N.am      9 UNK        -0.4231 
     28 C          24.2368  -47.0700  -58.6690 C.2       9 UNK         0.5014 
     29 O          23.0159  -46.9153  -58.6146 O.2       9 UNK        -0.5270 
     30 CA         25.0256  -46.3873  -59.8088 C.3       8 UNK         0.0284 
     31 CB         24.4875  -44.9740  -60.1003 C.3       8 UNK        -0.1977 
     32 N          26.4620  -46.2878  -59.5320 N.am      8 UNK        -0.4342 
     33 C          27.3818  -47.2181  -59.8168 C.2       8 UNK         0.5039 
     34 O          27.1267  -48.2795  -60.3869 O.2       8 UNK        -0.5547 
     35 CA         28.8251  -46.9465  -59.3466 C.3       7 UNK         0.0281 
     36 CB         29.0847  -45.4763  -58.9424 C.3       7 UNK        -0.1963 
     37 N          29.2166  -47.8652  -58.2687 N.am      7 UNK        -0.4444 
     38 C          28.5811  -48.0659  -57.1058 C.2       7 UNK         0.5104 
     39 O          27.5956  -47.4249  -56.7436 O.2       7 UNK        -0.5100 
     40 CA         29.1124  -49.1751  -56.1856 C.3       6 UNK         0.0396 
     41 CB         28.7048  -50.5618  -56.7197 C.3       6 UNK        -0.1801 
     42 N          30.5483  -49.1068  -55.8834 N.am      6 UNK        -0.4747 
     43 C          31.6005  -49.3037  -56.6941 C.2       6 UNK         0.5012 
     44 O          31.5069  -49.4969  -57.9072 O.2       6 UNK        -0.5003 
     45 CA         32.9866  -49.3324  -56.0159 C.3       5 UNK         0.0782 
     46 C46        33.5636  -47.9159  -55.7745 C.3       11 UNK        -0.0868 
     47 S47        34.2090  -47.0806  -57.2628 S.3       11 UNK        -0.2515 
     48 C48        32.7912  -46.0913  -57.8450 C.3       11 UNK         0.0199 
     49 N          32.8960  -50.0665  -54.7514 N.am      5 UNK        -0.4607 
     50 C          32.9046  -51.4005  -54.6302 C.2       4 UNK         0.5031 
     51 O          33.1197  -52.1711  -55.5657 O.2       4 UNK        -0.5119 
     52 CA         32.6162  -51.9738  -53.2289 C.3       4 UNK         0.0263 
     53 CB         33.9253  -52.1585  -52.4445 C.3       4 UNK        -0.1967 
     54 N          31.6999  -51.1336  -52.4514 N.am      4 UNK        -0.4237 
     55 C          30.3910  -50.9921  -52.7102 C.2       3 UNK         0.4908 
     56 O          29.7867  -51.6685  -53.5408 O.2       3 UNK        -0.5102 
     57 CA         29.6212  -49.9023  -51.9351 C.3       3 UNK         0.0241 
     58 CB         28.7611  -50.5360  -50.8296 C.3       3 UNK        -0.1971 
     59 N          30.4679  -48.8560  -51.3465 N.am      3 UNK        -0.4139 
     60 C          31.2481  -48.0143  -52.0378 C.2       2 UNK         0.5016 
     61 O          31.3301  -48.0167  -53.2700 O.2       2 UNK        -0.5319 
     62 CA         32.1343  -47.0736  -51.2109 C.3       2 UNK         0.0286 
     63 CB         33.1798  -47.8860  -50.4139 C.3       2 UNK        -0.1963 
     64 N          32.8076  -46.1414  -52.1124 N.am      2 UNK        -0.4790 
     65 C          33.5185  -45.0681  -51.7479 C.2       1 UNK         0.5024 
     66 O          33.6273  -44.6805  -50.5823 O.2       1 UNK        -0.4888 
     67 H67        38.3293  -46.0450  -53.6700 H         1 UNK         0.0892 
     68 H68        38.1292  -46.3767  -51.9473 H         1 UNK         0.0892 
     69 H69        38.2324  -44.7104  -52.5197 H         1 UNK         0.0892 
     70 H70        36.2426  -43.7096  -52.5404 H         1 UNK         0.3107 
     71 H71        33.9234  -44.7145  -53.8270 H         1 UNK         0.0773 
     72 H72        32.8462  -42.6306  -52.7512 H         1 UNK         0.0680 
     73 H73        34.3579  -42.3265  -51.9501 H         1 UNK         0.0680 
     74 H74        32.3666  -41.0289  -54.7718 H         1 UNK         0.0650 
     75 H75        33.2953  -41.2216  -56.2378 H         1 UNK         0.0650 
     76 H76        33.7551  -43.6360  -57.0964 H         1 UNK         0.1397 
     77 H77        30.6185  -46.4274  -56.2463 H         1 UNK         0.1363 
     78 H78        30.7905  -42.7227  -54.1271 H         1 UNK         0.1355 
     79 H79        29.2977  -46.1158  -54.2160 H         1 UNK         0.0707 
     80 H80        29.4184  -44.6369  -53.2897 H         1 UNK         0.0707 
     81 H81        26.4920  -44.0410  -53.1202 H         1 UNK         0.1034 
     82 H82        26.9813  -45.7024  -53.2218 H         1 UNK         0.1034 
     83 H83        24.5913  -45.5562  -53.4991 H         1 UNK         0.0482 
     84 H84        23.9911  -43.2306  -53.2578 H         1 UNK         0.3460 
     85 H85        23.4465  -42.3852  -54.6822 H         1 UNK         0.3460 
     86 H86        26.1392  -46.6279  -55.7096 H         1 UNK         0.2989 
     87 H87        25.3283  -48.9666  -56.1409 H         1 UNK         0.0559 
     88 H88        22.3936  -48.8510  -57.0157 H         1 UNK         0.0848 
     89 H89        23.0871  -49.8835  -55.7809 H         1 UNK         0.0848 
     90 H90        23.5371  -50.1165  -57.4628 H         1 UNK         0.0848 
     91 H91        25.9477  -47.7831  -57.8931 H         1 UNK         0.3144 
     92 H92        24.8765  -46.9938  -60.7046 H         1 UNK         0.0727 
     93 H93        23.4402  -45.0055  -60.4037 H         1 UNK         0.0790 
     94 H94        25.0402  -44.4965  -60.9097 H         1 UNK         0.0790 
     95 H95        24.5527  -44.3307  -59.2214 H         1 UNK         0.0790 
     96 H96        26.7605  -45.4753  -59.0104 H         1 UNK         0.3215 
     97 H97        29.4676  -47.1717  -60.1993 H         1 UNK         0.0863 
     98 H98        30.1476  -45.2941  -58.7983 H         1 UNK         0.0808 
     99 H99        28.5783  -45.2005  -58.0167 H         1 UNK         0.0808 
    100 H100       28.7599  -44.7855  -59.7217 H         1 UNK         0.0808 
    101 H101       30.0139  -48.4691  -58.4555 H         1 UNK         0.3118 
    102 H102       28.6153  -49.0434  -55.2232 H         1 UNK         0.0546 
    103 H103       27.6218  -50.6323  -56.8294 H         1 UNK         0.0828 
    104 H104       29.0125  -51.3567  -56.0417 H         1 UNK         0.0828 
    105 H105       29.1417  -50.7717  -57.6963 H         1 UNK         0.0828 
    106 H106       30.7634  -48.8716  -54.9175 H         1 UNK         0.3005 
    107 H107       33.6668  -49.8721  -56.6793 H         1 UNK         0.1257 
    108 H108       34.4185  -48.0012  -55.1028 H         1 UNK         0.0775 
    109 H109       32.8603  -47.2787  -55.2434 H         1 UNK         0.0775 
    110 H110       33.1022  -45.5196  -58.7206 H         1 UNK         0.0840 
    111 H111       32.0077  -46.7633  -58.1954 H         1 UNK         0.0840 
    112 H112       32.6629  -49.5070  -53.9412 H         1 UNK         0.2987 
    113 H113       32.1538  -52.9546  -53.3608 H         1 UNK         0.0785 
    114 H114       34.6181  -52.8012  -52.9897 H         1 UNK         0.0798 
    115 H115       33.7456  -52.6269  -51.4766 H         1 UNK         0.0798 
    116 H116       34.4317  -51.2081  -52.2702 H         1 UNK         0.0798 
    117 H117       32.1072  -50.5676  -51.7224 H         1 UNK         0.3079 
    118 H118       28.9534  -49.4172  -52.6502 H         1 UNK         0.0794 
    119 H119       29.3740  -51.0179  -50.0668 H         1 UNK         0.0786 
    120 H120       28.0949  -51.2964  -51.2401 H         1 UNK         0.0786 
    121 H121       28.1337  -49.7921  -50.3381 H         1 UNK         0.0786 
    122 H122       30.4622  -48.7931  -50.3382 H         1 UNK         0.3032 
    123 H123       31.4958  -46.5090  -50.5279 H         1 UNK         0.1094 
    124 H124       33.8491  -48.4359  -51.0774 H         1 UNK         0.0794 
    125 H125       33.7965  -47.2430  -49.7862 H         1 UNK         0.0794 
    126 H126       32.7092  -48.6092  -49.7472 H         1 UNK         0.0794 
    127 H127       32.7328  -46.3949  -53.0904 H         1 UNK         0.3016 
@<TRIPOS>BOND
     1    1    2 1    
     2    1   67 1    
     3    1   68 1    
     4    1   69 1    
     5    2    3 2    
     6    2    4 am   BACKBONE|DICT|INTERRES
     7    4    5 1    
     8    4   70 1    
     9    5    6 1    
    10    5   65 1    
    11    5   71 1    
    12    6    7 1    
    13    6   72 1    
    14    6   73 1    
    15    7    8 1    
    16    8    9 1    
    17    8   74 1    
    18    8   75 1    
    19    9   10 ar   
    20    9   14 ar   
    21   10   11 ar   
    22   10   76 1    
    23   11   12 ar   
    24   11   48 1    
    25   12   13 ar   
    26   12   77 1    
    27   13   14 ar   
    28   13   15 1    
    29   14   78 1    
    30   15   16 1    
    31   15   79 1    
    32   15   80 1    
    33   16   17 1    
    34   17   18 1    
    35   17   81 1    
    36   17   82 1    
    37   18   19 1    
    38   18   22 1    
    39   18   83 1    
    40   19   20 am   BACKBONE|DICT|INTERRES
    41   19   21 2    
    42   20   84 1    
    43   20   85 1    
    44   22   23 am   BACKBONE|DICT|INTERRES
    45   22   86 1    
    46   23   24 2    
    47   23   25 1    
    48   25   26 1    
    49   25   27 1    
    50   25   87 1    
    51   26   88 1    
    52   26   89 1    
    53   26   90 1    
    54   27   28 am   BACKBONE|DICT|INTERRES
    55   27   91 1    
    56   28   29 2    
    57   28   30 1    
    58   30   31 1    
    59   30   32 1    
    60   30   92 1    
    61   31   93 1    
    62   31   94 1    
    63   31   95 1    
    64   32   33 am   BACKBONE|DICT|INTERRES
    65   32   96 1    
    66   33   34 2    
    67   33   35 1    
    68   35   36 1    
    69   35   37 1    
    70   35   97 1    
    71   36   98 1    
    72   36   99 1    
    73   36  100 1    
    74   37   38 am   BACKBONE|DICT|INTERRES
    75   37  101 1    
    76   38   39 2    
    77   38   40 1    
    78   40   41 1    
    79   40   42 1    
    80   40  102 1    
    81   41  103 1    
    82   41  104 1    
    83   41  105 1    
    84   42   43 am   BACKBONE|DICT|INTERRES
    85   42  106 1    
    86   43   44 2    
    87   43   45 1    
    88   45   46 1    
    89   45   49 1    
    90   45  107 1    
    91   46   47 1    
    92   46  108 1    
    93   46  109 1    
    94   47   48 1    
    95   48  110 1    
    96   48  111 1    
    97   49   50 am   BACKBONE|DICT|INTERRES
    98   49  112 1    
    99   50   51 2    
   100   50   52 1    
   101   52   53 1    
   102   52   54 1    
   103   52  113 1    
   104   53  114 1    
   105   53  115 1    
   106   53  116 1    
   107   54   55 am   BACKBONE|DICT|INTERRES
   108   54  117 1    
   109   55   56 2    
   110   55   57 1    
   111   57   58 1    
   112   57   59 1    
   113   57  118 1    
   114   58  119 1    
   115   58  120 1    
   116   58  121 1    
   117   59   60 am   BACKBONE|DICT|INTERRES
   118   59  122 1    
   119   60   61 2    
   120   60   62 1    
   121   62   63 1    
   122   62   64 1    
   123   62  123 1    
   124   63  124 1    
   125   63  125 1    
   126   63  126 1    
   127   64   65 am   BACKBONE|DICT|INTERRES
   128   64  127 1    
   129   65   66 2    
@<TRIPOS>SUBSTRUCTURE
     1 UNK         1 GROUP             0       ****    0 ROOT    
