@<TRIPOS>MOLECULE
3R134
127   129    1
SMALL
USER_CHARGES


@<TRIPOS>ATOM
      1 CA         31.6353  -49.7550  -57.4096 C.3       0 UNK        -0.1968 
      2 C          32.6434  -48.7167  -56.9483 C.2       0 UNK         0.4852 
      3 O          33.7196  -48.6127  -57.5374 O.2       0 UNK        -0.5359 
      4 N          32.3132  -47.9711  -55.8832 N.am      1 UNK        -0.4300 
      5 CA         33.1075  -46.9148  -55.2432 C.3       1 UNK         0.0863 
      6 C6         33.5508  -45.7913  -56.2204 C.3       11 UNK        -0.0953 
      7 S7         34.2308  -44.3239  -55.3797 S.3       11 UNK        -0.2369 
      8 C8         32.9668  -43.0592  -55.7293 C.3       11 UNK         0.0226 
      9 C9         31.7212  -43.1990  -54.8625 C.ar      11 UNK        -0.0699 
     10 C10        31.8315  -43.2190  -53.4682 C.ar      11 UNK        -0.0804 
     11 C11        30.6901  -43.2761  -52.6653 C.ar      11 UNK        -0.0871 
     12 C12        29.4287  -43.2890  -53.2667 C.ar      11 UNK        -0.1008 
     13 C13        29.2987  -43.2796  -54.6580 C.ar      11 UNK        -0.0735 
     14 C14        30.4524  -43.2458  -55.4510 C.ar      11 UNK        -0.0945 
     15 C15        27.9054  -43.3195  -55.2793 C.3       11 UNK         0.0169 
     16 S16        27.6512  -42.0280  -56.5368 S.3       11 UNK        -0.2669 
     17 C17        25.8484  -42.1657  -56.8035 C.3       11 UNK        -0.0850 
     18 CA         25.4330  -42.4942  -58.2607 C.3       10 UNK         0.0855 
     19 C          25.6867  -41.3087  -59.2393 C.2       10 UNK         0.5543 
     20 N          26.4401  -41.4853  -60.3184 N.am      10 UNK        -0.7343 
     21 O          25.1729  -40.2135  -59.0242 O.2       10 UNK        -0.5027 
     22 N          25.9588  -43.7954  -58.7134 N.am      10 UNK        -0.4495 
     23 C          25.3331  -44.5869  -59.5955 C.2       10 UNK         0.4903 
     24 O          24.2205  -44.3359  -60.0610 O.2       10 UNK        -0.4860 
     25 CA         26.0519  -45.8621  -60.0756 C.3       9 UNK         0.0227 
     26 CB         26.4897  -45.7040  -61.5423 C.3       9 UNK        -0.1964 
     27 N          27.2130  -46.2752  -59.2810 N.am      9 UNK        -0.4231 
     28 C          27.1596  -46.8231  -58.0600 C.2       9 UNK         0.5014 
     29 O          26.1292  -46.9141  -57.3890 O.2       9 UNK        -0.5270 
     30 CA         28.4958  -47.3580  -57.5148 C.3       8 UNK         0.0284 
     31 CB         29.3832  -46.2295  -56.9636 C.3       8 UNK        -0.1977 
     32 N          28.2930  -48.3779  -56.4832 N.am      8 UNK        -0.4342 
     33 C          27.9760  -49.6554  -56.7408 C.2       8 UNK         0.5039 
     34 O          27.9157  -50.1216  -57.8796 O.2       8 UNK        -0.5547 
     35 CA         27.6953  -50.5866  -55.5469 C.3       7 UNK         0.0281 
     36 CB         28.8316  -51.6070  -55.3544 C.3       7 UNK        -0.1963 
     37 N          27.4865  -49.8633  -54.2917 N.am      7 UNK        -0.4444 
     38 C          26.3019  -49.3961  -53.8738 C.2       7 UNK         0.5104 
     39 O          25.2494  -49.5474  -54.4944 O.2       7 UNK        -0.5100 
     40 CA         26.2740  -48.6458  -52.5281 C.3       6 UNK         0.0396 
     41 CB         25.7209  -49.5578  -51.4210 C.3       6 UNK        -0.1801 
     42 N          27.5794  -48.1267  -52.1086 N.am      6 UNK        -0.4747 
     43 C          28.2274  -47.1142  -52.7036 C.2       6 UNK         0.5012 
     44 O          27.7936  -46.5099  -53.6829 O.2       6 UNK        -0.5003 
     45 CA         29.6168  -46.7586  -52.1381 C.3       5 UNK         0.0782 
     46 C46        29.4832  -45.7926  -50.9359 C.3       11 UNK        -0.0868 
     47 S47        31.0773  -45.0061  -50.5284 S.3       11 UNK        -0.2515 
     48 C48        30.8204  -43.3114  -51.1490 C.3       11 UNK         0.0199 
     49 N          30.3838  -47.9585  -51.7787 N.am      5 UNK        -0.4607 
     50 C          30.7687  -48.9091  -52.6360 C.2       4 UNK         0.5031 
     51 O          30.5573  -48.8687  -53.8523 O.2       4 UNK        -0.5119 
     52 CA         31.4362  -50.1434  -52.0260 C.3       4 UNK         0.0263 
     53 CB         30.3600  -51.1657  -51.6060 C.3       4 UNK        -0.1967 
     54 N          32.3392  -50.7103  -53.0216 N.am      4 UNK        -0.4237 
     55 C          33.2306  -51.6892  -52.8237 C.2       3 UNK         0.4908 
     56 O          33.3866  -52.2811  -51.7553 O.2       3 UNK        -0.5102 
     57 CA         34.1199  -52.0455  -54.0256 C.3       3 UNK         0.0241 
     58 CB         33.3004  -52.7058  -55.1485 C.3       3 UNK        -0.1971 
     59 N          34.8130  -50.8636  -54.5417 N.am      3 UNK        -0.4139 
     60 C          35.8318  -50.2472  -53.9228 C.2       2 UNK         0.5016 
     61 O          36.3726  -50.6657  -52.8988 O.2       2 UNK        -0.5319 
     62 CA         36.3173  -48.9273  -54.5456 C.3       2 UNK         0.0286 
     63 CB         37.3884  -49.1904  -55.6160 C.3       2 UNK        -0.1963 
     64 N          35.2186  -48.1588  -55.1345 N.am      2 UNK        -0.4790 
     65 C          34.2677  -47.5262  -54.4341 C.2       1 UNK         0.5024 
     66 O          34.2539  -47.4601  -53.2048 O.2       1 UNK        -0.4888 
     67 H67        31.1164  -49.4050  -58.3014 H         1 UNK         0.0892 
     68 H68        32.1356  -50.6919  -57.6524 H         1 UNK         0.0892 
     69 H69        30.8942  -49.9565  -56.6403 H         1 UNK         0.0892 
     70 H70        31.4510  -48.1858  -55.3870 H         1 UNK         0.3107 
     71 H71        32.4315  -46.4575  -54.5178 H         1 UNK         0.0773 
     72 H72        34.3049  -46.1496  -56.9222 H         1 UNK         0.0680 
     73 H73        32.7016  -45.4849  -56.8322 H         1 UNK         0.0680 
     74 H74        32.7158  -43.0823  -56.7909 H         1 UNK         0.0650 
     75 H75        33.4038  -42.0774  -55.5426 H         1 UNK         0.0650 
     76 H76        32.8094  -43.1858  -53.0072 H         1 UNK         0.1397 
     77 H77        28.5415  -43.3145  -52.6496 H         1 UNK         0.1363 
     78 H78        30.3584  -43.2276  -56.5279 H         1 UNK         0.1355 
     79 H79        27.1505  -43.1939  -54.5014 H         1 UNK         0.0707 
     80 H80        27.7195  -44.2965  -55.7224 H         1 UNK         0.0707 
     81 H81        25.4371  -42.9295  -56.1418 H         1 UNK         0.1034 
     82 H82        25.3848  -41.2323  -56.4784 H         1 UNK         0.1034 
     83 H83        24.3453  -42.5845  -58.2310 H         1 UNK         0.0482 
     84 H84        26.8640  -42.3793  -60.5031 H         1 UNK         0.3460 
     85 H85        26.5911  -40.7129  -60.9478 H         1 UNK         0.3460 
     86 H86        26.8762  -44.0505  -58.3805 H         1 UNK         0.2989 
     87 H87        25.3187  -46.6703  -60.0318 H         1 UNK         0.0559 
     88 H88        25.6447  -45.4346  -62.1780 H         1 UNK         0.0848 
     89 H89        26.9010  -46.6331  -61.9375 H         1 UNK         0.0848 
     90 H90        27.2442  -44.9251  -61.6588 H         1 UNK         0.0848 
     91 H91        28.1094  -46.2243  -59.7444 H         1 UNK         0.3144 
     92 H92        29.0253  -47.8137  -58.3546 H         1 UNK         0.0727 
     93 H93        29.1718  -46.0149  -55.9174 H         1 UNK         0.0790 
     94 H94        29.2630  -45.3019  -57.5246 H         1 UNK         0.0790 
     95 H95        30.4347  -46.4957  -57.0342 H         1 UNK         0.0790 
     96 H96        28.2424  -48.0508  -55.5280 H         1 UNK         0.3215 
     97 H97        26.7902  -51.1462  -55.7939 H         1 UNK         0.0863 
     98 H98        29.7520  -51.1376  -55.0103 H         1 UNK         0.0808 
     99 H99        29.0570  -52.1270  -56.2866 H         1 UNK         0.0808 
    100 H100       28.5553  -52.3669  -54.6233 H         1 UNK         0.0808 
    101 H101       28.3082  -49.6660  -53.7378 H         1 UNK         0.3118 
    102 H102       25.5947  -47.7983  -52.6425 H         1 UNK         0.0546 
    103 H103       26.3648  -50.4212  -51.2484 H         1 UNK         0.0828 
    104 H104       24.7327  -49.9373  -51.6852 H         1 UNK         0.0828 
    105 H105       25.6163  -49.0209  -50.4781 H         1 UNK         0.0828 
    106 H106       28.0108  -48.5704  -51.3106 H         1 UNK         0.3005 
    107 H107       30.1542  -46.2469  -52.9408 H         1 UNK         0.1257 
    108 H108       29.1264  -46.3253  -50.0525 H         1 UNK         0.0775 
    109 H109       28.7398  -45.0173  -51.1242 H         1 UNK         0.0775 
    110 H110       29.9380  -42.8774  -50.6760 H         1 UNK         0.0840 
    111 H111       31.6631  -42.6917  -50.8383 H         1 UNK         0.0840 
    112 H112       30.6140  -48.0578  -50.8003 H         1 UNK         0.2987 
    113 H113       32.0226  -49.8393  -51.1564 H         1 UNK         0.0785 
    114 H114       29.6495  -50.7262  -50.9050 H         1 UNK         0.0798 
    115 H115       30.7981  -52.0307  -51.1086 H         1 UNK         0.0798 
    116 H116       29.7919  -51.5292  -52.4626 H         1 UNK         0.0798 
    117 H117       32.2757  -50.2657  -53.9265 H         1 UNK         0.3079 
    118 H118       34.8704  -52.7640  -53.6879 H         1 UNK         0.0794 
    119 H119       33.9393  -53.0096  -55.9780 H         1 UNK         0.0786 
    120 H120       32.5313  -52.0424  -55.5440 H         1 UNK         0.0786 
    121 H121       32.7977  -53.6029  -54.7844 H         1 UNK         0.0786 
    122 H122       34.4618  -50.4538  -55.3940 H         1 UNK         0.3032 
    123 H123       36.7659  -48.3308  -53.7476 H         1 UNK         0.1094 
    124 H124       36.9928  -49.7674  -56.4529 H         1 UNK         0.0794 
    125 H125       37.7896  -48.2572  -56.0119 H         1 UNK         0.0794 
    126 H126       38.2263  -49.7512  -55.1993 H         1 UNK         0.0794 
    127 H127       35.0953  -48.2092  -56.1421 H         1 UNK         0.3016 
@<TRIPOS>BOND
     1    1    2 1    
     2    1   67 1    
     3    1   68 1    
     4    1   69 1    
     5    2    3 2    
     6    2    4 am   BACKBONE|DICT|INTERRES
     7    4    5 1    
     8    4   70 1    
     9    5    6 1    
    10    5   65 1    
    11    5   71 1    
    12    6    7 1    
    13    6   72 1    
    14    6   73 1    
    15    7    8 1    
    16    8    9 1    
    17    8   74 1    
    18    8   75 1    
    19    9   10 ar   
    20    9   14 ar   
    21   10   11 ar   
    22   10   76 1    
    23   11   12 ar   
    24   11   48 1    
    25   12   13 ar   
    26   12   77 1    
    27   13   14 ar   
    28   13   15 1    
    29   14   78 1    
    30   15   16 1    
    31   15   79 1    
    32   15   80 1    
    33   16   17 1    
    34   17   18 1    
    35   17   81 1    
    36   17   82 1    
    37   18   19 1    
    38   18   22 1    
    39   18   83 1    
    40   19   20 am   BACKBONE|DICT|INTERRES
    41   19   21 2    
    42   20   84 1    
    43   20   85 1    
    44   22   23 am   BACKBONE|DICT|INTERRES
    45   22   86 1    
    46   23   24 2    
    47   23   25 1    
    48   25   26 1    
    49   25   27 1    
    50   25   87 1    
    51   26   88 1    
    52   26   89 1    
    53   26   90 1    
    54   27   28 am   BACKBONE|DICT|INTERRES
    55   27   91 1    
    56   28   29 2    
    57   28   30 1    
    58   30   31 1    
    59   30   32 1    
    60   30   92 1    
    61   31   93 1    
    62   31   94 1    
    63   31   95 1    
    64   32   33 am   BACKBONE|DICT|INTERRES
    65   32   96 1    
    66   33   34 2    
    67   33   35 1    
    68   35   36 1    
    69   35   37 1    
    70   35   97 1    
    71   36   98 1    
    72   36   99 1    
    73   36  100 1    
    74   37   38 am   BACKBONE|DICT|INTERRES
    75   37  101 1    
    76   38   39 2    
    77   38   40 1    
    78   40   41 1    
    79   40   42 1    
    80   40  102 1    
    81   41  103 1    
    82   41  104 1    
    83   41  105 1    
    84   42   43 am   BACKBONE|DICT|INTERRES
    85   42  106 1    
    86   43   44 2    
    87   43   45 1    
    88   45   46 1    
    89   45   49 1    
    90   45  107 1    
    91   46   47 1    
    92   46  108 1    
    93   46  109 1    
    94   47   48 1    
    95   48  110 1    
    96   48  111 1    
    97   49   50 am   BACKBONE|DICT|INTERRES
    98   49  112 1    
    99   50   51 2    
   100   50   52 1    
   101   52   53 1    
   102   52   54 1    
   103   52  113 1    
   104   53  114 1    
   105   53  115 1    
   106   53  116 1    
   107   54   55 am   BACKBONE|DICT|INTERRES
   108   54  117 1    
   109   55   56 2    
   110   55   57 1    
   111   57   58 1    
   112   57   59 1    
   113   57  118 1    
   114   58  119 1    
   115   58  120 1    
   116   58  121 1    
   117   59   60 am   BACKBONE|DICT|INTERRES
   118   59  122 1    
   119   60   61 2    
   120   60   62 1    
   121   62   63 1    
   122   62   64 1    
   123   62  123 1    
   124   63  124 1    
   125   63  125 1    
   126   63  126 1    
   127   64   65 am   BACKBONE|DICT|INTERRES
   128   64  127 1    
   129   65   66 2    
@<TRIPOS>SUBSTRUCTURE
     1 UNK         1 GROUP             0       ****    0 ROOT    
