@<TRIPOS>MOLECULE
3R134
127   129    1
SMALL
USER_CHARGES


@<TRIPOS>ATOM
      1 CA         35.1938  -47.1057  -50.8163 C.3       0 UNK        -0.1968 
      2 C          34.5457  -47.1574  -52.1914 C.2       0 UNK         0.4852 
      3 O          33.6520  -47.9722  -52.4133 O.2       0 UNK        -0.5359 
      4 N          34.9840  -46.2931  -53.1162 N.am      1 UNK        -0.4300 
      5 CA         34.5101  -46.2188  -54.5026 C.3       1 UNK         0.0863 
      6 C6         33.0012  -45.8361  -54.5992 C.3       11 UNK        -0.0953 
      7 S7         32.6593  -44.7468  -56.0205 S.3       11 UNK        -0.2369 
      8 C8         32.7987  -43.0966  -55.2573 C.3       11 UNK         0.0226 
      9 C9         31.5071  -42.6754  -54.5701 C.ar      11 UNK        -0.0699 
     10 C10        31.2858  -42.9803  -53.2237 C.ar      11 UNK        -0.0804 
     11 C11        30.0855  -42.6265  -52.6012 C.ar      11 UNK        -0.0871 
     12 C12        29.1168  -41.9263  -53.3254 C.ar      11 UNK        -0.1008 
     13 C13        29.3418  -41.5793  -54.6606 C.ar      11 UNK        -0.0735 
     14 C14        30.5357  -41.9627  -55.2798 C.ar      11 UNK        -0.0945 
     15 C15        28.3010  -40.7689  -55.4185 C.3       11 UNK         0.0169 
     16 S16        27.0915  -41.8370  -56.2558 S.3       11 UNK        -0.2669 
     17 C17        28.0200  -42.2921  -57.7581 C.3       11 UNK        -0.0850 
     18 CA         27.1628  -43.1188  -58.7464 C.3       10 UNK         0.0855 
     19 C          27.9183  -43.3157  -60.0880 C.2       10 UNK         0.5543 
     20 N          27.5137  -42.6186  -61.1406 N.am      10 UNK        -0.7343 
     21 O          28.8979  -44.0540  -60.1640 O.2       10 UNK        -0.5027 
     22 N          26.7671  -44.3996  -58.1494 N.am      10 UNK        -0.4495 
     23 C          25.8601  -45.2423  -58.6553 C.2       10 UNK         0.4903 
     24 O          25.1707  -44.9987  -59.6474 O.2       10 UNK        -0.4860 
     25 CA         25.7088  -46.5813  -57.9091 C.3       9 UNK         0.0227 
     26 CB         24.8271  -47.6014  -58.6600 C.3       9 UNK        -0.1964 
     27 N          27.0052  -47.1703  -57.5528 N.am      9 UNK        -0.4231 
     28 C          27.9848  -47.5532  -58.3893 C.2       9 UNK         0.5014 
     29 O          27.9310  -47.4668  -59.6166 O.2       9 UNK        -0.5270 
     30 CA         29.2324  -48.1700  -57.7345 C.3       8 UNK         0.0284 
     31 CB         30.1372  -47.0743  -57.1480 C.3       8 UNK        -0.1977 
     32 N          28.8818  -49.1306  -56.6873 N.am      8 UNK        -0.4342 
     33 C          28.2406  -50.2902  -56.8980 C.2       8 UNK         0.5039 
     34 O          27.9927  -50.7493  -58.0135 O.2       8 UNK        -0.5547 
     35 CA         27.7656  -51.0514  -55.6511 C.3       7 UNK         0.0281 
     36 CB         28.8923  -51.9226  -55.0732 C.3       7 UNK        -0.1963 
     37 N          27.2518  -50.1367  -54.6272 N.am      7 UNK        -0.4444 
     38 C          26.0520  -49.5398  -54.6885 C.2       7 UNK         0.5104 
     39 O          25.2228  -49.7594  -55.5709 O.2       7 UNK        -0.5100 
     40 CA         25.7111  -48.5236  -53.5835 C.3       6 UNK         0.0396 
     41 CB         24.9013  -49.2011  -52.4668 C.3       6 UNK        -0.1801 
     42 N          26.8889  -47.8763  -52.9997 N.am      6 UNK        -0.4747 
     43 C          27.6400  -46.9511  -53.6163 C.2       6 UNK         0.5012 
     44 O          27.4213  -46.5418  -54.7573 O.2       6 UNK        -0.5003 
     45 CA         28.8799  -46.4581  -52.8397 C.3       5 UNK         0.0782 
     46 C46        28.4756  -45.3881  -51.7937 C.3       11 UNK        -0.0868 
     47 S47        29.9039  -44.7749  -50.8337 S.3       11 UNK        -0.2515 
     48 C48        29.8449  -42.9794  -51.1398 C.3       11 UNK         0.0199 
     49 N          29.6179  -47.5745  -52.2290 N.am      5 UNK        -0.4607 
     50 C          30.1546  -48.5969  -52.9026 C.2       4 UNK         0.5031 
     51 O          30.0684  -48.7299  -54.1281 O.2       4 UNK        -0.5119 
     52 CA         30.8549  -49.6811  -52.0769 C.3       4 UNK         0.0263 
     53 CB         29.8357  -50.6252  -51.4133 C.3       4 UNK        -0.1967 
     54 N          31.7017  -50.4196  -53.0016 N.am      4 UNK        -0.4237 
     55 C          32.7863  -51.1446  -52.7110 C.2       3 UNK         0.4908 
     56 O          33.1602  -51.4165  -51.5697 O.2       3 UNK        -0.5102 
     57 CA         33.6038  -51.6193  -53.9187 C.3       3 UNK         0.0241 
     58 CB         32.9552  -52.8834  -54.5242 C.3       3 UNK        -0.1971 
     59 N          33.6999  -50.5257  -54.8924 N.am      3 UNK        -0.4139 
     60 C          34.3380  -50.5343  -56.0692 C.2       2 UNK         0.5016 
     61 O          34.9712  -51.4952  -56.5076 O.2       2 UNK        -0.5319 
     62 CA         34.2500  -49.2476  -56.9142 C.3       2 UNK         0.0286 
     63 CB         33.1269  -49.3793  -57.9568 C.3       2 UNK        -0.1963 
     64 N          34.0287  -48.0288  -56.1258 N.am      2 UNK        -0.4790 
     65 C          34.9252  -47.4856  -55.2900 C.2       1 UNK         0.5024 
     66 O          36.0586  -47.9452  -55.1308 O.2       1 UNK        -0.4888 
     67 H67        34.4441  -46.8794  -50.0586 H         1 UNK         0.0892 
     68 H68        35.6396  -48.0708  -50.5773 H         1 UNK         0.0892 
     69 H69        35.9741  -46.3471  -50.7604 H         1 UNK         0.0892 
     70 H70        35.7476  -45.6721  -52.8879 H         1 UNK         0.3107 
     71 H71        35.0946  -45.4083  -54.9409 H         1 UNK         0.0773 
     72 H72        32.3470  -46.7087  -54.6338 H         1 UNK         0.0680 
     73 H73        32.6935  -45.3165  -53.6948 H         1 UNK         0.0680 
     74 H74        33.0527  -42.3755  -56.0355 H         1 UNK         0.0650 
     75 H75        33.6304  -43.0834  -54.5511 H         1 UNK         0.0650 
     76 H76        32.0408  -43.5022  -52.6535 H         1 UNK         0.1397 
     77 H77        28.1901  -41.6373  -52.8483 H         1 UNK         0.1363 
     78 H78        30.7124  -41.7028  -56.3144 H         1 UNK         0.1355 
     79 H79        27.7673  -40.1168  -54.7254 H         1 UNK         0.0707 
     80 H80        28.7817  -40.1080  -56.1415 H         1 UNK         0.0707 
     81 H81        28.3670  -41.3726  -58.2342 H         1 UNK         0.1034 
     82 H82        28.9138  -42.8501  -57.4737 H         1 UNK         0.1034 
     83 H83        26.2475  -42.5580  -58.9482 H         1 UNK         0.0482 
     84 H84        28.0051  -42.7211  -62.0149 H         1 UNK         0.3460 
     85 H85        26.7149  -42.0059  -61.0841 H         1 UNK         0.3460 
     86 H86        27.2847  -44.6849  -57.3315 H         1 UNK         0.2989 
     87 H87        25.2128  -46.3516  -56.9649 H         1 UNK         0.0559 
     88 H88        23.8213  -47.2093  -58.8147 H         1 UNK         0.0848 
     89 H89        24.7298  -48.5298  -58.0970 H         1 UNK         0.0848 
     90 H90        25.2351  -47.8460  -59.6412 H         1 UNK         0.0848 
     91 H91        27.1924  -47.2191  -56.5544 H         1 UNK         0.3144 
     92 H92        29.7926  -48.7024  -58.5061 H         1 UNK         0.0727 
     93 H93        29.6338  -46.4984  -56.3709 H         1 UNK         0.0790 
     94 H94        30.4503  -46.3717  -57.9217 H         1 UNK         0.0790 
     95 H95        31.0383  -47.4983  -56.7090 H         1 UNK         0.0790 
     96 H96        29.1228  -48.8741  -55.7326 H         1 UNK         0.3215 
     97 H97        26.9543  -51.7161  -55.9571 H         1 UNK         0.0863 
     98 H98        28.5529  -52.4902  -54.2068 H         1 UNK         0.0808 
     99 H99        29.7526  -51.3280  -54.7728 H         1 UNK         0.0808 
    100 H100       29.2417  -52.6431  -55.8139 H         1 UNK         0.0808 
    101 H101       27.8826  -49.8699  -53.8868 H         1 UNK         0.3118 
    102 H102       25.0863  -47.7486  -54.0331 H         1 UNK         0.0546 
    103 H103       25.4757  -49.9803  -51.9644 H         1 UNK         0.0828 
    104 H104       24.0005  -49.6685  -52.8674 H         1 UNK         0.0828 
    105 H105       24.5812  -48.4801  -51.7145 H         1 UNK         0.0828 
    106 H106       27.1495  -48.1599  -52.0659 H         1 UNK         0.3005 
    107 H107       29.5461  -45.9877  -53.5676 H         1 UNK         0.1257 
    108 H108       27.7512  -45.7935  -51.0847 H         1 UNK         0.0775 
    109 H109       27.9791  -44.5490  -52.2847 H         1 UNK         0.0775 
    110 H110       28.8851  -42.5921  -50.7941 H         1 UNK         0.0840 
    111 H111       30.6076  -42.4936  -50.5297 H         1 UNK         0.0840 
    112 H112       29.7465  -47.5216  -51.2287 H         1 UNK         0.2987 
    113 H113       31.4777  -49.2032  -51.3179 H         1 UNK         0.0785 
    114 H114       29.1901  -50.0841  -50.7207 H         1 UNK         0.0798 
    115 H115       30.3361  -51.4063  -50.8407 H         1 UNK         0.0798 
    116 H116       29.1946  -51.1124  -52.1479 H         1 UNK         0.0798 
    117 H117       31.4678  -50.2350  -53.9690 H         1 UNK         0.3079 
    118 H118       34.6112  -51.8603  -53.5741 H         1 UNK         0.0794 
    119 H119       33.5950  -53.3470  -55.2745 H         1 UNK         0.0786 
    120 H120       31.9966  -52.6619  -54.9939 H         1 UNK         0.0786 
    121 H121       32.7762  -53.6369  -53.7558 H         1 UNK         0.0786 
    122 H122       33.3078  -49.6445  -54.5868 H         1 UNK         0.3032 
    123 H123       35.2001  -49.1398  -57.4427 H         1 UNK         0.1094 
    124 H124       32.1548  -49.5355  -57.4875 H         1 UNK         0.0794 
    125 H125       33.0598  -48.4929  -58.5880 H         1 UNK         0.0794 
    126 H126       33.3070  -50.2305  -58.6150 H         1 UNK         0.0794 
    127 H127       33.1379  -47.5657  -56.2349 H         1 UNK         0.3016 
@<TRIPOS>BOND
     1    1    2 1    
     2    1   67 1    
     3    1   68 1    
     4    1   69 1    
     5    2    3 2    
     6    2    4 am   BACKBONE|DICT|INTERRES
     7    4    5 1    
     8    4   70 1    
     9    5    6 1    
    10    5   65 1    
    11    5   71 1    
    12    6    7 1    
    13    6   72 1    
    14    6   73 1    
    15    7    8 1    
    16    8    9 1    
    17    8   74 1    
    18    8   75 1    
    19    9   10 ar   
    20    9   14 ar   
    21   10   11 ar   
    22   10   76 1    
    23   11   12 ar   
    24   11   48 1    
    25   12   13 ar   
    26   12   77 1    
    27   13   14 ar   
    28   13   15 1    
    29   14   78 1    
    30   15   16 1    
    31   15   79 1    
    32   15   80 1    
    33   16   17 1    
    34   17   18 1    
    35   17   81 1    
    36   17   82 1    
    37   18   19 1    
    38   18   22 1    
    39   18   83 1    
    40   19   20 am   BACKBONE|DICT|INTERRES
    41   19   21 2    
    42   20   84 1    
    43   20   85 1    
    44   22   23 am   BACKBONE|DICT|INTERRES
    45   22   86 1    
    46   23   24 2    
    47   23   25 1    
    48   25   26 1    
    49   25   27 1    
    50   25   87 1    
    51   26   88 1    
    52   26   89 1    
    53   26   90 1    
    54   27   28 am   BACKBONE|DICT|INTERRES
    55   27   91 1    
    56   28   29 2    
    57   28   30 1    
    58   30   31 1    
    59   30   32 1    
    60   30   92 1    
    61   31   93 1    
    62   31   94 1    
    63   31   95 1    
    64   32   33 am   BACKBONE|DICT|INTERRES
    65   32   96 1    
    66   33   34 2    
    67   33   35 1    
    68   35   36 1    
    69   35   37 1    
    70   35   97 1    
    71   36   98 1    
    72   36   99 1    
    73   36  100 1    
    74   37   38 am   BACKBONE|DICT|INTERRES
    75   37  101 1    
    76   38   39 2    
    77   38   40 1    
    78   40   41 1    
    79   40   42 1    
    80   40  102 1    
    81   41  103 1    
    82   41  104 1    
    83   41  105 1    
    84   42   43 am   BACKBONE|DICT|INTERRES
    85   42  106 1    
    86   43   44 2    
    87   43   45 1    
    88   45   46 1    
    89   45   49 1    
    90   45  107 1    
    91   46   47 1    
    92   46  108 1    
    93   46  109 1    
    94   47   48 1    
    95   48  110 1    
    96   48  111 1    
    97   49   50 am   BACKBONE|DICT|INTERRES
    98   49  112 1    
    99   50   51 2    
   100   50   52 1    
   101   52   53 1    
   102   52   54 1    
   103   52  113 1    
   104   53  114 1    
   105   53  115 1    
   106   53  116 1    
   107   54   55 am   BACKBONE|DICT|INTERRES
   108   54  117 1    
   109   55   56 2    
   110   55   57 1    
   111   57   58 1    
   112   57   59 1    
   113   57  118 1    
   114   58  119 1    
   115   58  120 1    
   116   58  121 1    
   117   59   60 am   BACKBONE|DICT|INTERRES
   118   59  122 1    
   119   60   61 2    
   120   60   62 1    
   121   62   63 1    
   122   62   64 1    
   123   62  123 1    
   124   63  124 1    
   125   63  125 1    
   126   63  126 1    
   127   64   65 am   BACKBONE|DICT|INTERRES
   128   64  127 1    
   129   65   66 2    
@<TRIPOS>SUBSTRUCTURE
     1 UNK         1 GROUP             0       ****    0 ROOT    
