@<TRIPOS>MOLECULE
3R134
127   129    1
SMALL
USER_CHARGES


@<TRIPOS>ATOM
      1 CA         29.1729  -44.7421  -53.4868 C.3       0 UNK        -0.1968 
      2 C          29.9354  -45.0967  -52.2243 C.2       0 UNK         0.4852 
      3 O          29.3530  -45.6625  -51.2986 O.2       0 UNK        -0.5359 
      4 N          31.2213  -44.7288  -52.1642 N.am      1 UNK        -0.4300 
      5 CA         32.0415  -44.8332  -50.9559 C.3       1 UNK         0.0863 
      6 C6         33.2314  -43.8425  -50.9717 C.3       11 UNK        -0.0953 
      7 S7         34.4216  -44.0936  -52.3356 S.3       11 UNK        -0.2369 
      8 C8         34.3186  -42.5260  -53.2611 C.3       11 UNK         0.0226 
      9 C9         33.4145  -42.6325  -54.4813 C.ar      11 UNK        -0.0699 
     10 C10        33.7937  -43.4539  -55.5474 C.ar      11 UNK        -0.0804 
     11 C11        33.0042  -43.5363  -56.6965 C.ar      11 UNK        -0.0871 
     12 C12        31.8544  -42.7513  -56.7954 C.ar      11 UNK        -0.1008 
     13 C13        31.4480  -41.9415  -55.7323 C.ar      11 UNK        -0.0735 
     14 C14        32.2304  -41.8898  -54.5714 C.ar      11 UNK        -0.0945 
     15 C15        30.1789  -41.1065  -55.8598 C.3       11 UNK         0.0169 
     16 S16        28.6638  -42.0892  -55.5990 S.3       11 UNK        -0.2669 
     17 C17        28.5574  -43.0651  -57.1382 C.3       11 UNK        -0.0850 
     18 CA         27.1226  -43.5799  -57.4180 C.3       10 UNK         0.0855 
     19 C          26.9647  -43.9901  -58.9047 C.2       10 UNK         0.5543 
     20 N          26.1828  -43.2512  -59.6790 N.am      10 UNK        -0.7343 
     21 O          27.5831  -44.9457  -59.3670 O.2       10 UNK        -0.5027 
     22 N          26.7710  -44.7157  -56.5551 N.am      10 UNK        -0.4495 
     23 C          25.5164  -45.0418  -56.2220 C.2       10 UNK         0.4903 
     24 O          24.5344  -44.3346  -56.4563 O.2       10 UNK        -0.4860 
     25 CA         25.3433  -46.4100  -55.5392 C.3       9 UNK         0.0227 
     26 CB         23.8933  -46.7009  -55.0985 C.3       9 UNK        -0.1964 
     27 N          25.8714  -47.4910  -56.3777 N.am      9 UNK        -0.4231 
     28 C          25.4621  -47.8761  -57.5966 C.2       9 UNK         0.5014 
     29 O          24.4868  -47.4058  -58.1836 O.2       9 UNK        -0.5270 
     30 CA         26.2880  -48.9756  -58.2922 C.3       8 UNK         0.0284 
     31 CB         27.3004  -48.3463  -59.2619 C.3       8 UNK        -0.1977 
     32 N          27.0014  -49.8495  -57.3563 N.am      8 UNK        -0.4342 
     33 C          26.4165  -50.7723  -56.5793 C.2       8 UNK         0.5039 
     34 O          25.2173  -51.0491  -56.6269 O.2       8 UNK        -0.5547 
     35 CA         27.3153  -51.4836  -55.5515 C.3       7 UNK         0.0281 
     36 CB         28.1190  -52.6144  -56.2124 C.3       7 UNK        -0.1963 
     37 N          28.2218  -50.5589  -54.8632 N.am      7 UNK        -0.4444 
     38 C          27.8168  -49.5692  -54.0536 C.2       7 UNK         0.5104 
     39 O          26.6421  -49.3682  -53.7478 O.2       7 UNK        -0.5100 
     40 CA         28.8956  -48.6150  -53.5233 C.3       6 UNK         0.0396 
     41 CB         29.5374  -49.1711  -52.2441 C.3       6 UNK        -0.1801 
     42 N          29.9232  -48.3156  -54.5247 N.am      6 UNK        -0.4747 
     43 C          29.7221  -47.5820  -55.6310 C.2       6 UNK         0.5012 
     44 O          28.6669  -47.0041  -55.8909 O.2       6 UNK        -0.5003 
     45 CA         30.8912  -47.4999  -56.6290 C.3       5 UNK         0.0782 
     46 C46        31.8627  -46.3739  -56.2103 C.3       11 UNK        -0.0868 
     47 S47        33.3576  -46.2500  -57.2589 S.3       11 UNK        -0.2515 
     48 C48        33.3542  -44.5093  -57.8150 C.3       11 UNK         0.0199 
     49 N          31.5466  -48.8006  -56.7793 N.am      5 UNK        -0.4607 
     50 C          30.9704  -49.8704  -57.3434 C.2       4 UNK         0.5031 
     51 O          29.8335  -49.8627  -57.8134 O.2       4 UNK        -0.5119 
     52 CA         31.7742  -51.1803  -57.3534 C.3       4 UNK         0.0263 
     53 CB         32.6021  -51.2893  -58.6432 C.3       4 UNK        -0.1967 
     54 N          32.6543  -51.3347  -56.1935 N.am      4 UNK        -0.4237 
     55 C          32.2517  -51.3879  -54.9158 C.2       3 UNK         0.4908 
     56 O          31.0689  -51.3325  -54.5720 O.2       3 UNK        -0.5102 
     57 CA         33.3495  -51.5246  -53.8403 C.3       3 UNK         0.0241 
     58 CB         34.7902  -51.4486  -54.3988 C.3       3 UNK        -0.1971 
     59 N          33.2100  -50.5729  -52.7307 N.am      3 UNK        -0.4139 
     60 C          33.0843  -49.2397  -52.8077 C.2       2 UNK         0.5016 
     61 O          32.9096  -48.6099  -53.8542 O.2       2 UNK        -0.5319 
     62 CA         33.2180  -48.4840  -51.4800 C.3       2 UNK         0.0286 
     63 CB         34.6922  -48.4769  -51.0212 C.3       2 UNK        -0.1963 
     64 N          32.7355  -47.1108  -51.6308 N.am      2 UNK        -0.4790 
     65 C          32.4743  -46.2756  -50.6157 C.2       1 UNK         0.5024 
     66 O          32.5639  -46.6036  -49.4310 O.2       1 UNK        -0.4888 
     67 H67        28.6388  -43.8073  -53.3261 H         1 UNK         0.0892 
     68 H68        29.8355  -44.6228  -54.3435 H         1 UNK         0.0892 
     69 H69        28.4315  -45.5003  -53.7262 H         1 UNK         0.0892 
     70 H70        31.6595  -44.2726  -52.9523 H         1 UNK         0.3107 
     71 H71        31.4068  -44.5198  -50.1232 H         1 UNK         0.0773 
     72 H72        33.7825  -43.9041  -50.0314 H         1 UNK         0.0680 
     73 H73        32.8438  -42.8238  -51.0085 H         1 UNK         0.0680 
     74 H74        35.3226  -42.2659  -53.5994 H         1 UNK         0.0650 
     75 H75        34.0074  -41.7109  -52.6067 H         1 UNK         0.0650 
     76 H76        34.6943  -44.0485  -55.4733 H         1 UNK         0.1397 
     77 H77        31.2604  -42.7904  -57.6969 H         1 UNK         0.1363 
     78 H78        31.9307  -41.2530  -53.7502 H         1 UNK         0.1355 
     79 H79        30.1927  -40.2959  -55.1297 H         1 UNK         0.0707 
     80 H80        30.1437  -40.6269  -56.8391 H         1 UNK         0.0707 
     81 H81        29.2574  -43.9008  -57.0888 H         1 UNK         0.1034 
     82 H82        28.8938  -42.4253  -57.9566 H         1 UNK         0.1034 
     83 H83        26.4316  -42.7581  -57.2170 H         1 UNK         0.0482 
     84 H84        25.6750  -42.4638  -59.3065 H         1 UNK         0.3460 
     85 H85        26.0838  -43.4967  -60.6515 H         1 UNK         0.3460 
     86 H86        27.5066  -45.3904  -56.3727 H         1 UNK         0.2989 
     87 H87        25.9618  -46.3916  -54.6404 H         1 UNK         0.0559 
     88 H88        23.5411  -45.9426  -54.3984 H         1 UNK         0.0848 
     89 H89        23.8207  -47.6658  -54.5964 H         1 UNK         0.0848 
     90 H90        23.2023  -46.7085  -55.9419 H         1 UNK         0.0848 
     91 H91        26.7337  -47.8999  -56.0395 H         1 UNK         0.3144 
     92 H92        25.5966  -49.5901  -58.8725 H         1 UNK         0.0727 
     93 H93        27.8469  -49.1085  -59.8175 H         1 UNK         0.0790 
     94 H94        28.0290  -47.7278  -58.7359 H         1 UNK         0.0790 
     95 H95        26.7996  -47.7076  -59.9909 H         1 UNK         0.0790 
     96 H96        28.0145  -49.7515  -57.3233 H         1 UNK         0.3215 
     97 H97        26.6658  -51.9289  -54.7946 H         1 UNK         0.0863 
     98 H98        28.7685  -53.1157  -55.4943 H         1 UNK         0.0808 
     99 H99        28.7395  -52.2465  -57.0285 H         1 UNK         0.0808 
    100 H100       27.4516  -53.3692  -56.6301 H         1 UNK         0.0808 
    101 H101       29.2201  -50.6958  -54.9940 H         1 UNK         0.3118 
    102 H102       28.3941  -47.6847  -53.2576 H         1 UNK         0.0546 
    103 H103       30.1015  -50.0844  -52.4318 H         1 UNK         0.0828 
    104 H104       28.7764  -49.4066  -51.4991 H         1 UNK         0.0828 
    105 H105       30.2067  -48.4403  -51.7925 H         1 UNK         0.0828 
    106 H106       30.8338  -48.7446  -54.3960 H         1 UNK         0.3005 
    107 H107       30.4667  -47.2334  -57.6001 H         1 UNK         0.1257 
    108 H108       31.3185  -45.4305  -56.2217 H         1 UNK         0.0775 
    109 H109       32.2012  -46.5062  -55.1818 H         1 UNK         0.0775 
    110 H110       34.3382  -44.2609  -58.2147 H         1 UNK         0.0840 
    111 H111       32.6533  -44.4140  -58.6457 H         1 UNK         0.0840 
    112 H112       32.4693  -48.8846  -56.3756 H         1 UNK         0.2987 
    113 H113       31.0614  -52.0062  -57.3357 H         1 UNK         0.0785 
    114 H114       33.1117  -52.2508  -58.7091 H         1 UNK         0.0798 
    115 H115       33.3553  -50.5028  -58.7085 H         1 UNK         0.0798 
    116 H116       31.9638  -51.2026  -59.5238 H         1 UNK         0.0798 
    117 H117       33.6453  -51.3835  -56.3805 H         1 UNK         0.3079 
    118 H118       33.2152  -52.5176  -53.4090 H         1 UNK         0.0794 
    119 H119       34.9805  -52.2327  -55.1330 H         1 UNK         0.0786 
    120 H120       35.5230  -51.5847  -53.6032 H         1 UNK         0.0786 
    121 H121       34.9961  -50.4853  -54.8681 H         1 UNK         0.0786 
    122 H122       33.2954  -50.9827  -51.8110 H         1 UNK         0.3032 
    123 H123       32.6021  -48.9923  -50.7346 H         1 UNK         0.1094 
    124 H124       35.3266  -47.9414  -51.7289 H         1 UNK         0.0794 
    125 H125       34.8105  -48.0043  -50.0462 H         1 UNK         0.0794 
    126 H126       35.0881  -49.4891  -50.9303 H         1 UNK         0.0794 
    127 H127       32.6255  -46.8024  -52.5887 H         1 UNK         0.3016 
@<TRIPOS>BOND
     1    1    2 1    
     2    1   67 1    
     3    1   68 1    
     4    1   69 1    
     5    2    3 2    
     6    2    4 am   BACKBONE|DICT|INTERRES
     7    4    5 1    
     8    4   70 1    
     9    5    6 1    
    10    5   65 1    
    11    5   71 1    
    12    6    7 1    
    13    6   72 1    
    14    6   73 1    
    15    7    8 1    
    16    8    9 1    
    17    8   74 1    
    18    8   75 1    
    19    9   10 ar   
    20    9   14 ar   
    21   10   11 ar   
    22   10   76 1    
    23   11   12 ar   
    24   11   48 1    
    25   12   13 ar   
    26   12   77 1    
    27   13   14 ar   
    28   13   15 1    
    29   14   78 1    
    30   15   16 1    
    31   15   79 1    
    32   15   80 1    
    33   16   17 1    
    34   17   18 1    
    35   17   81 1    
    36   17   82 1    
    37   18   19 1    
    38   18   22 1    
    39   18   83 1    
    40   19   20 am   BACKBONE|DICT|INTERRES
    41   19   21 2    
    42   20   84 1    
    43   20   85 1    
    44   22   23 am   BACKBONE|DICT|INTERRES
    45   22   86 1    
    46   23   24 2    
    47   23   25 1    
    48   25   26 1    
    49   25   27 1    
    50   25   87 1    
    51   26   88 1    
    52   26   89 1    
    53   26   90 1    
    54   27   28 am   BACKBONE|DICT|INTERRES
    55   27   91 1    
    56   28   29 2    
    57   28   30 1    
    58   30   31 1    
    59   30   32 1    
    60   30   92 1    
    61   31   93 1    
    62   31   94 1    
    63   31   95 1    
    64   32   33 am   BACKBONE|DICT|INTERRES
    65   32   96 1    
    66   33   34 2    
    67   33   35 1    
    68   35   36 1    
    69   35   37 1    
    70   35   97 1    
    71   36   98 1    
    72   36   99 1    
    73   36  100 1    
    74   37   38 am   BACKBONE|DICT|INTERRES
    75   37  101 1    
    76   38   39 2    
    77   38   40 1    
    78   40   41 1    
    79   40   42 1    
    80   40  102 1    
    81   41  103 1    
    82   41  104 1    
    83   41  105 1    
    84   42   43 am   BACKBONE|DICT|INTERRES
    85   42  106 1    
    86   43   44 2    
    87   43   45 1    
    88   45   46 1    
    89   45   49 1    
    90   45  107 1    
    91   46   47 1    
    92   46  108 1    
    93   46  109 1    
    94   47   48 1    
    95   48  110 1    
    96   48  111 1    
    97   49   50 am   BACKBONE|DICT|INTERRES
    98   49  112 1    
    99   50   51 2    
   100   50   52 1    
   101   52   53 1    
   102   52   54 1    
   103   52  113 1    
   104   53  114 1    
   105   53  115 1    
   106   53  116 1    
   107   54   55 am   BACKBONE|DICT|INTERRES
   108   54  117 1    
   109   55   56 2    
   110   55   57 1    
   111   57   58 1    
   112   57   59 1    
   113   57  118 1    
   114   58  119 1    
   115   58  120 1    
   116   58  121 1    
   117   59   60 am   BACKBONE|DICT|INTERRES
   118   59  122 1    
   119   60   61 2    
   120   60   62 1    
   121   62   63 1    
   122   62   64 1    
   123   62  123 1    
   124   63  124 1    
   125   63  125 1    
   126   63  126 1    
   127   64   65 am   BACKBONE|DICT|INTERRES
   128   64  127 1    
   129   65   66 2    
@<TRIPOS>SUBSTRUCTURE
     1 UNK         1 GROUP             0       ****    0 ROOT    
