@<TRIPOS>MOLECULE
3R134
127   129    1
SMALL
USER_CHARGES


@<TRIPOS>ATOM
      1 CA         29.8780  -44.0435  -49.5893 C.3       0 UNK        -0.1968 
      2 C          31.0738  -44.9421  -49.3082 C.2       0 UNK         0.4852 
      3 O          31.2381  -45.4091  -48.1797 O.2       0 UNK        -0.5359 
      4 N          31.9103  -45.1786  -50.3255 N.am      1 UNK        -0.4300 
      5 CA         33.0566  -46.0905  -50.2852 C.3       1 UNK         0.0863 
      6 C6         34.1333  -45.6920  -51.3322 C.3       11 UNK        -0.0953 
      7 S7         33.5132  -45.6178  -53.0487 S.3       11 UNK        -0.2369 
      8 C8         33.4968  -43.8231  -53.3438 C.3       11 UNK         0.0226 
      9 C9         32.6715  -43.4628  -54.5707 C.ar      11 UNK        -0.0699 
     10 C10        33.1597  -43.7345  -55.8530 C.ar      11 UNK        -0.0804 
     11 C11        32.4162  -43.3808  -56.9838 C.ar      11 UNK        -0.0871 
     12 C12        31.1923  -42.7288  -56.8246 C.ar      11 UNK        -0.1008 
     13 C13        30.6805  -42.4735  -55.5503 C.ar      11 UNK        -0.0735 
     14 C14        31.4254  -42.8423  -54.4257 C.ar      11 UNK        -0.0945 
     15 C15        29.3281  -41.7925  -55.3935 C.3       11 UNK         0.0169 
     16 S16        27.9527  -42.9810  -55.5129 S.3       11 UNK        -0.2669 
     17 C17        27.9618  -43.3757  -57.2983 C.3       11 UNK        -0.0850 
     18 CA         26.5792  -43.8307  -57.8332 C.3       10 UNK         0.0855 
     19 C          26.5943  -44.0333  -59.3783 C.2       10 UNK         0.5543 
     20 N          26.1126  -45.1474  -59.9190 N.am      10 UNK        -0.7343 
     21 O          27.0379  -43.1495  -60.1073 O.2       10 UNK        -0.5027 
     22 N          26.0628  -44.9896  -57.0909 N.am      10 UNK        -0.4495 
     23 C          24.7668  -45.2263  -56.8587 C.2       10 UNK         0.4903 
     24 O          23.8580  -44.4667  -57.1992 O.2       10 UNK        -0.4860 
     25 CA         24.4406  -46.5410  -56.1280 C.3       9 UNK         0.0227 
     26 CB         22.9387  -46.8968  -56.1619 C.3       9 UNK        -0.1964 
     27 N          25.2553  -47.6700  -56.5928 N.am      9 UNK        -0.4231 
     28 C          25.3004  -48.1949  -57.8282 C.2       9 UNK         0.5014 
     29 O          24.6673  -47.7324  -58.7787 O.2       9 UNK        -0.5270 
     30 CA         26.2043  -49.4258  -58.0685 C.3       8 UNK         0.0284 
     31 CB         27.0323  -49.2648  -59.3565 C.3       8 UNK        -0.1977 
     32 N          27.1144  -49.7257  -56.9600 N.am      8 UNK        -0.4342 
     33 C          26.7810  -50.3055  -55.7987 C.2       8 UNK         0.5039 
     34 O          25.6620  -50.7571  -55.5563 O.2       8 UNK        -0.5547 
     35 CA         27.8577  -50.3173  -54.6960 C.3       7 UNK         0.0281 
     36 CB         28.6772  -51.6142  -54.7573 C.3       7 UNK        -0.1963 
     37 N          28.7497  -49.1495  -54.7494 N.am      7 UNK        -0.4444 
     38 C          28.3367  -47.8812  -54.5932 C.2       7 UNK         0.5104 
     39 O          27.1708  -47.5719  -54.3475 O.2       7 UNK        -0.5100 
     40 CA         29.3732  -46.7658  -54.7859 C.3       6 UNK         0.0396 
     41 CB         30.0907  -46.4566  -53.4688 C.3       6 UNK        -0.1801 
     42 N          30.3522  -47.0827  -55.8263 N.am      6 UNK        -0.4747 
     43 C          30.0904  -47.0227  -57.1402 C.2       6 UNK         0.5012 
     44 O          29.0001  -46.6818  -57.6014 O.2       6 UNK        -0.5003 
     45 CA         31.2138  -47.4911  -58.0927 C.3       5 UNK         0.0782 
     46 C46        32.3573  -46.4547  -58.2227 C.3       11 UNK        -0.0868 
     47 S47        31.9034  -44.9805  -59.1920 S.3       11 UNK        -0.2515 
     48 C48        32.9209  -43.7009  -58.3833 C.3       11 UNK         0.0199 
     49 N          31.7614  -48.7898  -57.6950 N.am      5 UNK        -0.4607 
     50 C          31.0755  -49.9331  -57.5715 C.2       4 UNK         0.5031 
     51 O          29.8802  -50.0497  -57.8329 O.2       4 UNK        -0.5119 
     52 CA         31.8525  -51.1451  -57.0260 C.3       4 UNK         0.0263 
     53 CB         32.4283  -51.9733  -58.1854 C.3       4 UNK        -0.1967 
     54 N          32.9303  -50.7962  -56.0926 N.am      4 UNK        -0.4237 
     55 C          32.7849  -50.1036  -54.9533 C.2       3 UNK         0.4908 
     56 O          31.7109  -49.6416  -54.5566 O.2       3 UNK        -0.5102 
     57 CA         34.0868  -49.8199  -54.1868 C.3       3 UNK         0.0241 
     58 CB         34.8332  -48.6405  -54.8339 C.3       3 UNK        -0.1971 
     59 N          33.8590  -49.5228  -52.7718 N.am      3 UNK        -0.4139 
     60 C          33.4798  -50.4190  -51.8493 C.2       2 UNK         0.5016 
     61 O          33.2767  -51.6081  -52.1016 O.2       2 UNK        -0.5319 
     62 CA         33.3474  -49.9346  -50.3898 C.3       2 UNK         0.0286 
     63 CB         34.3434  -50.6757  -49.4803 C.3       2 UNK        -0.1963 
     64 N          33.5547  -48.4904  -50.2277 N.am      2 UNK        -0.4790 
     65 C          32.6089  -47.5638  -50.4281 C.2       1 UNK         0.5024 
     66 O          31.4474  -47.8431  -50.7327 O.2       1 UNK        -0.4888 
     67 H67        28.9511  -44.5824  -49.3950 H         1 UNK         0.0892 
     68 H68        29.9058  -43.1675  -48.9419 H         1 UNK         0.0892 
     69 H69        29.8588  -43.7002  -50.6237 H         1 UNK         0.0892 
     70 H70        31.7003  -44.8063  -51.2392 H         1 UNK         0.3107 
     71 H71        33.5176  -46.0036  -49.2987 H         1 UNK         0.0773 
     72 H72        34.5530  -44.7214  -51.0634 H         1 UNK         0.0680 
     73 H73        34.9802  -46.3795  -51.3056 H         1 UNK         0.0680 
     74 H74        34.5215  -43.4718  -53.4736 H         1 UNK         0.0650 
     75 H75        33.1049  -43.3120  -52.4632 H         1 UNK         0.0650 
     76 H76        34.1155  -44.2279  -55.9656 H         1 UNK         0.1397 
     77 H77        30.6287  -42.4424  -57.7010 H         1 UNK         0.1363 
     78 H78        31.0361  -42.6386  -53.4377 H         1 UNK         0.1355 
     79 H79        29.2089  -41.0093  -56.1437 H         1 UNK         0.0707 
     80 H80        29.2727  -41.2929  -54.4252 H         1 UNK         0.0707 
     81 H81        28.7185  -44.1380  -57.4847 H         1 UNK         0.1034 
     82 H82        28.2856  -42.4868  -57.8420 H         1 UNK         0.1034 
     83 H83        25.8966  -42.9953  -57.6661 H         1 UNK         0.0482 
     84 H84        25.7082  -45.8743  -59.3435 H         1 UNK         0.3460 
     85 H85        26.1274  -45.2521  -60.9207 H         1 UNK         0.3460 
     86 H86        26.7500  -45.6759  -56.8115 H         1 UNK         0.2989 
     87 H87        24.7146  -46.3808  -55.0844 H         1 UNK         0.0559 
     88 H88        22.5742  -47.0213  -57.1821 H         1 UNK         0.0848 
     89 H89        22.3403  -46.1120  -55.6974 H         1 UNK         0.0848 
     90 H90        22.7374  -47.8199  -55.6185 H         1 UNK         0.0848 
     91 H91        25.8611  -48.0695  -55.8842 H         1 UNK         0.3144 
     92 H92        25.5393  -50.2812  -58.2021 H         1 UNK         0.0727 
     93 H93        27.6391  -50.1494  -59.5509 H         1 UNK         0.0790 
     94 H94        27.7023  -48.4063  -59.2982 H         1 UNK         0.0790 
     95 H95        26.3901  -49.1199  -60.2261 H         1 UNK         0.0790 
     96 H96        28.0865  -49.4647  -57.0991 H         1 UNK         0.3215 
     97 H97        27.3457  -50.2852  -53.7318 H         1 UNK         0.0863 
     98 H98        29.5234  -51.5936  -54.0699 H         1 UNK         0.0808 
     99 H99        29.0543  -51.7989  -55.7617 H         1 UNK         0.0808 
    100 H100       28.0586  -52.4712  -54.4882 H         1 UNK         0.0808 
    101 H101       29.7412  -49.3220  -54.8895 H         1 UNK         0.3118 
    102 H102       28.8315  -45.8659  -55.0844 H         1 UNK         0.0546 
    103 H103       29.3830  -46.3306  -52.6483 H         1 UNK         0.0828 
    104 H104       30.6570  -45.5308  -53.5485 H         1 UNK         0.0828 
    105 H105       30.7780  -47.2561  -53.1918 H         1 UNK         0.0828 
    106 H106       31.2437  -47.4445  -55.5172 H         1 UNK         0.3005 
    107 H107       30.7597  -47.6311  -59.0765 H         1 UNK         0.1257 
    108 H108       33.2098  -46.9043  -58.7348 H         1 UNK         0.0775 
    109 H109       32.7256  -46.1658  -57.2374 H         1 UNK         0.0775 
    110 H110       33.9626  -44.0252  -58.3614 H         1 UNK         0.0840 
    111 H111       32.8958  -42.7940  -58.9892 H         1 UNK         0.0840 
    112 H112       32.7417  -48.8063  -57.4588 H         1 UNK         0.2987 
    113 H113       31.1503  -51.7749  -56.4813 H         1 UNK         0.0785 
    114 H114       31.6416  -52.2682  -58.8816 H         1 UNK         0.0798 
    115 H115       32.8978  -52.8891  -57.8257 H         1 UNK         0.0798 
    116 H116       33.1724  -51.4133  -58.7533 H         1 UNK         0.0798 
    117 H117       33.8543  -51.1209  -56.3407 H         1 UNK         0.3079 
    118 H118       34.7214  -50.7071  -54.2410 H         1 UNK         0.0794 
    119 H119       34.2045  -47.7527  -54.9022 H         1 UNK         0.0786 
    120 H120       35.1533  -48.8861  -55.8471 H         1 UNK         0.0786 
    121 H121       35.7289  -48.3758  -54.2714 H         1 UNK         0.0786 
    122 H122       33.9581  -48.5602  -52.4875 H         1 UNK         0.3032 
    123 H123       32.3364  -50.1896  -50.0630 H         1 UNK         0.1094 
    124 H124       35.3770  -50.4795  -49.7679 H         1 UNK         0.0794 
    125 H125       34.2223  -50.3829  -48.4371 H         1 UNK         0.0794 
    126 H126       34.1915  -51.7550  -49.5290 H         1 UNK         0.0794 
    127 H127       34.4871  -48.1952  -49.9727 H         1 UNK         0.3016 
@<TRIPOS>BOND
     1    1    2 1    
     2    1   67 1    
     3    1   68 1    
     4    1   69 1    
     5    2    3 2    
     6    2    4 am   BACKBONE|DICT|INTERRES
     7    4    5 1    
     8    4   70 1    
     9    5    6 1    
    10    5   65 1    
    11    5   71 1    
    12    6    7 1    
    13    6   72 1    
    14    6   73 1    
    15    7    8 1    
    16    8    9 1    
    17    8   74 1    
    18    8   75 1    
    19    9   10 ar   
    20    9   14 ar   
    21   10   11 ar   
    22   10   76 1    
    23   11   12 ar   
    24   11   48 1    
    25   12   13 ar   
    26   12   77 1    
    27   13   14 ar   
    28   13   15 1    
    29   14   78 1    
    30   15   16 1    
    31   15   79 1    
    32   15   80 1    
    33   16   17 1    
    34   17   18 1    
    35   17   81 1    
    36   17   82 1    
    37   18   19 1    
    38   18   22 1    
    39   18   83 1    
    40   19   20 am   BACKBONE|DICT|INTERRES
    41   19   21 2    
    42   20   84 1    
    43   20   85 1    
    44   22   23 am   BACKBONE|DICT|INTERRES
    45   22   86 1    
    46   23   24 2    
    47   23   25 1    
    48   25   26 1    
    49   25   27 1    
    50   25   87 1    
    51   26   88 1    
    52   26   89 1    
    53   26   90 1    
    54   27   28 am   BACKBONE|DICT|INTERRES
    55   27   91 1    
    56   28   29 2    
    57   28   30 1    
    58   30   31 1    
    59   30   32 1    
    60   30   92 1    
    61   31   93 1    
    62   31   94 1    
    63   31   95 1    
    64   32   33 am   BACKBONE|DICT|INTERRES
    65   32   96 1    
    66   33   34 2    
    67   33   35 1    
    68   35   36 1    
    69   35   37 1    
    70   35   97 1    
    71   36   98 1    
    72   36   99 1    
    73   36  100 1    
    74   37   38 am   BACKBONE|DICT|INTERRES
    75   37  101 1    
    76   38   39 2    
    77   38   40 1    
    78   40   41 1    
    79   40   42 1    
    80   40  102 1    
    81   41  103 1    
    82   41  104 1    
    83   41  105 1    
    84   42   43 am   BACKBONE|DICT|INTERRES
    85   42  106 1    
    86   43   44 2    
    87   43   45 1    
    88   45   46 1    
    89   45   49 1    
    90   45  107 1    
    91   46   47 1    
    92   46  108 1    
    93   46  109 1    
    94   47   48 1    
    95   48  110 1    
    96   48  111 1    
    97   49   50 am   BACKBONE|DICT|INTERRES
    98   49  112 1    
    99   50   51 2    
   100   50   52 1    
   101   52   53 1    
   102   52   54 1    
   103   52  113 1    
   104   53  114 1    
   105   53  115 1    
   106   53  116 1    
   107   54   55 am   BACKBONE|DICT|INTERRES
   108   54  117 1    
   109   55   56 2    
   110   55   57 1    
   111   57   58 1    
   112   57   59 1    
   113   57  118 1    
   114   58  119 1    
   115   58  120 1    
   116   58  121 1    
   117   59   60 am   BACKBONE|DICT|INTERRES
   118   59  122 1    
   119   60   61 2    
   120   60   62 1    
   121   62   63 1    
   122   62   64 1    
   123   62  123 1    
   124   63  124 1    
   125   63  125 1    
   126   63  126 1    
   127   64   65 am   BACKBONE|DICT|INTERRES
   128   64  127 1    
   129   65   66 2    
@<TRIPOS>SUBSTRUCTURE
     1 UNK         1 GROUP             0       ****    0 ROOT    
