@<TRIPOS>MOLECULE
3R134
127   129    1
SMALL
USER_CHARGES


@<TRIPOS>ATOM
      1 CA         37.5782  -45.9022  -49.7585 C.3       0 UNK        -0.1968 
      2 C          36.9162  -46.2319  -51.0884 C.2       0 UNK         0.4852 
      3 O          37.4823  -46.9867  -51.8802 O.2       0 UNK        -0.5359 
      4 N          35.7270  -45.6667  -51.3383 N.am      1 UNK        -0.4300 
      5 CA         34.9293  -45.8723  -52.5544 C.3       1 UNK         0.0863 
      6 C6         33.7493  -44.8760  -52.6413 C.3       11 UNK        -0.0953 
      7 S7         34.3057  -43.1392  -52.7078 S.3       11 UNK        -0.2369 
      8 C8         33.7884  -42.6374  -54.3885 C.3       11 UNK         0.0226 
      9 C9         32.2896  -42.7699  -54.6649 C.ar      11 UNK        -0.0699 
     10 C10        31.3362  -42.6119  -53.6523 C.ar      11 UNK        -0.0804 
     11 C11        29.9748  -42.7853  -53.9147 C.ar      11 UNK        -0.0871 
     12 C12        29.5595  -43.0817  -55.2163 C.ar      11 UNK        -0.1008 
     13 C13        30.4978  -43.2211  -56.2446 C.ar      11 UNK        -0.0735 
     14 C14        31.8579  -43.0630  -55.9619 C.ar      11 UNK        -0.0945 
     15 C15        30.0488  -43.5997  -57.6476 C.3       11 UNK         0.0169 
     16 S16        29.0275  -42.3138  -58.4244 S.3       11 UNK        -0.2669 
     17 C17        28.4838  -43.1965  -59.9289 C.3       11 UNK        -0.0850 
     18 CA         27.0582  -43.7988  -59.7936 C.3       10 UNK         0.0855 
     19 C          26.5156  -44.2944  -61.1683 C.2       10 UNK         0.5543 
     20 N          26.0785  -45.5397  -61.3172 N.am      10 UNK        -0.7343 
     21 O          26.4816  -43.5239  -62.1246 O.2       10 UNK        -0.5027 
     22 N          26.9872  -44.8050  -58.7198 N.am      10 UNK        -0.4495 
     23 C          25.8824  -45.1057  -58.0274 C.2       10 UNK         0.4903 
     24 O          24.8079  -44.5185  -58.1658 O.2       10 UNK        -0.4860 
     25 CA         26.0053  -46.2643  -57.0168 C.3       9 UNK         0.0227 
     26 CB         24.6350  -46.7955  -56.5475 C.3       9 UNK        -0.1964 
     27 N          26.8445  -47.3767  -57.4833 N.am      9 UNK        -0.4231 
     28 C          26.6939  -48.1038  -58.6004 C.2       9 UNK         0.5014 
     29 O          25.8565  -47.8660  -59.4718 O.2       9 UNK        -0.5270 
     30 CA         27.6324  -49.3108  -58.7706 C.3       8 UNK         0.0284 
     31 CB         28.9979  -48.8903  -59.3361 C.3       8 UNK        -0.1977 
     32 N          27.8013  -50.0820  -57.5314 N.am      8 UNK        -0.4342 
     33 C          26.8409  -50.8705  -57.0239 C.2       8 UNK         0.5039 
     34 O          25.7233  -50.9950  -57.5270 O.2       8 UNK        -0.5547 
     35 CA         27.1694  -51.6712  -55.7587 C.3       7 UNK         0.0281 
     36 CB         28.1800  -52.7950  -56.0521 C.3       7 UNK        -0.1963 
     37 N          27.6718  -50.8063  -54.6885 N.am      7 UNK        -0.4444 
     38 C          27.0502  -50.6329  -53.5138 C.2       7 UNK         0.5104 
     39 O          25.9708  -51.1524  -53.2264 O.2       7 UNK        -0.5100 
     40 CA         27.7418  -49.7600  -52.4532 C.3       6 UNK         0.0396 
     41 CB         28.6039  -50.6260  -51.5211 C.3       6 UNK        -0.1801 
     42 N          28.5500  -48.6626  -52.9889 N.am      6 UNK        -0.4747 
     43 C          28.0330  -47.5493  -53.5302 C.2       6 UNK         0.5012 
     44 O          26.8352  -47.4038  -53.7729 O.2       6 UNK        -0.5003 
     45 CA         29.0120  -46.4000  -53.8351 C.3       5 UNK         0.0782 
     46 C46        29.2933  -45.5322  -52.5795 C.3       11 UNK        -0.0868 
     47 S47        28.0446  -44.2030  -52.4317 S.3       11 UNK        -0.2515 
     48 C48        28.9691  -42.6638  -52.7753 C.3       11 UNK         0.0199 
     49 N          30.2352  -46.9070  -54.4579 N.am      5 UNK        -0.4607 
     50 C          30.3600  -47.0643  -55.7820 C.2       4 UNK         0.5031 
     51 O          29.4780  -46.7728  -56.5860 O.2       4 UNK        -0.5119 
     52 CA         31.6453  -47.7284  -56.3001 C.3       4 UNK         0.0263 
     53 CB         32.7908  -46.7114  -56.4041 C.3       4 UNK        -0.1967 
     54 N          32.0409  -48.8775  -55.4832 N.am      4 UNK        -0.4237 
     55 C          31.2686  -49.9650  -55.3289 C.2       3 UNK         0.4908 
     56 O          30.1948  -50.1199  -55.9136 O.2       3 UNK        -0.5102 
     57 CA         31.7218  -51.0473  -54.3347 C.3       3 UNK         0.0241 
     58 CB         32.3996  -52.2046  -55.0841 C.3       3 UNK        -0.1971 
     59 N          32.6078  -50.5776  -53.2657 N.am      3 UNK        -0.4139 
     60 C          32.3540  -49.5925  -52.3917 C.2       2 UNK         0.5016 
     61 O          31.3193  -48.9211  -52.3926 O.2       2 UNK        -0.5319 
     62 CA         33.4614  -49.2575  -51.3725 C.3       2 UNK         0.0286 
     63 CB         34.6441  -50.2533  -51.3679 C.3       2 UNK        -0.1963 
     64 N          33.9678  -47.8899  -51.5395 N.am      2 UNK        -0.4790 
     65 C          34.4119  -47.3201  -52.6728 C.2       1 UNK         0.5024 
     66 O          34.4300  -47.8824  -53.7697 O.2       1 UNK        -0.4888 
     67 H67        36.9757  -45.2186  -49.1605 H         1 UNK         0.0892 
     68 H68        37.7319  -46.8130  -49.1803 H         1 UNK         0.0892 
     69 H69        38.5493  -45.4377  -49.9280 H         1 UNK         0.0892 
     70 H70        35.3308  -45.0293  -50.6621 H         1 UNK         0.3107 
     71 H71        35.5839  -45.6983  -53.4115 H         1 UNK         0.0773 
     72 H72        33.0883  -44.9842  -51.7793 H         1 UNK         0.0680 
     73 H73        33.1312  -45.0876  -53.5135 H         1 UNK         0.0680 
     74 H74        34.3554  -43.2321  -55.1066 H         1 UNK         0.0650 
     75 H75        34.0798  -41.5985  -54.5461 H         1 UNK         0.0650 
     76 H76        31.6540  -42.3757  -52.6466 H         1 UNK         0.1397 
     77 H77        28.5079  -43.2204  -55.4273 H         1 UNK         0.1363 
     78 H78        32.5862  -43.1844  -56.7522 H         1 UNK         0.1355 
     79 H79        30.9061  -43.8126  -58.2881 H         1 UNK         0.0707 
     80 H80        29.4701  -44.5174  -57.5922 H         1 UNK         0.0707 
     81 H81        28.5137  -42.4719  -60.7451 H         1 UNK         0.1034 
     82 H82        29.2066  -43.9699  -60.1948 H         1 UNK         0.1034 
     83 H83        26.3978  -42.9757  -59.5135 H         1 UNK         0.0482 
     84 H84        25.7292  -45.8290  -62.2167 H         1 UNK         0.3460 
     85 H85        26.0611  -46.1935  -60.5418 H         1 UNK         0.3460 
     86 H86        27.8194  -45.3515  -58.5554 H         1 UNK         0.2989 
     87 H87        26.5127  -45.8480  -56.1458 H         1 UNK         0.0559 
     88 H88        24.0527  -47.1974  -57.3773 H         1 UNK         0.0848 
     89 H89        24.0439  -46.0048  -56.0842 H         1 UNK         0.0848 
     90 H90        24.7521  -47.5858  -55.8056 H         1 UNK         0.0848 
     91 H91        27.6610  -47.5675  -56.9117 H         1 UNK         0.3144 
     92 H92        27.1718  -49.9713  -59.5089 H         1 UNK         0.0727 
     93 H93        29.5300  -48.2185  -58.6673 H         1 UNK         0.0790 
     94 H94        28.8791  -48.3708  -60.2878 H         1 UNK         0.0790 
     95 H95        29.6354  -49.7559  -59.5169 H         1 UNK         0.0790 
     96 H96        28.7051  -50.0408  -57.0643 H         1 UNK         0.3215 
     97 H97        26.2410  -52.1560  -55.4490 H         1 UNK         0.0863 
     98 H98        28.3781  -53.3896  -55.1603 H         1 UNK         0.0808 
     99 H99        29.1334  -52.4143  -56.4166 H         1 UNK         0.0808 
    100 H100       27.7926  -53.4735  -56.8132 H         1 UNK         0.0808 
    101 H101       28.5508  -50.3316  -54.8658 H         1 UNK         0.3118 
    102 H102       26.9524  -49.3154  -51.8430 H         1 UNK         0.0546 
    103 H103       28.0080  -51.4144  -51.0591 H         1 UNK         0.0828 
    104 H104       29.0354  -50.0328  -50.7147 H         1 UNK         0.0828 
    105 H105       29.4216  -51.1085  -52.0544 H         1 UNK         0.0828 
    106 H106       29.5528  -48.7089  -52.8129 H         1 UNK         0.3005 
    107 H107       28.5125  -45.7612  -54.5672 H         1 UNK         0.1257 
    108 H108       30.2879  -45.0892  -52.6305 H         1 UNK         0.0775 
    109 H109       29.2960  -46.1268  -51.6637 H         1 UNK         0.0775 
    110 H110       28.2572  -41.8721  -53.0124 H         1 UNK         0.0840 
    111 H111       29.4670  -42.3545  -51.8550 H         1 UNK         0.0840 
    112 H112       30.9542  -47.2634  -53.8416 H         1 UNK         0.2987 
    113 H113       31.4442  -48.1013  -57.3058 H         1 UNK         0.0785 
    114 H114       32.5225  -45.8941  -57.0746 H         1 UNK         0.0798 
    115 H115       33.6970  -47.1713  -56.7985 H         1 UNK         0.0798 
    116 H116       33.0320  -46.2715  -55.4387 H         1 UNK         0.0798 
    117 H117       32.8995  -48.7936  -54.9495 H         1 UNK         0.3079 
    118 H118       30.8205  -51.4382  -53.8615 H         1 UNK         0.0794 
    119 H119       33.3318  -51.8896  -55.5550 H         1 UNK         0.0786 
    120 H120       31.7521  -52.5938  -55.8715 H         1 UNK         0.0786 
    121 H121       32.6239  -53.0352  -54.4145 H         1 UNK         0.0786 
    122 H122       33.5040  -51.0376  -53.1974 H         1 UNK         0.3032 
    123 H123       32.9849  -49.3019  -50.3917 H         1 UNK         0.1094 
    124 H124       35.3508  -50.0101  -50.5742 H         1 UNK         0.0794 
    125 H125       34.3060  -51.2744  -51.1852 H         1 UNK         0.0794 
    126 H126       35.1983  -50.2425  -52.3075 H         1 UNK         0.0794 
    127 H127       33.9727  -47.3242  -50.7024 H         1 UNK         0.3016 
@<TRIPOS>BOND
     1    1    2 1    
     2    1   67 1    
     3    1   68 1    
     4    1   69 1    
     5    2    3 2    
     6    2    4 am   BACKBONE|DICT|INTERRES
     7    4    5 1    
     8    4   70 1    
     9    5    6 1    
    10    5   65 1    
    11    5   71 1    
    12    6    7 1    
    13    6   72 1    
    14    6   73 1    
    15    7    8 1    
    16    8    9 1    
    17    8   74 1    
    18    8   75 1    
    19    9   10 ar   
    20    9   14 ar   
    21   10   11 ar   
    22   10   76 1    
    23   11   12 ar   
    24   11   48 1    
    25   12   13 ar   
    26   12   77 1    
    27   13   14 ar   
    28   13   15 1    
    29   14   78 1    
    30   15   16 1    
    31   15   79 1    
    32   15   80 1    
    33   16   17 1    
    34   17   18 1    
    35   17   81 1    
    36   17   82 1    
    37   18   19 1    
    38   18   22 1    
    39   18   83 1    
    40   19   20 am   BACKBONE|DICT|INTERRES
    41   19   21 2    
    42   20   84 1    
    43   20   85 1    
    44   22   23 am   BACKBONE|DICT|INTERRES
    45   22   86 1    
    46   23   24 2    
    47   23   25 1    
    48   25   26 1    
    49   25   27 1    
    50   25   87 1    
    51   26   88 1    
    52   26   89 1    
    53   26   90 1    
    54   27   28 am   BACKBONE|DICT|INTERRES
    55   27   91 1    
    56   28   29 2    
    57   28   30 1    
    58   30   31 1    
    59   30   32 1    
    60   30   92 1    
    61   31   93 1    
    62   31   94 1    
    63   31   95 1    
    64   32   33 am   BACKBONE|DICT|INTERRES
    65   32   96 1    
    66   33   34 2    
    67   33   35 1    
    68   35   36 1    
    69   35   37 1    
    70   35   97 1    
    71   36   98 1    
    72   36   99 1    
    73   36  100 1    
    74   37   38 am   BACKBONE|DICT|INTERRES
    75   37  101 1    
    76   38   39 2    
    77   38   40 1    
    78   40   41 1    
    79   40   42 1    
    80   40  102 1    
    81   41  103 1    
    82   41  104 1    
    83   41  105 1    
    84   42   43 am   BACKBONE|DICT|INTERRES
    85   42  106 1    
    86   43   44 2    
    87   43   45 1    
    88   45   46 1    
    89   45   49 1    
    90   45  107 1    
    91   46   47 1    
    92   46  108 1    
    93   46  109 1    
    94   47   48 1    
    95   48  110 1    
    96   48  111 1    
    97   49   50 am   BACKBONE|DICT|INTERRES
    98   49  112 1    
    99   50   51 2    
   100   50   52 1    
   101   52   53 1    
   102   52   54 1    
   103   52  113 1    
   104   53  114 1    
   105   53  115 1    
   106   53  116 1    
   107   54   55 am   BACKBONE|DICT|INTERRES
   108   54  117 1    
   109   55   56 2    
   110   55   57 1    
   111   57   58 1    
   112   57   59 1    
   113   57  118 1    
   114   58  119 1    
   115   58  120 1    
   116   58  121 1    
   117   59   60 am   BACKBONE|DICT|INTERRES
   118   59  122 1    
   119   60   61 2    
   120   60   62 1    
   121   62   63 1    
   122   62   64 1    
   123   62  123 1    
   124   63  124 1    
   125   63  125 1    
   126   63  126 1    
   127   64   65 am   BACKBONE|DICT|INTERRES
   128   64  127 1    
   129   65   66 2    
@<TRIPOS>SUBSTRUCTURE
     1 UNK         1 GROUP             0       ****    0 ROOT    
