@<TRIPOS>MOLECULE
3R134
127   129    1
SMALL
USER_CHARGES


@<TRIPOS>ATOM
      1 CA         37.7982  -47.5749  -47.9284 C.3       0 UNK        -0.1968 
      2 C          36.6307  -47.6168  -48.9032 C.2       0 UNK         0.4852 
      3 O          35.6796  -48.3706  -48.6871 O.2       0 UNK        -0.5359 
      4 N          36.6927  -46.8157  -49.9755 N.am      1 UNK        -0.4300 
      5 CA         35.6470  -46.6914  -50.9925 C.3       1 UNK         0.0863 
      6 C6         36.2303  -46.1972  -52.3424 C.3       11 UNK        -0.0953 
      7 S7         35.0434  -46.3617  -53.7211 S.3       11 UNK        -0.2369 
      8 C8         34.8200  -44.6213  -54.1944 C.3       11 UNK         0.0226 
      9 C9         33.5900  -44.4197  -55.0661 C.ar      11 UNK        -0.0699 
     10 C10        33.7048  -44.3729  -56.4595 C.ar      11 UNK        -0.0804 
     11 C11        32.5865  -44.0949  -57.2526 C.ar      11 UNK        -0.0871 
     12 C12        31.3518  -43.8688  -56.6410 C.ar      11 UNK        -0.1008 
     13 C13        31.2127  -43.9593  -55.2544 C.ar      11 UNK        -0.0735 
     14 C14        32.3393  -44.2281  -54.4705 C.ar      11 UNK        -0.0945 
     15 C15        29.8508  -43.7474  -54.6071 C.3       11 UNK         0.0169 
     16 S16        28.6774  -45.0613  -55.0802 S.3       11 UNK        -0.2669 
     17 C17        27.8995  -44.3616  -56.5795 C.3       11 UNK        -0.0850 
     18 CA         26.3555  -44.4555  -56.5308 C.3       10 UNK         0.0855 
     19 C          25.7168  -43.6892  -57.7206 C.2       10 UNK         0.5543 
     20 N          25.4488  -42.4016  -57.5528 N.am      10 UNK        -0.7343 
     21 O          25.5042  -44.2347  -58.8014 O.2       10 UNK        -0.5027 
     22 N          25.9097  -45.8530  -56.4662 N.am      10 UNK        -0.4495 
     23 C          24.6829  -46.2421  -56.0946 C.2       10 UNK         0.4903 
     24 O          23.8008  -45.4634  -55.7301 O.2       10 UNK        -0.4860 
     25 CA         24.3733  -47.7497  -56.1192 C.3       9 UNK         0.0227 
     26 CB         23.4879  -48.0921  -57.3270 C.3       9 UNK        -0.1964 
     27 N          25.5826  -48.5807  -56.1289 N.am      9 UNK        -0.4231 
     28 C          26.3244  -48.8296  -55.0382 C.2       9 UNK         0.5014 
     29 O          26.0079  -48.4458  -53.9109 O.2       9 UNK        -0.5270 
     30 CA         27.6551  -49.5900  -55.2177 C.3       8 UNK         0.0284 
     31 CB         27.9769  -50.5261  -54.0335 C.3       8 UNK        -0.1977 
     32 N          27.8000  -50.2929  -56.4963 N.am      8 UNK        -0.4342 
     33 C          27.0810  -51.3216  -56.9656 C.2       8 UNK         0.5039 
     34 O          26.1689  -51.8710  -56.3454 O.2       8 UNK        -0.5547 
     35 CA         27.4350  -51.7709  -58.3986 C.3       7 UNK         0.0281 
     36 CB         26.4590  -52.8270  -58.9603 C.3       7 UNK        -0.1963 
     37 N          27.5600  -50.6302  -59.3198 N.am      7 UNK        -0.4444 
     38 C          26.6193  -49.7109  -59.5928 C.2       7 UNK         0.5104 
     39 O          25.4772  -49.7485  -59.1383 O.2       7 UNK        -0.5100 
     40 CA         27.0499  -48.5306  -60.4887 C.3       6 UNK         0.0396 
     41 CB         26.0432  -47.3604  -60.4660 C.3       6 UNK        -0.1801 
     42 N          28.4056  -48.0546  -60.1826 N.am      6 UNK        -0.4747 
     43 C          28.8431  -47.5814  -59.0051 C.2       6 UNK         0.5012 
     44 O          28.1241  -47.4174  -58.0141 O.2       6 UNK        -0.5003 
     45 CA         30.3554  -47.2815  -58.9284 C.3       5 UNK         0.0782 
     46 C46        30.6938  -45.8796  -59.4876 C.3       11 UNK        -0.0868 
     47 S47        32.4991  -45.6075  -59.5861 S.3       11 UNK        -0.2515 
     48 C48        32.7153  -43.9959  -58.7659 C.3       11 UNK         0.0199 
     49 N          30.8955  -47.4967  -57.5814 N.am      5 UNK        -0.4607 
     50 C          30.9424  -48.6954  -56.9864 C.2       4 UNK         0.5031 
     51 O          30.4509  -49.7183  -57.4664 O.2       4 UNK        -0.5119 
     52 CA         31.6646  -48.7736  -55.6426 C.3       4 UNK         0.0263 
     53 CB         33.1780  -48.5530  -55.8250 C.3       4 UNK        -0.1967 
     54 N          31.0974  -47.8332  -54.6744 N.am      4 UNK        -0.4237 
     55 C          31.2552  -47.9505  -53.3507 C.2       3 UNK         0.4908 
     56 O          31.9080  -48.8480  -52.8095 O.2       3 UNK        -0.5102 
     57 CA         30.5586  -46.9098  -52.4690 C.3       3 UNK         0.0241 
     58 CB         29.1144  -47.3275  -52.1394 C.3       3 UNK        -0.1971 
     59 N          31.3399  -46.7747  -51.2473 N.am      3 UNK        -0.4139 
     60 C          31.3209  -45.7470  -50.3916 C.2       2 UNK         0.5016 
     61 O          30.5714  -44.7754  -50.4933 O.2       2 UNK        -0.5319 
     62 CA         32.3396  -45.8077  -49.2389 C.3       2 UNK         0.0286 
     63 CB         31.7681  -46.5915  -48.0465 C.3       2 UNK        -0.1963 
     64 N          33.6033  -46.4172  -49.6653 N.am      2 UNK        -0.4790 
     65 C          34.4954  -45.8116  -50.4600 C.2       1 UNK         0.5024 
     66 O          34.4364  -44.6173  -50.7567 O.2       1 UNK        -0.4888 
     67 H67        38.2512  -48.5622  -47.8437 H         1 UNK         0.0892 
     68 H68        38.5701  -46.8739  -48.2453 H         1 UNK         0.0892 
     69 H69        37.4508  -47.2731  -46.9406 H         1 UNK         0.0892 
     70 H70        37.4851  -46.1987  -50.0861 H         1 UNK         0.3107 
     71 H71        35.2374  -47.6884  -51.1735 H         1 UNK         0.0773 
     72 H72        36.5908  -45.1697  -52.2657 H         1 UNK         0.0680 
     73 H73        37.1026  -46.7977  -52.6052 H         1 UNK         0.0680 
     74 H74        34.7282  -44.0031  -53.3010 H         1 UNK         0.0650 
     75 H75        35.7158  -44.2757  -54.7126 H         1 UNK         0.0650 
     76 H76        34.6689  -44.5275  -56.9249 H         1 UNK         0.1397 
     77 H77        30.4934  -43.6212  -57.2463 H         1 UNK         0.1363 
     78 H78        32.2528  -44.2699  -53.3929 H         1 UNK         0.1355 
     79 H79        29.4606  -42.7644  -54.8734 H         1 UNK         0.0707 
     80 H80        29.9424  -43.7428  -53.5198 H         1 UNK         0.0707 
     81 H81        28.2876  -44.8817  -57.4549 H         1 UNK         0.1034 
     82 H82        28.2016  -43.3193  -56.6917 H         1 UNK         0.1034 
     83 H83        26.0246  -43.9681  -55.6110 H         1 UNK         0.0482 
     84 H84        25.6237  -41.9412  -56.6731 H         1 UNK         0.3460 
     85 H85        25.0482  -41.8820  -58.3182 H         1 UNK         0.3460 
     86 H86        26.5747  -46.5432  -56.7947 H         1 UNK         0.2989 
     87 H87        23.8031  -47.9829  -55.2175 H         1 UNK         0.0559 
     88 H88        23.2828  -49.1614  -57.3831 H         1 UNK         0.0848 
     89 H89        23.9492  -47.7873  -58.2661 H         1 UNK         0.0848 
     90 H90        22.5272  -47.5801  -57.2609 H         1 UNK         0.0848 
     91 H91        25.8868  -48.9406  -57.0255 H         1 UNK         0.3144 
     92 H92        28.4186  -48.8122  -55.2304 H         1 UNK         0.0727 
     93 H93        28.9572  -50.9882  -54.1508 H         1 UNK         0.0790 
     94 H94        27.2383  -51.3217  -53.9344 H         1 UNK         0.0790 
     95 H95        27.9910  -49.9813  -53.0895 H         1 UNK         0.0790 
     96 H96        28.5539  -49.9477  -57.0854 H         1 UNK         0.3215 
     97 H97        28.4222  -52.2324  -58.3378 H         1 UNK         0.0863 
     98 H98        26.7481  -53.1415  -59.9630 H         1 UNK         0.0808 
     99 H99        25.4365  -52.4508  -59.0081 H         1 UNK         0.0808 
    100 H100       26.4465  -53.7187  -58.3323 H         1 UNK         0.0808 
    101 H101       28.4760  -50.4934  -59.7246 H         1 UNK         0.3118 
    102 H102       27.0796  -48.9191  -61.5077 H         1 UNK         0.0546 
    103 H103       25.9284  -46.9417  -59.4660 H         1 UNK         0.0828 
    104 H104       25.0560  -47.6851  -60.7966 H         1 UNK         0.0828 
    105 H105       26.3560  -46.5538  -61.1284 H         1 UNK         0.0828 
    106 H106       29.0715  -48.1485  -60.9380 H         1 UNK         0.3005 
    107 H107       30.8523  -48.0136  -59.5700 H         1 UNK         0.1257 
    108 H108       30.2946  -45.7644  -60.4972 H         1 UNK         0.0775 
    109 H109       30.2195  -45.1021  -58.8921 H         1 UNK         0.0775 
    110 H110       33.7008  -43.6044  -59.0229 H         1 UNK         0.0840 
    111 H111       31.9960  -43.2805  -59.1680 H         1 UNK         0.0840 
    112 H112       31.3389  -46.7001  -57.1474 H         1 UNK         0.2987 
    113 H113       31.5115  -49.7874  -55.2648 H         1 UNK         0.0785 
    114 H114       33.7250  -48.7921  -54.9135 H         1 UNK         0.0798 
    115 H115       33.4075  -47.5209  -56.0929 H         1 UNK         0.0798 
    116 H116       33.5775  -49.1930  -56.6128 H         1 UNK         0.0798 
    117 H117       30.5173  -47.0908  -55.0448 H         1 UNK         0.3079 
    118 H118       30.5576  -45.9537  -52.9876 H         1 UNK         0.0794 
    119 H119       28.5238  -47.4448  -53.0480 H         1 UNK         0.0786 
    120 H120       28.6122  -46.5770  -51.5291 H         1 UNK         0.0786 
    121 H121       29.0826  -48.2745  -51.5997 H         1 UNK         0.0786 
    122 H122       32.0067  -47.5242  -51.1087 H         1 UNK         0.3032 
    123 H123       32.5358  -44.7829  -48.9144 H         1 UNK         0.1094 
    124 H124       30.8349  -46.1454  -47.6995 H         1 UNK         0.0794 
    125 H125       31.5566  -47.6295  -48.3062 H         1 UNK         0.0794 
    126 H126       32.4598  -46.5904  -47.2038 H         1 UNK         0.0794 
    127 H127       33.7873  -47.3720  -49.3794 H         1 UNK         0.3016 
@<TRIPOS>BOND
     1    1    2 1    
     2    1   67 1    
     3    1   68 1    
     4    1   69 1    
     5    2    3 2    
     6    2    4 am   BACKBONE|DICT|INTERRES
     7    4    5 1    
     8    4   70 1    
     9    5    6 1    
    10    5   65 1    
    11    5   71 1    
    12    6    7 1    
    13    6   72 1    
    14    6   73 1    
    15    7    8 1    
    16    8    9 1    
    17    8   74 1    
    18    8   75 1    
    19    9   10 ar   
    20    9   14 ar   
    21   10   11 ar   
    22   10   76 1    
    23   11   12 ar   
    24   11   48 1    
    25   12   13 ar   
    26   12   77 1    
    27   13   14 ar   
    28   13   15 1    
    29   14   78 1    
    30   15   16 1    
    31   15   79 1    
    32   15   80 1    
    33   16   17 1    
    34   17   18 1    
    35   17   81 1    
    36   17   82 1    
    37   18   19 1    
    38   18   22 1    
    39   18   83 1    
    40   19   20 am   BACKBONE|DICT|INTERRES
    41   19   21 2    
    42   20   84 1    
    43   20   85 1    
    44   22   23 am   BACKBONE|DICT|INTERRES
    45   22   86 1    
    46   23   24 2    
    47   23   25 1    
    48   25   26 1    
    49   25   27 1    
    50   25   87 1    
    51   26   88 1    
    52   26   89 1    
    53   26   90 1    
    54   27   28 am   BACKBONE|DICT|INTERRES
    55   27   91 1    
    56   28   29 2    
    57   28   30 1    
    58   30   31 1    
    59   30   32 1    
    60   30   92 1    
    61   31   93 1    
    62   31   94 1    
    63   31   95 1    
    64   32   33 am   BACKBONE|DICT|INTERRES
    65   32   96 1    
    66   33   34 2    
    67   33   35 1    
    68   35   36 1    
    69   35   37 1    
    70   35   97 1    
    71   36   98 1    
    72   36   99 1    
    73   36  100 1    
    74   37   38 am   BACKBONE|DICT|INTERRES
    75   37  101 1    
    76   38   39 2    
    77   38   40 1    
    78   40   41 1    
    79   40   42 1    
    80   40  102 1    
    81   41  103 1    
    82   41  104 1    
    83   41  105 1    
    84   42   43 am   BACKBONE|DICT|INTERRES
    85   42  106 1    
    86   43   44 2    
    87   43   45 1    
    88   45   46 1    
    89   45   49 1    
    90   45  107 1    
    91   46   47 1    
    92   46  108 1    
    93   46  109 1    
    94   47   48 1    
    95   48  110 1    
    96   48  111 1    
    97   49   50 am   BACKBONE|DICT|INTERRES
    98   49  112 1    
    99   50   51 2    
   100   50   52 1    
   101   52   53 1    
   102   52   54 1    
   103   52  113 1    
   104   53  114 1    
   105   53  115 1    
   106   53  116 1    
   107   54   55 am   BACKBONE|DICT|INTERRES
   108   54  117 1    
   109   55   56 2    
   110   55   57 1    
   111   57   58 1    
   112   57   59 1    
   113   57  118 1    
   114   58  119 1    
   115   58  120 1    
   116   58  121 1    
   117   59   60 am   BACKBONE|DICT|INTERRES
   118   59  122 1    
   119   60   61 2    
   120   60   62 1    
   121   62   63 1    
   122   62   64 1    
   123   62  123 1    
   124   63  124 1    
   125   63  125 1    
   126   63  126 1    
   127   64   65 am   BACKBONE|DICT|INTERRES
   128   64  127 1    
   129   65   66 2    
@<TRIPOS>SUBSTRUCTURE
     1 UNK         1 GROUP             0       ****    0 ROOT    
