@<TRIPOS>MOLECULE
3R134
127   129    1
SMALL
USER_CHARGES


@<TRIPOS>ATOM
      1 CA         31.5882  -43.3899  -50.1898 C.3       0 UNK        -0.1968 
      2 C          32.7998  -44.2252  -50.5777 C.2       0 UNK         0.4852 
      3 O          33.9071  -43.9410  -50.1195 O.2       0 UNK        -0.5359 
      4 N          32.5906  -45.2513  -51.4097 N.am      1 UNK        -0.4300 
      5 CA         33.5929  -46.2253  -51.8358 C.3       1 UNK         0.0863 
      6 C6         34.0518  -46.0312  -53.3060 C.3       11 UNK        -0.0953 
      7 S7         35.0303  -44.5171  -53.5617 S.3       11 UNK        -0.2369 
      8 C8         34.6453  -44.1371  -55.3091 C.3       11 UNK         0.0226 
      9 C9         33.2519  -43.5662  -55.5913 C.ar      11 UNK        -0.0699 
     10 C10        32.3286  -43.2718  -54.5803 C.ar      11 UNK        -0.0804 
     11 C11        31.0696  -42.7503  -54.8863 C.ar      11 UNK        -0.0871 
     12 C12        30.7428  -42.4787  -56.2164 C.ar      11 UNK        -0.1008 
     13 C13        31.6522  -42.7583  -57.2407 C.ar      11 UNK        -0.0735 
     14 C14        32.8974  -43.3094  -56.9200 C.ar      11 UNK        -0.0945 
     15 C15        31.3142  -42.4314  -58.6894 C.3       11 UNK         0.0169 
     16 S16        30.2595  -43.6998  -59.4627 S.3       11 UNK        -0.2669 
     17 C17        28.5912  -43.2000  -58.9102 C.3       11 UNK        -0.0850 
     18 CA         27.9572  -44.2114  -57.9068 C.3       10 UNK         0.0855 
     19 C          26.6314  -43.7203  -57.2464 C.2       10 UNK         0.5543 
     20 N          26.4511  -42.4217  -57.0413 N.am      10 UNK        -0.7343 
     21 O          25.7743  -44.5147  -56.8632 O.2       10 UNK        -0.5027 
     22 N          27.8281  -45.5722  -58.4520 N.am      10 UNK        -0.4495 
     23 C          27.1090  -45.9440  -59.5213 C.2       10 UNK         0.4903 
     24 O          26.5491  -45.1683  -60.2963 O.2       10 UNK        -0.4860 
     25 CA         26.9504  -47.4576  -59.7264 C.3       9 UNK         0.0227 
     26 CB         28.2474  -48.0885  -60.2610 C.3       9 UNK        -0.1964 
     27 N          26.5729  -48.0857  -58.4609 N.am      9 UNK        -0.4231 
     28 C          25.3222  -48.1316  -57.9816 C.2       9 UNK         0.5014 
     29 O          24.3284  -47.8177  -58.6404 O.2       9 UNK        -0.5270 
     30 CA         25.1554  -48.5674  -56.5121 C.3       8 UNK         0.0284 
     31 CB         23.7669  -49.1731  -56.2130 C.3       8 UNK        -0.1977 
     32 N          26.2326  -49.4388  -56.0279 N.am      8 UNK        -0.4342 
     33 C          26.5317  -50.6811  -56.4397 C.2       8 UNK         0.5039 
     34 O          25.8972  -51.2859  -57.3050 O.2       8 UNK        -0.5547 
     35 CA         27.7555  -51.3729  -55.8044 C.3       7 UNK         0.0281 
     36 CB         28.8568  -51.5791  -56.8582 C.3       7 UNK        -0.1963 
     37 N          28.3219  -50.6509  -54.6610 N.am      7 UNK        -0.4444 
     38 C          27.7599  -50.5626  -53.4474 C.2       7 UNK         0.5104 
     39 O          26.7315  -51.1571  -53.1243 O.2       7 UNK        -0.5100 
     40 CA         28.4288  -49.6084  -52.4404 C.3       6 UNK         0.0396 
     41 CB         29.4912  -50.3492  -51.6200 C.3       6 UNK        -0.1801 
     42 N          29.0289  -48.4264  -53.0714 N.am      6 UNK        -0.4747 
     43 C          28.3322  -47.4833  -53.7236 C.2       6 UNK         0.5012 
     44 O          27.1078  -47.5075  -53.8476 O.2       6 UNK        -0.5003 
     45 CA         29.1379  -46.3631  -54.4064 C.3       5 UNK         0.0782 
     46 C46        29.6061  -45.2712  -53.4047 C.3       11 UNK        -0.0868 
     47 S47        28.7313  -43.6927  -53.6902 S.3       11 UNK        -0.2515 
     48 C48        30.0744  -42.4619  -53.7716 C.3       11 UNK         0.0199 
     49 N          30.2275  -46.9141  -55.2214 N.am      5 UNK        -0.4607 
     50 C          30.0145  -47.5512  -56.3801 C.2       4 UNK         0.5031 
     51 O          28.8936  -47.7367  -56.8558 O.2       4 UNK        -0.5119 
     52 CA         31.2363  -48.0545  -57.1635 C.3       4 UNK         0.0263 
     53 CB         31.8150  -46.9160  -58.0171 C.3       4 UNK        -0.1967 
     54 N          32.3112  -48.6666  -56.3759 N.am      4 UNK        -0.4237 
     55 C          32.1825  -49.6648  -55.4897 C.2       3 UNK         0.4908 
     56 O          31.0998  -50.0696  -55.0675 O.2       3 UNK        -0.5102 
     57 CA         33.4790  -50.3428  -55.0054 C.3       3 UNK         0.0241 
     58 CB         34.7359  -49.9583  -55.8151 C.3       3 UNK        -0.1971 
     59 N          33.7018  -50.0122  -53.6039 N.am      3 UNK        -0.4139 
     60 C          33.2218  -50.6853  -52.5509 C.2       2 UNK         0.5016 
     61 O          32.6788  -51.7879  -52.6246 O.2       2 UNK        -0.5319 
     62 CA         33.3767  -50.0107  -51.1723 C.3       2 UNK         0.0286 
     63 CB         34.4182  -50.7545  -50.3198 C.3       2 UNK        -0.1963 
     64 N          33.7491  -48.5913  -51.2501 N.am      2 UNK        -0.4790 
     65 C          32.9494  -47.6088  -51.6877 C.2       1 UNK         0.5024 
     66 O          31.7772  -47.7719  -52.0398 O.2       1 UNK        -0.4888 
     67 H67        31.7304  -42.3558  -50.5025 H         1 UNK         0.0892 
     68 H68        30.6704  -43.7608  -50.6456 H         1 UNK         0.0892 
     69 H69        31.4560  -43.4022  -49.1083 H         1 UNK         0.0892 
     70 H70        31.6477  -45.5035  -51.6697 H         1 UNK         0.3107 
     71 H71        34.4637  -46.1805  -51.1778 H         1 UNK         0.0773 
     72 H72        33.1914  -46.0235  -53.9775 H         1 UNK         0.0680 
     73 H73        34.6801  -46.8638  -53.6278 H         1 UNK         0.0680 
     74 H74        35.3850  -43.4172  -55.6618 H         1 UNK         0.0650 
     75 H75        34.7898  -45.0417  -55.9018 H         1 UNK         0.0650 
     76 H76        32.5772  -43.4460  -53.5451 H         1 UNK         0.1397 
     77 H77        29.7794  -42.0486  -56.4476 H         1 UNK         0.1363 
     78 H78        33.6040  -43.5245  -57.7102 H         1 UNK         0.1355 
     79 H79        32.2321  -42.3522  -59.2739 H         1 UNK         0.0707 
     80 H80        30.8396  -41.4514  -58.7543 H         1 UNK         0.0707 
     81 H81        27.9589  -43.0811  -59.7906 H         1 UNK         0.1034 
     82 H82        28.6574  -42.2040  -58.4751 H         1 UNK         0.1034 
     83 H83        28.6504  -44.3148  -57.0717 H         1 UNK         0.0482 
     84 H84        27.1345  -41.7377  -57.3203 H         1 UNK         0.3460 
     85 H85        25.6003  -42.1193  -56.5934 H         1 UNK         0.3460 
     86 H86        28.2137  -46.3080  -57.8691 H         1 UNK         0.2989 
     87 H87        26.1636  -47.6268  -60.4647 H         1 UNK         0.0559 
     88 H88        29.0855  -47.9480  -59.5787 H         1 UNK         0.0848 
     89 H89        28.5291  -47.6431  -61.2160 H         1 UNK         0.0848 
     90 H90        28.1270  -49.1594  -60.4253 H         1 UNK         0.0848 
     91 H91        27.3334  -48.2997  -57.8216 H         1 UNK         0.3144 
     92 H92        25.2386  -47.6491  -55.9287 H         1 UNK         0.0727 
     93 H93        23.5696  -50.0560  -56.8214 H         1 UNK         0.0790 
     94 H94        22.9738  -48.4536  -56.4200 H         1 UNK         0.0790 
     95 H95        23.6770  -49.4592  -55.1651 H         1 UNK         0.0790 
     96 H96        26.8179  -49.0248  -55.3107 H         1 UNK         0.3215 
     97 H97        27.4262  -52.3545  -55.4571 H         1 UNK         0.0863 
     98 H98        29.2202  -50.6285  -57.2492 H         1 UNK         0.0808 
     99 H99        28.4879  -52.1601  -57.7045 H         1 UNK         0.0808 
    100 H100       29.7081  -52.1188  -56.4429 H         1 UNK         0.0808 
    101 H101       29.2234  -50.2002  -54.8081 H         1 UNK         0.3118 
    102 H102       27.6555  -49.2583  -51.7535 H         1 UNK         0.0546 
    103 H103       29.9414  -49.6980  -50.8709 H         1 UNK         0.0828 
    104 H104       30.2845  -50.7313  -52.2609 H         1 UNK         0.0828 
    105 H105       29.0574  -51.2009  -51.0946 H         1 UNK         0.0828 
    106 H106       30.0372  -48.3329  -52.9984 H         1 UNK         0.3005 
    107 H107       28.4385  -45.9035  -55.1095 H         1 UNK         0.1257 
    108 H108       30.6788  -45.1130  -53.4888 H         1 UNK         0.0775 
    109 H109       29.4401  -45.5608  -52.3649 H         1 UNK         0.0775 
    110 H110       29.6353  -41.4755  -53.9280 H         1 UNK         0.0840 
    111 H111       30.5773  -42.4151  -52.8056 H         1 UNK         0.0840 
    112 H112       31.1699  -46.8159  -54.8776 H         1 UNK         0.2987 
    113 H113       30.8749  -48.8284  -57.8433 H         1 UNK         0.0785 
    114 H114       32.6023  -47.2726  -58.6812 H         1 UNK         0.0798 
    115 H115       31.0439  -46.4709  -58.6469 H         1 UNK         0.0798 
    116 H116       32.2294  -46.1184  -57.3995 H         1 UNK         0.0798 
    117 H117       33.2494  -48.4063  -56.6421 H         1 UNK         0.3079 
    118 H118       33.3315  -51.4200  -55.1089 H         1 UNK         0.0794 
    119 H119       35.6021  -50.5263  -55.4746 H         1 UNK         0.0786 
    120 H120       34.9857  -48.9004  -55.7226 H         1 UNK         0.0786 
    121 H121       34.6097  -50.1852  -56.8749 H         1 UNK         0.0786 
    122 H122       34.1407  -49.1247  -53.4161 H         1 UNK         0.3032 
    123 H123       32.4091  -50.0818  -50.6710 H         1 UNK         0.1094 
    124 H124       34.1530  -51.8071  -50.2096 H         1 UNK         0.0794 
    125 H125       35.4115  -50.7148  -50.7687 H         1 UNK         0.0794 
    126 H126       34.4842  -50.3339  -49.3162 H         1 UNK         0.0794 
    127 H127       34.6971  -48.3642  -50.9818 H         1 UNK         0.3016 
@<TRIPOS>BOND
     1    1    2 1    
     2    1   67 1    
     3    1   68 1    
     4    1   69 1    
     5    2    3 2    
     6    2    4 am   BACKBONE|DICT|INTERRES
     7    4    5 1    
     8    4   70 1    
     9    5    6 1    
    10    5   65 1    
    11    5   71 1    
    12    6    7 1    
    13    6   72 1    
    14    6   73 1    
    15    7    8 1    
    16    8    9 1    
    17    8   74 1    
    18    8   75 1    
    19    9   10 ar   
    20    9   14 ar   
    21   10   11 ar   
    22   10   76 1    
    23   11   12 ar   
    24   11   48 1    
    25   12   13 ar   
    26   12   77 1    
    27   13   14 ar   
    28   13   15 1    
    29   14   78 1    
    30   15   16 1    
    31   15   79 1    
    32   15   80 1    
    33   16   17 1    
    34   17   18 1    
    35   17   81 1    
    36   17   82 1    
    37   18   19 1    
    38   18   22 1    
    39   18   83 1    
    40   19   20 am   BACKBONE|DICT|INTERRES
    41   19   21 2    
    42   20   84 1    
    43   20   85 1    
    44   22   23 am   BACKBONE|DICT|INTERRES
    45   22   86 1    
    46   23   24 2    
    47   23   25 1    
    48   25   26 1    
    49   25   27 1    
    50   25   87 1    
    51   26   88 1    
    52   26   89 1    
    53   26   90 1    
    54   27   28 am   BACKBONE|DICT|INTERRES
    55   27   91 1    
    56   28   29 2    
    57   28   30 1    
    58   30   31 1    
    59   30   32 1    
    60   30   92 1    
    61   31   93 1    
    62   31   94 1    
    63   31   95 1    
    64   32   33 am   BACKBONE|DICT|INTERRES
    65   32   96 1    
    66   33   34 2    
    67   33   35 1    
    68   35   36 1    
    69   35   37 1    
    70   35   97 1    
    71   36   98 1    
    72   36   99 1    
    73   36  100 1    
    74   37   38 am   BACKBONE|DICT|INTERRES
    75   37  101 1    
    76   38   39 2    
    77   38   40 1    
    78   40   41 1    
    79   40   42 1    
    80   40  102 1    
    81   41  103 1    
    82   41  104 1    
    83   41  105 1    
    84   42   43 am   BACKBONE|DICT|INTERRES
    85   42  106 1    
    86   43   44 2    
    87   43   45 1    
    88   45   46 1    
    89   45   49 1    
    90   45  107 1    
    91   46   47 1    
    92   46  108 1    
    93   46  109 1    
    94   47   48 1    
    95   48  110 1    
    96   48  111 1    
    97   49   50 am   BACKBONE|DICT|INTERRES
    98   49  112 1    
    99   50   51 2    
   100   50   52 1    
   101   52   53 1    
   102   52   54 1    
   103   52  113 1    
   104   53  114 1    
   105   53  115 1    
   106   53  116 1    
   107   54   55 am   BACKBONE|DICT|INTERRES
   108   54  117 1    
   109   55   56 2    
   110   55   57 1    
   111   57   58 1    
   112   57   59 1    
   113   57  118 1    
   114   58  119 1    
   115   58  120 1    
   116   58  121 1    
   117   59   60 am   BACKBONE|DICT|INTERRES
   118   59  122 1    
   119   60   61 2    
   120   60   62 1    
   121   62   63 1    
   122   62   64 1    
   123   62  123 1    
   124   63  124 1    
   125   63  125 1    
   126   63  126 1    
   127   64   65 am   BACKBONE|DICT|INTERRES
   128   64  127 1    
   129   65   66 2    
@<TRIPOS>SUBSTRUCTURE
     1 UNK         1 GROUP             0       ****    0 ROOT    
