@<TRIPOS>MOLECULE
3R134
127   129    1
SMALL
USER_CHARGES


@<TRIPOS>ATOM
      1 CA         38.0623  -46.5162  -52.6356 C.3       0 UNK        -0.1968 
      2 C          37.2043  -45.2698  -52.4282 C.2       0 UNK         0.4852 
      3 O          37.6474  -44.3436  -51.7509 O.2       0 UNK        -0.5359 
      4 N          35.9862  -45.1839  -52.9848 N.am      1 UNK        -0.4300 
      5 CA         35.2884  -46.2043  -53.7805 C.3       1 UNK         0.0863 
      6 C6         34.0219  -45.6297  -54.4591 C.3       11 UNK        -0.0953 
      7 S7         34.4278  -44.3862  -55.7320 S.3       11 UNK        -0.2369 
      8 C8         33.5285  -42.9117  -55.1513 C.3       11 UNK         0.0226 
      9 C9         32.0248  -43.1436  -55.1065 C.ar      11 UNK        -0.0699 
     10 C10        31.3685  -43.2554  -53.8782 C.ar      11 UNK        -0.0804 
     11 C11        29.9962  -43.5117  -53.8270 C.ar      11 UNK        -0.0871 
     12 C12        29.2748  -43.6396  -55.0182 C.ar      11 UNK        -0.1008 
     13 C13        29.9202  -43.5314  -56.2530 C.ar      11 UNK        -0.0735 
     14 C14        31.2935  -43.2713  -56.2911 C.ar      11 UNK        -0.0945 
     15 C15        29.1581  -43.7775  -57.5446 C.3       11 UNK         0.0169 
     16 S16        28.4247  -42.2729  -58.2506 S.3       11 UNK        -0.2669 
     17 C17        26.8983  -42.0465  -57.2662 C.3       11 UNK        -0.0850 
     18 CA         25.6480  -42.8313  -57.7588 C.3       10 UNK         0.0855 
     19 C          25.2991  -42.5685  -59.2559 C.2       10 UNK         0.5543 
     20 N          25.2706  -43.5743  -60.1242 N.am      10 UNK        -0.7343 
     21 O          25.0330  -41.4288  -59.6301 O.2       10 UNK        -0.5027 
     22 N          25.7012  -44.2511  -57.3737 N.am      10 UNK        -0.4495 
     23 C          24.6296  -45.0460  -57.2518 C.2       10 UNK         0.4903 
     24 O          23.4701  -44.6430  -57.3593 O.2       10 UNK        -0.4860 
     25 CA         24.8938  -46.5367  -56.9529 C.3       9 UNK         0.0227 
     26 CB         23.7251  -47.4443  -57.3907 C.3       9 UNK        -0.1964 
     27 N          26.1607  -47.0583  -57.4848 N.am      9 UNK        -0.4231 
     28 C          26.5659  -47.0726  -58.7646 C.2       9 UNK         0.5014 
     29 O          25.9608  -46.5133  -59.6807 O.2       9 UNK        -0.5270 
     30 CA         27.8634  -47.8356  -59.0867 C.3       8 UNK         0.0284 
     31 CB         29.0806  -46.9017  -59.0686 C.3       8 UNK        -0.1977 
     32 N          28.1134  -48.9682  -58.1918 N.am      8 UNK        -0.4342 
     33 C          27.4895  -50.1510  -58.2865 C.2       8 UNK         0.5039 
     34 O          26.6261  -50.4067  -59.1270 O.2       8 UNK        -0.5547 
     35 CA         27.9049  -51.2373  -57.2812 C.3       7 UNK         0.0281 
     36 CB         29.2850  -51.8152  -57.6359 C.3       7 UNK        -0.1963 
     37 N          27.9090  -50.7441  -55.9037 N.am      7 UNK        -0.4444 
     38 C          26.8030  -50.4725  -55.1968 C.2       7 UNK         0.5104 
     39 O          25.6583  -50.6501  -55.6135 O.2       7 UNK        -0.5100 
     40 CA         27.0055  -49.9000  -53.7835 C.3       6 UNK         0.0396 
     41 CB         27.0779  -51.0323  -52.7472 C.3       6 UNK        -0.1801 
     42 N          28.1983  -49.0585  -53.6681 N.am      6 UNK        -0.4747 
     43 C          28.3471  -47.8688  -54.2699 C.2       6 UNK         0.5012 
     44 O          27.5019  -47.3638  -55.0080 O.2       6 UNK        -0.5003 
     45 CA         29.6976  -47.1538  -54.0588 C.3       5 UNK         0.0782 
     46 C46        29.7880  -46.4842  -52.6599 C.3       11 UNK        -0.0868 
     47 S47        28.4558  -45.2764  -52.3160 S.3       11 UNK        -0.2515 
     48 C48        29.3050  -43.6731  -52.4804 C.3       11 UNK         0.0199 
     49 N          30.8177  -48.0727  -54.2994 N.am      5 UNK        -0.4607 
     50 C          31.0365  -48.7181  -55.4591 C.2       4 UNK         0.5031 
     51 O          30.3710  -48.5275  -56.4768 O.2       4 UNK        -0.5119 
     52 CA         32.1248  -49.8068  -55.4960 C.3       4 UNK         0.0263 
     53 CB         33.3564  -49.3403  -56.2869 C.3       4 UNK        -0.1967 
     54 N          32.5170  -50.2889  -54.1692 N.am      4 UNK        -0.4237 
     55 C          31.7141  -51.0227  -53.3807 C.2       3 UNK         0.4908 
     56 O          30.5891  -51.3929  -53.7209 O.2       3 UNK        -0.5102 
     57 CA         32.2152  -51.3735  -51.9664 C.3       3 UNK         0.0241 
     58 CB         32.7905  -52.7985  -51.9425 C.3       3 UNK        -0.1971 
     59 N          33.2087  -50.4422  -51.4206 N.am      3 UNK        -0.4139 
     60 C          33.0170  -49.1302  -51.2234 C.2       2 UNK         0.5016 
     61 O          31.9642  -48.5500  -51.4913 O.2       2 UNK        -0.5319 
     62 CA         34.2087  -48.3022  -50.7013 C.3       2 UNK         0.0286 
     63 CB         35.4409  -49.1431  -50.2935 C.3       2 UNK        -0.1963 
     64 N          34.6002  -47.2654  -51.6656 N.am      2 UNK        -0.4790 
     65 C          34.9239  -47.4549  -52.9553 C.2       1 UNK         0.5024 
     66 O          34.9609  -48.5610  -53.4960 O.2       1 UNK        -0.4888 
     67 H67        39.1012  -46.3060  -52.3821 H         1 UNK         0.0892 
     68 H68        37.7224  -47.3278  -51.9929 H         1 UNK         0.0892 
     69 H69        38.0443  -46.8543  -53.6706 H         1 UNK         0.0892 
     70 H70        35.4695  -44.3276  -52.8493 H         1 UNK         0.3107 
     71 H71        35.9628  -46.5352  -54.5724 H         1 UNK         0.0773 
     72 H72        33.3538  -45.2046  -53.7095 H         1 UNK         0.0680 
     73 H73        33.4466  -46.4117  -54.9558 H         1 UNK         0.0680 
     74 H74        33.7438  -42.0799  -55.8234 H         1 UNK         0.0650 
     75 H75        33.9102  -42.6212  -54.1714 H         1 UNK         0.0650 
     76 H76        31.9322  -43.1622  -52.9600 H         1 UNK         0.1397 
     77 H77        28.2181  -43.8650  -54.9774 H         1 UNK         0.1363 
     78 H78        31.8026  -43.2009  -57.2427 H         1 UNK         0.1355 
     79 H79        29.8407  -44.1926  -58.2872 H         1 UNK         0.0707 
     80 H80        28.3892  -44.5315  -57.3871 H         1 UNK         0.0707 
     81 H81        27.0958  -42.2653  -56.2175 H         1 UNK         0.1034 
     82 H82        26.6710  -40.9791  -57.2861 H         1 UNK         0.1034 
     83 H83        24.8065  -42.4076  -57.2067 H         1 UNK         0.0482 
     84 H84        25.4823  -44.5227  -59.8344 H         1 UNK         0.3460 
     85 H85        25.0371  -43.3865  -61.0858 H         1 UNK         0.3460 
     86 H86        26.6156  -44.6657  -57.2960 H         1 UNK         0.2989 
     87 H87        24.9738  -46.6105  -55.8676 H         1 UNK         0.0559 
     88 H88        23.5507  -47.3851  -58.4656 H         1 UNK         0.0848 
     89 H89        22.7968  -47.1617  -56.8929 H         1 UNK         0.0848 
     90 H90        23.9198  -48.4874  -57.1395 H         1 UNK         0.0848 
     91 H91        26.7717  -47.4622  -56.7789 H         1 UNK         0.3144 
     92 H92        27.7601  -48.2193  -60.1042 H         1 UNK         0.0727 
     93 H93        29.3221  -46.5807  -58.0558 H         1 UNK         0.0790 
     94 H94        28.9048  -46.0126  -59.6758 H         1 UNK         0.0790 
     95 H95        29.9624  -47.3998  -59.4720 H         1 UNK         0.0790 
     96 H96        28.8454  -48.8463  -57.4933 H         1 UNK         0.3215 
     97 H97        27.1762  -52.0487  -57.3454 H         1 UNK         0.0863 
     98 H98        29.5961  -52.5759  -56.9195 H         1 UNK         0.0808 
     99 H99        30.0547  -51.0444  -57.6661 H         1 UNK         0.0808 
    100 H100       29.2638  -52.2858  -58.6197 H         1 UNK         0.0808 
    101 H101       28.8058  -50.5830  -55.4669 H         1 UNK         0.3118 
    102 H102       26.1361  -49.2812  -53.5507 H         1 UNK         0.0546 
    103 H103       26.1858  -51.6586  -52.7917 H         1 UNK         0.0828 
    104 H104       27.1455  -50.6393  -51.7327 H         1 UNK         0.0828 
    105 H105       27.9390  -51.6804  -52.9150 H         1 UNK         0.0828 
    106 H106       28.9652  -49.4260  -53.1218 H         1 UNK         0.3005 
    107 H107       29.7662  -46.3713  -54.8166 H         1 UNK         0.1257 
    108 H108       30.7565  -45.9957  -52.5424 H         1 UNK         0.0775 
    109 H109       29.7436  -47.2422  -51.8766 H         1 UNK         0.0775 
    110 H110       28.5751  -42.8718  -52.3578 H         1 UNK         0.0840 
    111 H111       30.0160  -43.5690  -51.6592 H         1 UNK         0.0840 
    112 H112       31.3821  -48.3051  -53.4892 H         1 UNK         0.2987 
    113 H113       31.7021  -50.6570  -56.0338 H         1 UNK         0.0785 
    114 H114       33.0796  -49.0594  -57.3040 H         1 UNK         0.0798 
    115 H115       34.1024  -50.1315  -56.3623 H         1 UNK         0.0798 
    116 H116       33.8336  -48.4743  -55.8339 H         1 UNK         0.0798 
    117 H117       33.4174  -49.9806  -53.8173 H         1 UNK         0.3079 
    118 H118       31.3465  -51.3447  -51.3053 H         1 UNK         0.0794 
    119 H119       33.6834  -52.8840  -52.5633 H         1 UNK         0.0786 
    120 H120       32.0628  -53.5199  -52.3174 H         1 UNK         0.0786 
    121 H121       33.0533  -53.1047  -50.9297 H         1 UNK         0.0786 
    122 H122       34.1171  -50.8259  -51.2038 H         1 UNK         0.3032 
    123 H123       33.8471  -47.7872  -49.8096 H         1 UNK         0.1094 
    124 H124       36.2199  -48.5079  -49.8713 H         1 UNK         0.0794 
    125 H125       35.1850  -49.8768  -49.5277 H         1 UNK         0.0794 
    126 H126       35.8797  -49.6767  -51.1375 H         1 UNK         0.0794 
    127 H127       34.5776  -46.3157  -51.3204 H         1 UNK         0.3016 
@<TRIPOS>BOND
     1    1    2 1    
     2    1   67 1    
     3    1   68 1    
     4    1   69 1    
     5    2    3 2    
     6    2    4 am   BACKBONE|DICT|INTERRES
     7    4    5 1    
     8    4   70 1    
     9    5    6 1    
    10    5   65 1    
    11    5   71 1    
    12    6    7 1    
    13    6   72 1    
    14    6   73 1    
    15    7    8 1    
    16    8    9 1    
    17    8   74 1    
    18    8   75 1    
    19    9   10 ar   
    20    9   14 ar   
    21   10   11 ar   
    22   10   76 1    
    23   11   12 ar   
    24   11   48 1    
    25   12   13 ar   
    26   12   77 1    
    27   13   14 ar   
    28   13   15 1    
    29   14   78 1    
    30   15   16 1    
    31   15   79 1    
    32   15   80 1    
    33   16   17 1    
    34   17   18 1    
    35   17   81 1    
    36   17   82 1    
    37   18   19 1    
    38   18   22 1    
    39   18   83 1    
    40   19   20 am   BACKBONE|DICT|INTERRES
    41   19   21 2    
    42   20   84 1    
    43   20   85 1    
    44   22   23 am   BACKBONE|DICT|INTERRES
    45   22   86 1    
    46   23   24 2    
    47   23   25 1    
    48   25   26 1    
    49   25   27 1    
    50   25   87 1    
    51   26   88 1    
    52   26   89 1    
    53   26   90 1    
    54   27   28 am   BACKBONE|DICT|INTERRES
    55   27   91 1    
    56   28   29 2    
    57   28   30 1    
    58   30   31 1    
    59   30   32 1    
    60   30   92 1    
    61   31   93 1    
    62   31   94 1    
    63   31   95 1    
    64   32   33 am   BACKBONE|DICT|INTERRES
    65   32   96 1    
    66   33   34 2    
    67   33   35 1    
    68   35   36 1    
    69   35   37 1    
    70   35   97 1    
    71   36   98 1    
    72   36   99 1    
    73   36  100 1    
    74   37   38 am   BACKBONE|DICT|INTERRES
    75   37  101 1    
    76   38   39 2    
    77   38   40 1    
    78   40   41 1    
    79   40   42 1    
    80   40  102 1    
    81   41  103 1    
    82   41  104 1    
    83   41  105 1    
    84   42   43 am   BACKBONE|DICT|INTERRES
    85   42  106 1    
    86   43   44 2    
    87   43   45 1    
    88   45   46 1    
    89   45   49 1    
    90   45  107 1    
    91   46   47 1    
    92   46  108 1    
    93   46  109 1    
    94   47   48 1    
    95   48  110 1    
    96   48  111 1    
    97   49   50 am   BACKBONE|DICT|INTERRES
    98   49  112 1    
    99   50   51 2    
   100   50   52 1    
   101   52   53 1    
   102   52   54 1    
   103   52  113 1    
   104   53  114 1    
   105   53  115 1    
   106   53  116 1    
   107   54   55 am   BACKBONE|DICT|INTERRES
   108   54  117 1    
   109   55   56 2    
   110   55   57 1    
   111   57   58 1    
   112   57   59 1    
   113   57  118 1    
   114   58  119 1    
   115   58  120 1    
   116   58  121 1    
   117   59   60 am   BACKBONE|DICT|INTERRES
   118   59  122 1    
   119   60   61 2    
   120   60   62 1    
   121   62   63 1    
   122   62   64 1    
   123   62  123 1    
   124   63  124 1    
   125   63  125 1    
   126   63  126 1    
   127   64   65 am   BACKBONE|DICT|INTERRES
   128   64  127 1    
   129   65   66 2    
@<TRIPOS>SUBSTRUCTURE
     1 UNK         1 GROUP             0       ****    0 ROOT    
