@<TRIPOS>MOLECULE
3R134
127   129    1
SMALL
USER_CHARGES


@<TRIPOS>ATOM
      1 CA         31.5826  -45.9356  -48.6984 C.3       0 UNK        -0.1968 
      2 C          31.2138  -46.1686  -50.1558 C.2       0 UNK         0.4852 
      3 O          30.0440  -46.4143  -50.4538 O.2       0 UNK        -0.5359 
      4 N          32.2063  -46.1077  -51.0561 N.am      1 UNK        -0.4300 
      5 CA         32.1248  -46.2676  -52.5176 C.3       1 UNK         0.0863 
      6 C6         31.2098  -45.2308  -53.2204 C.3       11 UNK        -0.0953 
      7 S7         31.9183  -43.5498  -53.1254 S.3       11 UNK        -0.2369 
      8 C8         30.9936  -42.6380  -54.4117 C.3       11 UNK         0.0226 
      9 C9         30.9515  -43.3518  -55.7589 C.ar      11 UNK        -0.0699 
     10 C10        32.1198  -43.8468  -56.3475 C.ar      11 UNK        -0.0804 
     11 C11        32.0617  -44.5794  -57.5366 C.ar      11 UNK        -0.0871 
     12 C12        30.8266  -44.7836  -58.1615 C.ar      11 UNK        -0.1008 
     13 C13        29.6559  -44.2690  -57.5970 C.ar      11 UNK        -0.0735 
     14 C14        29.7268  -43.5497  -56.4015 C.ar      11 UNK        -0.0945 
     15 C15        28.3058  -44.5076  -58.2524 C.3       11 UNK         0.0169 
     16 S16        27.7423  -43.0282  -59.1442 S.3       11 UNK        -0.2669 
     17 C17        25.9670  -43.3977  -59.3531 C.3       11 UNK        -0.0850 
     18 CA         25.0719  -42.5184  -58.4390 C.3       10 UNK         0.0855 
     19 C          23.5679  -42.6730  -58.8090 C.2       10 UNK         0.5543 
     20 N          22.7019  -43.1249  -57.9094 N.am      10 UNK        -0.7343 
     21 O          23.1782  -42.3664  -59.9329 O.2       10 UNK        -0.5027 
     22 N          25.3559  -42.7435  -57.0111 N.am      10 UNK        -0.4495 
     23 C          25.2488  -41.8226  -56.0479 C.2       10 UNK         0.4903 
     24 O          24.9601  -40.6451  -56.2641 O.2       10 UNK        -0.4860 
     25 CA         25.5039  -42.2613  -54.5892 C.3       9 UNK         0.0227 
     26 CB         24.1687  -42.4834  -53.8509 C.3       9 UNK        -0.1964 
     27 N          26.4088  -43.4088  -54.3954 N.am      9 UNK        -0.4231 
     28 C          26.2385  -44.6831  -54.7732 C.2       9 UNK         0.5014 
     29 O          25.2678  -45.0894  -55.4189 O.2       9 UNK        -0.5270 
     30 CA         27.3531  -45.6627  -54.3908 C.3       8 UNK         0.0284 
     31 CB         27.2939  -46.0350  -52.8991 C.3       8 UNK        -0.1977 
     32 N          27.2006  -46.8621  -55.2067 N.am      8 UNK        -0.4342 
     33 C          28.1977  -47.6278  -55.6506 C.2       8 UNK         0.5039 
     34 O          29.3872  -47.4373  -55.3879 O.2       8 UNK        -0.5547 
     35 CA         27.8065  -48.8016  -56.5539 C.3       7 UNK         0.0281 
     36 CB         27.5486  -48.3272  -57.9962 C.3       7 UNK        -0.1963 
     37 N          28.9143  -49.7454  -56.5291 N.am      7 UNK        -0.4444 
     38 C          28.8857  -51.0449  -56.8390 C.2       7 UNK         0.5104 
     39 O          27.8697  -51.6319  -57.2143 O.2       7 UNK        -0.5100 
     40 CA         30.2103  -51.8248  -56.6793 C.3       6 UNK         0.0396 
     41 CB         30.3733  -52.9382  -57.7359 C.3       6 UNK        -0.1801 
     42 N          31.4016  -50.9606  -56.6190 N.am      6 UNK        -0.4747 
     43 C          31.8799  -50.1733  -57.5980 C.2       6 UNK         0.5012 
     44 O          31.4112  -50.1411  -58.7362 O.2       6 UNK        -0.5003 
     45 CA         33.0473  -49.2278  -57.2540 C.3       5 UNK         0.0782 
     46 C46        32.5659  -47.7560  -57.2801 C.3       11 UNK        -0.0868 
     47 S47        33.9438  -46.5706  -57.1222 S.3       11 UNK        -0.2515 
     48 C48        33.3336  -45.1746  -58.1236 C.3       11 UNK         0.0199 
     49 N          33.6810  -49.5558  -55.9724 N.am      5 UNK        -0.4607 
     50 C          34.6797  -50.4332  -55.8243 C.2       4 UNK         0.5031 
     51 O          35.1010  -51.1480  -56.7337 O.2       4 UNK        -0.5119 
     52 CA         35.3324  -50.5151  -54.4386 C.3       4 UNK         0.0263 
     53 CB         36.2080  -49.2756  -54.1848 C.3       4 UNK        -0.1967 
     54 N          34.3350  -50.6268  -53.3716 N.am      4 UNK        -0.4237 
     55 C          34.2258  -51.6719  -52.5376 C.2       3 UNK         0.4908 
     56 O          34.9349  -52.6771  -52.6040 O.2       3 UNK        -0.5102 
     57 CA         33.1705  -51.5933  -51.4159 C.3       3 UNK         0.0241 
     58 CB         33.8400  -51.2417  -50.0767 C.3       3 UNK        -0.1971 
     59 N          32.0955  -50.6340  -51.6727 N.am      3 UNK        -0.4139 
     60 C          31.1486  -50.7799  -52.6079 C.2       2 UNK         0.5016 
     61 O          31.0461  -51.7714  -53.3284 O.2       2 UNK        -0.5319 
     62 CA         30.1761  -49.6054  -52.8046 C.3       2 UNK         0.0286 
     63 CB         28.8637  -49.8542  -52.0458 C.3       2 UNK        -0.1963 
     64 N          30.7142  -48.2910  -52.4323 N.am      2 UNK        -0.4790 
     65 C          31.7971  -47.7070  -52.9627 C.2       1 UNK         0.5024 
     66 O          32.5543  -48.2772  -53.7504 O.2       1 UNK        -0.4888 
     67 H67        31.3295  -46.8124  -48.1030 H         1 UNK         0.0892 
     68 H68        32.6462  -45.7346  -48.5719 H         1 UNK         0.0892 
     69 H69        31.0278  -45.0845  -48.3044 H         1 UNK         0.0892 
     70 H70        33.1394  -45.9186  -50.7174 H         1 UNK         0.3107 
     71 H71        33.1402  -46.0894  -52.8768 H         1 UNK         0.0773 
     72 H72        31.0864  -45.5032  -54.2695 H         1 UNK         0.0680 
     73 H73        30.2068  -45.2220  -52.7937 H         1 UNK         0.0680 
     74 H74        31.4514  -41.6572  -54.5457 H         1 UNK         0.0650 
     75 H75        29.9837  -42.4594  -54.0398 H         1 UNK         0.0650 
     76 H76        33.0716  -43.7032  -55.8545 H         1 UNK         0.1397 
     77 H77        30.7738  -45.3529  -59.0794 H         1 UNK         0.1363 
     78 H78        28.8195  -43.1553  -55.9676 H         1 UNK         0.1355 
     79 H79        28.3540  -45.3487  -58.9455 H         1 UNK         0.0707 
     80 H80        27.5780  -44.7790  -57.4876 H         1 UNK         0.0707 
     81 H81        25.7763  -44.4579  -59.1766 H         1 UNK         0.1034 
     82 H82        25.7259  -43.2228  -60.4036 H         1 UNK         0.1034 
     83 H83        25.3153  -41.4789  -58.6679 H         1 UNK         0.0482 
     84 H84        21.7298  -43.2157  -58.1599 H         1 UNK         0.3460 
     85 H85        23.0141  -43.3858  -56.9878 H         1 UNK         0.3460 
     86 H86        25.4946  -43.7050  -56.7189 H         1 UNK         0.2989 
     87 H87        26.0032  -41.4190  -54.1075 H         1 UNK         0.0559 
     88 H88        24.3302  -42.6940  -52.7938 H         1 UNK         0.0848 
     89 H89        23.5376  -41.5955  -53.9099 H         1 UNK         0.0848 
     90 H90        23.5997  -43.3116  -54.2741 H         1 UNK         0.0848 
     91 H91        27.2520  -43.1889  -53.8835 H         1 UNK         0.3144 
     92 H92        28.3140  -45.1930  -54.6075 H         1 UNK         0.0727 
     93 H93        28.1052  -46.7118  -52.6323 H         1 UNK         0.0790 
     94 H94        26.3524  -46.5211  -52.6408 H         1 UNK         0.0790 
     95 H95        27.3947  -45.1537  -52.2647 H         1 UNK         0.0790 
     96 H96        26.2514  -47.0219  -55.5238 H         1 UNK         0.3215 
     97 H97        26.9134  -49.2813  -56.1477 H         1 UNK         0.0863 
     98 H98        28.4360  -47.8616  -58.4273 H         1 UNK         0.0808 
     99 H99        26.7414  -47.5948  -58.0336 H         1 UNK         0.0808 
    100 H100       27.2614  -49.1571  -58.6420 H         1 UNK         0.0808 
    101 H101       29.7756  -49.3309  -56.1933 H         1 UNK         0.3118 
    102 H102       30.1460  -52.3161  -55.7089 H         1 UNK         0.0546 
    103 H103       31.3153  -53.4714  -57.6090 H         1 UNK         0.0828 
    104 H104       30.3426  -52.5450  -58.7522 H         1 UNK         0.0828 
    105 H105       29.5730  -53.6743  -57.6526 H         1 UNK         0.0828 
    106 H106       31.8658  -50.9242  -55.7212 H         1 UNK         0.3005 
    107 H107       33.7832  -49.3516  -58.0524 H         1 UNK         0.1257 
    108 H108       31.8537  -47.5626  -56.4755 H         1 UNK         0.0775 
    109 H109       32.0376  -47.5454  -58.2120 H         1 UNK         0.0775 
    110 H110       33.1736  -45.5061  -59.1508 H         1 UNK         0.0840 
    111 H111       34.1059  -44.4053  -58.1678 H         1 UNK         0.0840 
    112 H112       33.3777  -48.9970  -55.1776 H         1 UNK         0.2987 
    113 H113       35.9883  -51.3883  -54.4448 H         1 UNK         0.0785 
    114 H114       36.9549  -49.1567  -54.9711 H         1 UNK         0.0798 
    115 H115       35.6172  -48.3588  -54.1544 H         1 UNK         0.0798 
    116 H116       36.7440  -49.3587  -53.2392 H         1 UNK         0.0798 
    117 H117       33.6866  -49.8527  -53.2755 H         1 UNK         0.3079 
    118 H118       32.7217  -52.5848  -51.3240 H         1 UNK         0.0794 
    119 H119       33.1224  -51.2614  -49.2561 H         1 UNK         0.0786 
    120 H120       34.2975  -50.2517  -50.1011 H         1 UNK         0.0786 
    121 H121       34.6263  -51.9577  -49.8330 H         1 UNK         0.0786 
    122 H122       32.0965  -49.7831  -51.1293 H         1 UNK         0.3032 
    123 H123       29.9496  -49.5688  -53.8704 H         1 UNK         0.1094 
    124 H124       29.0118  -49.8295  -50.9655 H         1 UNK         0.0794 
    125 H125       28.1115  -49.1076  -52.2998 H         1 UNK         0.0794 
    126 H126       28.4440  -50.8293  -52.2975 H         1 UNK         0.0794 
    127 H127       30.1890  -47.7425  -51.7538 H         1 UNK         0.3016 
@<TRIPOS>BOND
     1    1    2 1    
     2    1   67 1    
     3    1   68 1    
     4    1   69 1    
     5    2    3 2    
     6    2    4 am   BACKBONE|DICT|INTERRES
     7    4    5 1    
     8    4   70 1    
     9    5    6 1    
    10    5   65 1    
    11    5   71 1    
    12    6    7 1    
    13    6   72 1    
    14    6   73 1    
    15    7    8 1    
    16    8    9 1    
    17    8   74 1    
    18    8   75 1    
    19    9   10 ar   
    20    9   14 ar   
    21   10   11 ar   
    22   10   76 1    
    23   11   12 ar   
    24   11   48 1    
    25   12   13 ar   
    26   12   77 1    
    27   13   14 ar   
    28   13   15 1    
    29   14   78 1    
    30   15   16 1    
    31   15   79 1    
    32   15   80 1    
    33   16   17 1    
    34   17   18 1    
    35   17   81 1    
    36   17   82 1    
    37   18   19 1    
    38   18   22 1    
    39   18   83 1    
    40   19   20 am   BACKBONE|DICT|INTERRES
    41   19   21 2    
    42   20   84 1    
    43   20   85 1    
    44   22   23 am   BACKBONE|DICT|INTERRES
    45   22   86 1    
    46   23   24 2    
    47   23   25 1    
    48   25   26 1    
    49   25   27 1    
    50   25   87 1    
    51   26   88 1    
    52   26   89 1    
    53   26   90 1    
    54   27   28 am   BACKBONE|DICT|INTERRES
    55   27   91 1    
    56   28   29 2    
    57   28   30 1    
    58   30   31 1    
    59   30   32 1    
    60   30   92 1    
    61   31   93 1    
    62   31   94 1    
    63   31   95 1    
    64   32   33 am   BACKBONE|DICT|INTERRES
    65   32   96 1    
    66   33   34 2    
    67   33   35 1    
    68   35   36 1    
    69   35   37 1    
    70   35   97 1    
    71   36   98 1    
    72   36   99 1    
    73   36  100 1    
    74   37   38 am   BACKBONE|DICT|INTERRES
    75   37  101 1    
    76   38   39 2    
    77   38   40 1    
    78   40   41 1    
    79   40   42 1    
    80   40  102 1    
    81   41  103 1    
    82   41  104 1    
    83   41  105 1    
    84   42   43 am   BACKBONE|DICT|INTERRES
    85   42  106 1    
    86   43   44 2    
    87   43   45 1    
    88   45   46 1    
    89   45   49 1    
    90   45  107 1    
    91   46   47 1    
    92   46  108 1    
    93   46  109 1    
    94   47   48 1    
    95   48  110 1    
    96   48  111 1    
    97   49   50 am   BACKBONE|DICT|INTERRES
    98   49  112 1    
    99   50   51 2    
   100   50   52 1    
   101   52   53 1    
   102   52   54 1    
   103   52  113 1    
   104   53  114 1    
   105   53  115 1    
   106   53  116 1    
   107   54   55 am   BACKBONE|DICT|INTERRES
   108   54  117 1    
   109   55   56 2    
   110   55   57 1    
   111   57   58 1    
   112   57   59 1    
   113   57  118 1    
   114   58  119 1    
   115   58  120 1    
   116   58  121 1    
   117   59   60 am   BACKBONE|DICT|INTERRES
   118   59  122 1    
   119   60   61 2    
   120   60   62 1    
   121   62   63 1    
   122   62   64 1    
   123   62  123 1    
   124   63  124 1    
   125   63  125 1    
   126   63  126 1    
   127   64   65 am   BACKBONE|DICT|INTERRES
   128   64  127 1    
   129   65   66 2    
@<TRIPOS>SUBSTRUCTURE
     1 UNK         1 GROUP             0       ****    0 ROOT    
