@<TRIPOS>MOLECULE
3R134
127   129    1
SMALL
USER_CHARGES


@<TRIPOS>ATOM
      1 CA         37.8446  -44.0175  -56.9396 C.3       0 UNK        -0.1968 
      2 C          36.4010  -44.4979  -56.9097 C.2       0 UNK         0.4852 
      3 O          35.7215  -44.4489  -57.9357 O.2       0 UNK        -0.5359 
      4 N          35.9297  -44.9549  -55.7407 N.am      1 UNK        -0.4300 
      5 CA         34.5793  -45.4903  -55.5300 C.3       1 UNK         0.0863 
      6 C6         34.2570  -45.6033  -54.0191 C.3       11 UNK        -0.0953 
      7 S7         32.4681  -45.6710  -53.6869 S.3       11 UNK        -0.2369 
      8 C8         32.1552  -43.9786  -53.1080 C.3       11 UNK         0.0226 
      9 C9         30.6846  -43.8006  -52.7773 C.ar      11 UNK        -0.0699 
     10 C10        30.2266  -43.9706  -51.4682 C.ar      11 UNK        -0.0804 
     11 C11        28.8652  -43.8494  -51.1723 C.ar      11 UNK        -0.0871 
     12 C12        27.9629  -43.5399  -52.1948 C.ar      11 UNK        -0.1008 
     13 C13        28.4130  -43.3737  -53.5088 C.ar      11 UNK        -0.0735 
     14 C14        29.7748  -43.4963  -53.7915 C.ar      11 UNK        -0.0945 
     15 C15        27.4291  -43.1045  -54.6341 C.3       11 UNK         0.0169 
     16 S16        26.4298  -44.5863  -54.9477 S.3       11 UNK        -0.2669 
     17 C17        25.8802  -44.3308  -56.6650 C.3       11 UNK        -0.0850 
     18 CA         26.4071  -45.4564  -57.6001 C.3       10 UNK         0.0855 
     19 C          25.6729  -45.4985  -58.9771 C.2       10 UNK         0.5543 
     20 N          26.3063  -45.9373  -60.0587 N.am      10 UNK        -0.7343 
     21 O          24.4947  -45.1618  -59.0662 O.2       10 UNK        -0.5027 
     22 N          27.8784  -45.5081  -57.6845 N.am      10 UNK        -0.4495 
     23 C          28.6768  -44.6082  -58.2769 C.2       10 UNK         0.4903 
     24 O          28.2939  -43.5102  -58.6816 O.2       10 UNK        -0.4860 
     25 CA         30.1483  -45.0152  -58.5110 C.3       9 UNK         0.0227 
     26 CB         31.0583  -44.4089  -57.4315 C.3       9 UNK        -0.1964 
     27 N          30.3748  -46.4646  -58.5649 N.am      9 UNK        -0.4231 
     28 C          29.7787  -47.3255  -59.4040 C.2       9 UNK         0.5014 
     29 O          29.0361  -46.9839  -60.3258 O.2       9 UNK        -0.5270 
     30 CA         29.9855  -48.8278  -59.1316 C.3       8 UNK         0.0284 
     31 CB         31.3678  -49.1529  -58.5324 C.3       8 UNK        -0.1977 
     32 N          28.9110  -49.4088  -58.3089 N.am      8 UNK        -0.4342 
     33 C          28.4533  -48.9660  -57.1271 C.2       8 UNK         0.5039 
     34 O          28.8781  -47.9622  -56.5494 O.2       8 UNK        -0.5547 
     35 CA         27.3159  -49.7679  -56.4823 C.3       7 UNK         0.0281 
     36 CB         27.8384  -51.0588  -55.8274 C.3       7 UNK        -0.1963 
     37 N          26.6913  -48.9231  -55.4689 N.am      7 UNK        -0.4444 
     38 C          25.4060  -48.9433  -55.1022 C.2       7 UNK         0.5104 
     39 O          24.5881  -49.7528  -55.5431 O.2       7 UNK        -0.5100 
     40 CA         24.9480  -47.8540  -54.1083 C.3       6 UNK         0.0396 
     41 CB         23.6890  -48.2544  -53.3091 C.3       6 UNK        -0.1801 
     42 N          26.0198  -47.3688  -53.2251 N.am      6 UNK        -0.4747 
     43 C          26.6475  -48.0603  -52.2626 C.2       6 UNK         0.5012 
     44 O          26.3446  -49.2098  -51.9318 O.2       6 UNK        -0.5003 
     45 CA         27.7964  -47.3348  -51.5236 C.3       5 UNK         0.0782 
     46 C46        27.2428  -46.6261  -50.2593 C.3       11 UNK        -0.0868 
     47 S47        28.5281  -45.8143  -49.2472 S.3       11 UNK        -0.2515 
     48 C48        28.3746  -44.0697  -49.7494 C.3       11 UNK         0.0199 
     49 N          28.8930  -48.2598  -51.2063 N.am      5 UNK        -0.4607 
     50 C          29.5933  -48.9553  -52.1112 C.2       4 UNK         0.5031 
     51 O          29.4211  -48.8510  -53.3272 O.2       4 UNK        -0.5119 
     52 CA         30.6313  -49.9523  -51.5570 C.3       4 UNK         0.0263 
     53 CB         29.9489  -51.0564  -50.7284 C.3       4 UNK        -0.1967 
     54 N          31.3748  -50.5855  -52.6477 N.am      4 UNK        -0.4237 
     55 C          32.4036  -50.0253  -53.2941 C.2       3 UNK         0.4908 
     56 O          32.9952  -49.0155  -52.9028 O.2       3 UNK        -0.5102 
     57 CA         32.8349  -50.7050  -54.6035 C.3       3 UNK         0.0241 
     58 CB         31.6233  -51.0529  -55.4985 C.3       3 UNK        -0.1971 
     59 N          33.7573  -49.8084  -55.2972 N.am      3 UNK        -0.4139 
     60 C          34.5517  -50.1121  -56.3289 C.2       2 UNK         0.5016 
     61 O          34.5816  -51.2270  -56.8528 O.2       2 UNK        -0.5319 
     62 CA         35.5152  -49.0213  -56.8466 C.3       2 UNK         0.0286 
     63 CB         35.4669  -48.8872  -58.3833 C.3       2 UNK        -0.1963 
     64 N          35.3960  -47.7024  -56.2033 N.am      2 UNK        -0.4790 
     65 C          34.3713  -46.8346  -56.2625 C.2       1 UNK         0.5024 
     66 O          33.3169  -47.0464  -56.8608 O.2       1 UNK        -0.4888 
     67 H67        38.3260  -44.1070  -55.9660 H         1 UNK         0.0892 
     68 H68        38.4194  -44.6030  -57.6568 H         1 UNK         0.0892 
     69 H69        37.8856  -42.9716  -57.2427 H         1 UNK         0.0892 
     70 H70        36.5360  -44.9546  -54.9326 H         1 UNK         0.3107 
     71 H71        33.8866  -44.7701  -55.9710 H         1 UNK         0.0773 
     72 H72        34.6698  -44.7483  -53.4812 H         1 UNK         0.0680 
     73 H73        34.7276  -46.4830  -53.5755 H         1 UNK         0.0680 
     74 H74        32.4562  -43.2676  -53.8790 H         1 UNK         0.0650 
     75 H75        32.7700  -43.7717  -52.2306 H         1 UNK         0.0650 
     76 H76        30.9255  -44.2220  -50.6819 H         1 UNK         0.1397 
     77 H77        26.9066  -43.4538  -51.9783 H         1 UNK         0.1363 
     78 H78        30.1267  -43.3774  -54.8060 H         1 UNK         0.1355 
     79 H79        27.9600  -42.8192  -55.5440 H         1 UNK         0.0707 
     80 H80        26.7773  -42.2697  -54.3728 H         1 UNK         0.0707 
     81 H81        24.7890  -44.3217  -56.6456 H         1 UNK         0.1034 
     82 H82        26.1796  -43.3473  -57.0294 H         1 UNK         0.1034 
     83 H83        26.1278  -46.4039  -57.1382 H         1 UNK         0.0482 
     84 H84        27.2763  -46.2357  -60.0205 H         1 UNK         0.3460 
     85 H85        25.8116  -45.9675  -60.9356 H         1 UNK         0.3460 
     86 H86        28.3046  -46.3657  -57.3387 H         1 UNK         0.2989 
     87 H87        30.4441  -44.6040  -59.4780 H         1 UNK         0.0559 
     88 H88        32.1098  -44.5391  -57.6876 H         1 UNK         0.0848 
     89 H89        30.8916  -44.8762  -56.4601 H         1 UNK         0.0848 
     90 H90        30.8831  -43.3380  -57.3205 H         1 UNK         0.0848 
     91 H91        30.9354  -46.8563  -57.8183 H         1 UNK         0.3144 
     92 H92        29.9319  -49.3206  -60.1038 H         1 UNK         0.0727 
     93 H93        32.1641  -48.6845  -59.1111 H         1 UNK         0.0790 
     94 H94        31.5559  -50.2260  -58.5408 H         1 UNK         0.0790 
     95 H95        31.4622  -48.8085  -57.5030 H         1 UNK         0.0790 
     96 H96        28.4626  -50.2211  -58.7102 H         1 UNK         0.3215 
     97 H97        26.5859  -50.0129  -57.2568 H         1 UNK         0.0863 
     98 H98        28.5504  -50.8408  -55.0307 H         1 UNK         0.0808 
     99 H99        28.3424  -51.6978  -56.5532 H         1 UNK         0.0808 
    100 H100       27.0237  -51.6392  -55.3941 H         1 UNK         0.0808 
    101 H101       27.3143  -48.2171  -55.0922 H         1 UNK         0.3118 
    102 H102       24.6681  -47.0008  -54.7269 H         1 UNK         0.0546 
    103 H103       23.8435  -49.1673  -52.7338 H         1 UNK         0.0828 
    104 H104       22.8455  -48.4350  -53.9764 H         1 UNK         0.0828 
    105 H105       23.3893  -47.4668  -52.6181 H         1 UNK         0.0828 
    106 H106       26.3376  -46.4288  -53.4316 H         1 UNK         0.3005 
    107 H107       28.2103  -46.5781  -52.1948 H         1 UNK         0.1257 
    108 H108       26.7332  -47.3460  -49.6154 H         1 UNK         0.0775 
    109 H109       26.4880  -45.8876  -50.5361 H         1 UNK         0.0775 
    110 H110       27.3400  -43.7435  -49.6323 H         1 UNK         0.0840 
    111 H111       28.9658  -43.4544  -49.0695 H         1 UNK         0.0840 
    112 H112       29.0798  -48.3968  -50.2243 H         1 UNK         0.2987 
    113 H113       31.3253  -49.4042  -50.9159 H         1 UNK         0.0785 
    114 H114       29.4481  -50.6443  -49.8517 H         1 UNK         0.0798 
    115 H115       30.6737  -51.7862  -50.3671 H         1 UNK         0.0798 
    116 H116       29.1966  -51.5904  -51.3109 H         1 UNK         0.0798 
    117 H117       30.9376  -51.3930  -53.0659 H         1 UNK         0.3079 
    118 H118       33.3723  -51.6197  -54.3458 H         1 UNK         0.0794 
    119 H119       31.0035  -51.8283  -55.0483 H         1 UNK         0.0786 
    120 H120       31.9310  -51.4330  -56.4717 H         1 UNK         0.0786 
    121 H121       30.9879  -50.1816  -55.6621 H         1 UNK         0.0786 
    122 H122       33.8131  -48.8844  -54.8860 H         1 UNK         0.3032 
    123 H123       36.5122  -49.3830  -56.5893 H         1 UNK         0.1094 
    124 H124       35.6765  -49.8408  -58.8695 H         1 UNK         0.0794 
    125 H125       34.4901  -48.5549  -58.7321 H         1 UNK         0.0794 
    126 H126       36.2090  -48.1736  -58.7414 H         1 UNK         0.0794 
    127 H127       36.2059  -47.4165  -55.6703 H         1 UNK         0.3016 
@<TRIPOS>BOND
     1    1    2 1    
     2    1   67 1    
     3    1   68 1    
     4    1   69 1    
     5    2    3 2    
     6    2    4 am   BACKBONE|DICT|INTERRES
     7    4    5 1    
     8    4   70 1    
     9    5    6 1    
    10    5   65 1    
    11    5   71 1    
    12    6    7 1    
    13    6   72 1    
    14    6   73 1    
    15    7    8 1    
    16    8    9 1    
    17    8   74 1    
    18    8   75 1    
    19    9   10 ar   
    20    9   14 ar   
    21   10   11 ar   
    22   10   76 1    
    23   11   12 ar   
    24   11   48 1    
    25   12   13 ar   
    26   12   77 1    
    27   13   14 ar   
    28   13   15 1    
    29   14   78 1    
    30   15   16 1    
    31   15   79 1    
    32   15   80 1    
    33   16   17 1    
    34   17   18 1    
    35   17   81 1    
    36   17   82 1    
    37   18   19 1    
    38   18   22 1    
    39   18   83 1    
    40   19   20 am   BACKBONE|DICT|INTERRES
    41   19   21 2    
    42   20   84 1    
    43   20   85 1    
    44   22   23 am   BACKBONE|DICT|INTERRES
    45   22   86 1    
    46   23   24 2    
    47   23   25 1    
    48   25   26 1    
    49   25   27 1    
    50   25   87 1    
    51   26   88 1    
    52   26   89 1    
    53   26   90 1    
    54   27   28 am   BACKBONE|DICT|INTERRES
    55   27   91 1    
    56   28   29 2    
    57   28   30 1    
    58   30   31 1    
    59   30   32 1    
    60   30   92 1    
    61   31   93 1    
    62   31   94 1    
    63   31   95 1    
    64   32   33 am   BACKBONE|DICT|INTERRES
    65   32   96 1    
    66   33   34 2    
    67   33   35 1    
    68   35   36 1    
    69   35   37 1    
    70   35   97 1    
    71   36   98 1    
    72   36   99 1    
    73   36  100 1    
    74   37   38 am   BACKBONE|DICT|INTERRES
    75   37  101 1    
    76   38   39 2    
    77   38   40 1    
    78   40   41 1    
    79   40   42 1    
    80   40  102 1    
    81   41  103 1    
    82   41  104 1    
    83   41  105 1    
    84   42   43 am   BACKBONE|DICT|INTERRES
    85   42  106 1    
    86   43   44 2    
    87   43   45 1    
    88   45   46 1    
    89   45   49 1    
    90   45  107 1    
    91   46   47 1    
    92   46  108 1    
    93   46  109 1    
    94   47   48 1    
    95   48  110 1    
    96   48  111 1    
    97   49   50 am   BACKBONE|DICT|INTERRES
    98   49  112 1    
    99   50   51 2    
   100   50   52 1    
   101   52   53 1    
   102   52   54 1    
   103   52  113 1    
   104   53  114 1    
   105   53  115 1    
   106   53  116 1    
   107   54   55 am   BACKBONE|DICT|INTERRES
   108   54  117 1    
   109   55   56 2    
   110   55   57 1    
   111   57   58 1    
   112   57   59 1    
   113   57  118 1    
   114   58  119 1    
   115   58  120 1    
   116   58  121 1    
   117   59   60 am   BACKBONE|DICT|INTERRES
   118   59  122 1    
   119   60   61 2    
   120   60   62 1    
   121   62   63 1    
   122   62   64 1    
   123   62  123 1    
   124   63  124 1    
   125   63  125 1    
   126   63  126 1    
   127   64   65 am   BACKBONE|DICT|INTERRES
   128   64  127 1    
   129   65   66 2    
@<TRIPOS>SUBSTRUCTURE
     1 UNK         1 GROUP             0       ****    0 ROOT    
