@<TRIPOS>MOLECULE
3R134
127   129    1
SMALL
USER_CHARGES


@<TRIPOS>ATOM
      1 CA         35.5388  -47.4723  -51.6276 C.3       0 UNK        -0.1968 
      2 C          34.7229  -47.2078  -52.8835 C.2       0 UNK         0.4852 
      3 O          33.5723  -47.6386  -52.9607 O.2       0 UNK        -0.5359 
      4 N          35.3119  -46.5130  -53.8691 N.am      1 UNK        -0.4300 
      5 CA         34.7413  -46.1461  -55.1757 C.3       1 UNK         0.0863 
      6 C6         33.4076  -45.3611  -55.0636 C.3       11 UNK        -0.0953 
      7 S7         33.1455  -44.2263  -56.4666 S.3       11 UNK        -0.2369 
      8 C8         33.0481  -42.6161  -55.6227 C.3       11 UNK         0.0226 
      9 C9         31.7442  -42.4700  -54.8521 C.ar      11 UNK        -0.0699 
     10 C10        31.7046  -42.6901  -53.4714 C.ar      11 UNK        -0.0804 
     11 C11        30.4999  -42.5853  -52.7706 C.ar      11 UNK        -0.0871 
     12 C12        29.3370  -42.2193  -53.4537 C.ar      11 UNK        -0.1008 
     13 C13        29.3644  -41.9967  -54.8329 C.ar      11 UNK        -0.0735 
     14 C14        30.5703  -42.1244  -55.5276 C.ar      11 UNK        -0.0945 
     15 C15        28.0860  -41.6419  -55.5728 C.3       11 UNK         0.0169 
     16 S16        26.9748  -43.0770  -55.6465 S.3       11 UNK        -0.2669 
     17 C17        25.7558  -42.5263  -56.8882 C.3       11 UNK        -0.0850 
     18 CA         25.9133  -43.2390  -58.2580 C.3       10 UNK         0.0855 
     19 C          27.1100  -42.6875  -59.0905 C.2       10 UNK         0.5543 
     20 N          28.0313  -43.5094  -59.5796 N.am      10 UNK        -0.7343 
     21 O          27.1948  -41.4819  -59.3114 O.2       10 UNK        -0.5027 
     22 N          25.8910  -44.7004  -58.1002 N.am      10 UNK        -0.4495 
     23 C          25.4774  -45.5706  -59.0260 C.2       10 UNK         0.4903 
     24 O          24.9843  -45.2390  -60.1057 O.2       10 UNK        -0.4860 
     25 CA         25.6527  -47.0613  -58.6765 C.3       9 UNK         0.0227 
     26 CB         25.4501  -47.9860  -59.8951 C.3       9 UNK        -0.1964 
     27 N          26.9272  -47.3736  -58.0144 N.am      9 UNK        -0.4231 
     28 C          28.1680  -47.1284  -58.4715 C.2       9 UNK         0.5014 
     29 O          28.4034  -46.4623  -59.4805 O.2       9 UNK        -0.5270 
     30 CA         29.3571  -47.7304  -57.6927 C.3       8 UNK         0.0284 
     31 CB         30.1852  -46.6316  -57.0069 C.3       8 UNK        -0.1977 
     32 N          28.9686  -48.7368  -56.7006 N.am      8 UNK        -0.4342 
     33 C          28.4828  -49.9532  -56.9884 C.2       8 UNK         0.5039 
     34 O          28.4012  -50.4060  -58.1302 O.2       8 UNK        -0.5547 
     35 CA         27.9596  -50.7923  -55.8100 C.3       7 UNK         0.0281 
     36 CB         29.0341  -51.7754  -55.3210 C.3       7 UNK        -0.1963 
     37 N          27.4882  -49.9734  -54.6877 N.am      7 UNK        -0.4444 
     38 C          26.3852  -49.2103  -54.7121 C.2       7 UNK         0.5104 
     39 O          25.6438  -49.1105  -55.6896 O.2       7 UNK        -0.5100 
     40 CA         26.0825  -48.3908  -53.4450 C.3       6 UNK         0.0396 
     41 CB         25.3631  -49.2570  -52.3992 C.3       6 UNK        -0.1801 
     42 N          27.2855  -47.8005  -52.8518 N.am      6 UNK        -0.4747 
     43 C          28.0178  -46.8344  -53.4289 C.2       6 UNK         0.5012 
     44 O          27.7218  -46.3118  -54.5018 O.2       6 UNK        -0.5003 
     45 CA         29.3236  -46.4261  -52.7114 C.3       5 UNK         0.0782 
     46 C46        29.0417  -45.3240  -51.6601 C.3       11 UNK        -0.0868 
     47 S47        30.5781  -44.6625  -50.9250 S.3       11 UNK        -0.2515 
     48 C48        30.4532  -42.8776  -51.2781 C.3       11 UNK         0.0199 
     49 N          30.0135  -47.5804  -52.1158 N.am      5 UNK        -0.4607 
     50 C          30.4442  -48.6548  -52.7873 C.2       4 UNK         0.5031 
     51 O          30.3223  -48.7972  -54.0085 O.2       4 UNK        -0.5119 
     52 CA         31.0422  -49.7911  -51.9469 C.3       4 UNK         0.0263 
     53 CB         29.9355  -50.5147  -51.1514 C.3       4 UNK        -0.1967 
     54 N          31.6962  -50.7116  -52.8678 N.am      4 UNK        -0.4237 
     55 C          32.4815  -51.7567  -52.5798 C.2       3 UNK         0.4908 
     56 O          32.7599  -52.1177  -51.4360 O.2       3 UNK        -0.5102 
     57 CA         33.0613  -52.5333  -53.7808 C.3       3 UNK         0.0241 
     58 CB         32.2082  -53.7758  -54.0853 C.3       3 UNK        -0.1971 
     59 N          33.1617  -51.7014  -54.9860 N.am      3 UNK        -0.4139 
     60 C          34.0656  -50.7238  -55.1351 C.2       2 UNK         0.5016 
     61 O          35.0190  -50.5625  -54.3696 O.2       2 UNK        -0.5319 
     62 CA         33.8538  -49.7217  -56.2805 C.3       2 UNK         0.0286 
     63 CB         32.5079  -49.8614  -57.0228 C.3       2 UNK        -0.1963 
     64 N          33.9337  -48.3971  -55.6772 N.am      2 UNK        -0.4790 
     65 C          34.6328  -47.3552  -56.1296 C.2       1 UNK         0.5024 
     66 O          35.2098  -47.3348  -57.2179 O.2       1 UNK        -0.4888 
     67 H67        35.0290  -47.0604  -50.7571 H         1 UNK         0.0892 
     68 H68        35.6546  -48.5457  -51.4794 H         1 UNK         0.0892 
     69 H69        36.5319  -47.0270  -51.6827 H         1 UNK         0.0892 
     70 H70        36.2711  -46.2214  -53.7397 H         1 UNK         0.3107 
     71 H71        35.4853  -45.4764  -55.6109 H         1 UNK         0.0773 
     72 H72        32.5476  -46.0261  -54.9711 H         1 UNK         0.0680 
     73 H73        33.4156  -44.7785  -54.1438 H         1 UNK         0.0680 
     74 H74        33.1206  -41.8234  -56.3687 H         1 UNK         0.0650 
     75 H75        33.9083  -42.4936  -54.9625 H         1 UNK         0.0650 
     76 H76        32.6058  -42.9641  -52.9405 H         1 UNK         0.1397 
     77 H77        28.3999  -42.1331  -52.9205 H         1 UNK         0.1363 
     78 H78        30.5961  -41.9671  -56.5974 H         1 UNK         0.1355 
     79 H79        27.5828  -40.8154  -55.0689 H         1 UNK         0.0707 
     80 H80        28.3126  -41.3016  -56.5844 H         1 UNK         0.0707 
     81 H81        24.7638  -42.7403  -56.4876 H         1 UNK         0.1034 
     82 H82        25.7896  -41.4408  -57.0002 H         1 UNK         0.1034 
     83 H83        25.0306  -42.9677  -58.8403 H         1 UNK         0.0482 
     84 H84        27.9750  -44.5124  -59.4384 H         1 UNK         0.3460 
     85 H85        28.7896  -43.1264  -60.1201 H         1 UNK         0.3460 
     86 H86        26.3102  -45.0505  -57.2496 H         1 UNK         0.2989 
     87 H87        24.8714  -47.2962  -57.9522 H         1 UNK         0.0559 
     88 H88        24.4567  -47.8569  -60.3265 H         1 UNK         0.0848 
     89 H89        25.5468  -49.0355  -59.6163 H         1 UNK         0.0848 
     90 H90        26.1769  -47.7804  -60.6819 H         1 UNK         0.0848 
     91 H91        26.8416  -47.9057  -57.1566 H         1 UNK         0.3144 
     92 H92        29.9988  -48.2226  -58.4263 H         1 UNK         0.0727 
     93 H93        29.5956  -46.0609  -56.2900 H         1 UNK         0.0790 
     94 H94        30.5752  -45.9226  -57.7384 H         1 UNK         0.0790 
     95 H95        31.0404  -47.0545  -56.4801 H         1 UNK         0.0790 
     96 H96        29.0748  -48.4825  -55.7246 H         1 UNK         0.3215 
     97 H97        27.1108  -51.3740  -56.1768 H         1 UNK         0.0863 
     98 H98        28.6657  -52.3972  -54.5049 H         1 UNK         0.0808 
     99 H99        29.9259  -51.2570  -54.9750 H         1 UNK         0.0808 
    100 H100       29.3403  -52.4455  -56.1256 H         1 UNK         0.0808 
    101 H101       28.0712  -49.9485  -53.8648 H         1 UNK         0.3118 
    102 H102       25.4123  -47.5763  -53.7288 H         1 UNK         0.0546 
    103 H103       25.9888  -50.0794  -52.0503 H         1 UNK         0.0828 
    104 H104       24.4538  -49.6937  -52.8148 H         1 UNK         0.0828 
    105 H105       25.0681  -48.6674  -51.5309 H         1 UNK         0.0828 
    106 H106       27.5943  -48.1735  -51.9658 H         1 UNK         0.3005 
    107 H107       29.9848  -46.0104  -53.4763 H         1 UNK         0.1257 
    108 H108       28.4195  -45.7135  -50.8522 H         1 UNK         0.0775 
    109 H109       28.4716  -44.5080  -52.1061 H         1 UNK         0.0775 
    110 H110       29.5382  -42.4849  -50.8317 H         1 UNK         0.0840 
    111 H111       31.2775  -42.3615  -50.7836 H         1 UNK         0.0840 
    112 H112       30.1759  -47.5279  -51.1207 H         1 UNK         0.2987 
    113 H113       31.7913  -49.3745  -51.2706 H         1 UNK         0.0785 
    114 H114       29.4112  -49.8291  -50.4849 H         1 UNK         0.0798 
    115 H115       30.3448  -51.3081  -50.5263 H         1 UNK         0.0798 
    116 H116       29.1928  -50.9639  -51.8118 H         1 UNK         0.0798 
    117 H117       31.5533  -50.4489  -53.8344 H         1 UNK         0.3079 
    118 H118       34.0635  -52.8687  -53.5044 H         1 UNK         0.0794 
    119 H119       32.6363  -54.3615  -54.8991 H         1 UNK         0.0786 
    120 H120       31.1872  -53.5122  -54.3610 H         1 UNK         0.0786 
    121 H121       32.1500  -54.4295  -53.2139 H         1 UNK         0.0786 
    122 H122       32.4328  -51.8001  -55.6774 H         1 UNK         0.3032 
    123 H123       34.6720  -49.8671  -56.9895 H         1 UNK         0.1094 
    124 H124       31.6579  -49.7419  -56.3504 H         1 UNK         0.0794 
    125 H125       32.4146  -49.1019  -57.7993 H         1 UNK         0.0794 
    126 H126       32.4192  -50.8293  -57.5174 H         1 UNK         0.0794 
    127 H127       33.5830  -48.3211  -54.7232 H         1 UNK         0.3016 
@<TRIPOS>BOND
     1    1    2 1    
     2    1   67 1    
     3    1   68 1    
     4    1   69 1    
     5    2    3 2    
     6    2    4 am   BACKBONE|DICT|INTERRES
     7    4    5 1    
     8    4   70 1    
     9    5    6 1    
    10    5   65 1    
    11    5   71 1    
    12    6    7 1    
    13    6   72 1    
    14    6   73 1    
    15    7    8 1    
    16    8    9 1    
    17    8   74 1    
    18    8   75 1    
    19    9   10 ar   
    20    9   14 ar   
    21   10   11 ar   
    22   10   76 1    
    23   11   12 ar   
    24   11   48 1    
    25   12   13 ar   
    26   12   77 1    
    27   13   14 ar   
    28   13   15 1    
    29   14   78 1    
    30   15   16 1    
    31   15   79 1    
    32   15   80 1    
    33   16   17 1    
    34   17   18 1    
    35   17   81 1    
    36   17   82 1    
    37   18   19 1    
    38   18   22 1    
    39   18   83 1    
    40   19   20 am   BACKBONE|DICT|INTERRES
    41   19   21 2    
    42   20   84 1    
    43   20   85 1    
    44   22   23 am   BACKBONE|DICT|INTERRES
    45   22   86 1    
    46   23   24 2    
    47   23   25 1    
    48   25   26 1    
    49   25   27 1    
    50   25   87 1    
    51   26   88 1    
    52   26   89 1    
    53   26   90 1    
    54   27   28 am   BACKBONE|DICT|INTERRES
    55   27   91 1    
    56   28   29 2    
    57   28   30 1    
    58   30   31 1    
    59   30   32 1    
    60   30   92 1    
    61   31   93 1    
    62   31   94 1    
    63   31   95 1    
    64   32   33 am   BACKBONE|DICT|INTERRES
    65   32   96 1    
    66   33   34 2    
    67   33   35 1    
    68   35   36 1    
    69   35   37 1    
    70   35   97 1    
    71   36   98 1    
    72   36   99 1    
    73   36  100 1    
    74   37   38 am   BACKBONE|DICT|INTERRES
    75   37  101 1    
    76   38   39 2    
    77   38   40 1    
    78   40   41 1    
    79   40   42 1    
    80   40  102 1    
    81   41  103 1    
    82   41  104 1    
    83   41  105 1    
    84   42   43 am   BACKBONE|DICT|INTERRES
    85   42  106 1    
    86   43   44 2    
    87   43   45 1    
    88   45   46 1    
    89   45   49 1    
    90   45  107 1    
    91   46   47 1    
    92   46  108 1    
    93   46  109 1    
    94   47   48 1    
    95   48  110 1    
    96   48  111 1    
    97   49   50 am   BACKBONE|DICT|INTERRES
    98   49  112 1    
    99   50   51 2    
   100   50   52 1    
   101   52   53 1    
   102   52   54 1    
   103   52  113 1    
   104   53  114 1    
   105   53  115 1    
   106   53  116 1    
   107   54   55 am   BACKBONE|DICT|INTERRES
   108   54  117 1    
   109   55   56 2    
   110   55   57 1    
   111   57   58 1    
   112   57   59 1    
   113   57  118 1    
   114   58  119 1    
   115   58  120 1    
   116   58  121 1    
   117   59   60 am   BACKBONE|DICT|INTERRES
   118   59  122 1    
   119   60   61 2    
   120   60   62 1    
   121   62   63 1    
   122   62   64 1    
   123   62  123 1    
   124   63  124 1    
   125   63  125 1    
   126   63  126 1    
   127   64   65 am   BACKBONE|DICT|INTERRES
   128   64  127 1    
   129   65   66 2    
@<TRIPOS>SUBSTRUCTURE
     1 UNK         1 GROUP             0       ****    0 ROOT    
