@<TRIPOS>MOLECULE
3R134
127   129    1
SMALL
USER_CHARGES


@<TRIPOS>ATOM
      1 CA         38.8998  -45.3791  -52.0758 C.3       0 UNK        -0.1968 
      2 C          37.8100  -46.0054  -52.9334 C.2       0 UNK         0.4852 
      3 O          38.0478  -47.0372  -53.5627 O.2       0 UNK        -0.5359 
      4 N          36.6223  -45.3850  -52.9653 N.am      1 UNK        -0.4300 
      5 CA         35.4465  -45.8444  -53.7155 C.3       1 UNK         0.0863 
      6 C6         34.3438  -44.7620  -53.7602 C.3       11 UNK        -0.0953 
      7 S7         34.8174  -43.3531  -54.8153 S.3       11 UNK        -0.2369 
      8 C8         33.5769  -42.1057  -54.3427 C.3       11 UNK         0.0226 
      9 C9         32.1545  -42.6339  -54.4674 C.ar      11 UNK        -0.0699 
     10 C10        31.4373  -42.9831  -53.3201 C.ar      11 UNK        -0.0804 
     11 C11        30.1411  -43.4957  -53.4183 C.ar      11 UNK        -0.0871 
     12 C12        29.5569  -43.6478  -54.6793 C.ar      11 UNK        -0.1008 
     13 C13        30.2630  -43.2974  -55.8346 C.ar      11 UNK        -0.0735 
     14 C14        31.5607  -42.7881  -55.7236 C.ar      11 UNK        -0.0945 
     15 C15        29.6197  -43.4743  -57.1999 C.3       11 UNK         0.0169 
     16 S16        28.4875  -42.0974  -57.5629 S.3       11 UNK        -0.2669 
     17 C17        27.7619  -42.6315  -59.1505 C.3       11 UNK        -0.0850 
     18 CA         26.3484  -43.2499  -58.9800 C.3       10 UNK         0.0855 
     19 C          25.6582  -43.4612  -60.3609 C.2       10 UNK         0.5543 
     20 N          25.3042  -44.6768  -60.7625 N.am      10 UNK        -0.7343 
     21 O          25.4332  -42.4934  -61.0834 O.2       10 UNK        -0.5027 
     22 N          26.3917  -44.4511  -58.1339 N.am      10 UNK        -0.4495 
     23 C          25.3559  -44.9729  -57.4671 C.2       10 UNK         0.4903 
     24 O          24.2438  -44.4464  -57.4066 O.2       10 UNK        -0.4860 
     25 CA         25.6191  -46.3163  -56.7540 C.3       9 UNK         0.0227 
     26 CB         24.3296  -47.1284  -56.5150 C.3       9 UNK        -0.1964 
     27 N          26.6328  -47.1513  -57.4158 N.am      9 UNK        -0.4231 
     28 C          26.6183  -47.5989  -58.6824 C.2       9 UNK         0.5014 
     29 O          25.7381  -47.3285  -59.5002 O.2       9 UNK        -0.5270 
     30 CA         27.7936  -48.4830  -59.1144 C.3       8 UNK         0.0284 
     31 CB         29.0444  -47.6313  -59.3970 C.3       8 UNK        -0.1977 
     32 N          28.0886  -49.4846  -58.0869 N.am      8 UNK        -0.4342 
     33 C          27.8173  -50.7908  -58.2054 C.2       8 UNK         0.5039 
     34 O          27.3450  -51.3064  -59.2199 O.2       8 UNK        -0.5547 
     35 CA         28.1239  -51.6879  -56.9955 C.3       7 UNK         0.0281 
     36 CB         29.5823  -52.1735  -57.0319 C.3       7 UNK        -0.1963 
     37 N          27.8469  -51.0601  -55.7013 N.am      7 UNK        -0.4444 
     38 C          26.6166  -50.8184  -55.2240 C.2       7 UNK         0.5104 
     39 O          25.5830  -51.0089  -55.8649 O.2       7 UNK        -0.5100 
     40 CA         26.5168  -50.3002  -53.7815 C.3       6 UNK         0.0396 
     41 CB         26.7168  -51.4526  -52.7835 C.3       6 UNK        -0.1801 
     42 N          27.5123  -49.2616  -53.5232 N.am      6 UNK        -0.4747 
     43 C          27.2438  -47.9525  -53.4138 C.2       6 UNK         0.5012 
     44 O          26.1063  -47.4827  -53.4334 O.2       6 UNK        -0.5003 
     45 CA         28.4443  -46.9917  -53.2666 C.3       5 UNK         0.0782 
     46 C46        28.6170  -46.5833  -51.7834 C.3       11 UNK        -0.0868 
     47 S47        30.0125  -45.4496  -51.4800 S.3       11 UNK        -0.2515 
     48 C48        29.3875  -43.8778  -52.1536 C.3       11 UNK         0.0199 
     49 N          29.6819  -47.5195  -53.8515 N.am      5 UNK        -0.4607 
     50 C          29.8492  -47.8176  -55.1467 C.2       4 UNK         0.5031 
     51 O          28.9818  -47.6432  -56.0023 O.2       4 UNK        -0.5119 
     52 CA         31.1668  -48.4956  -55.5571 C.3       4 UNK         0.0263 
     53 CB         32.1427  -47.4543  -56.1195 C.3       4 UNK        -0.1967 
     54 N          31.8086  -49.2712  -54.4855 N.am      4 UNK        -0.4237 
     55 C          31.2281  -50.2910  -53.8290 C.2       3 UNK         0.4908 
     56 O          30.0775  -50.6701  -54.0547 O.2       3 UNK        -0.5102 
     57 CA         32.0270  -51.0120  -52.7296 C.3       3 UNK         0.0241 
     58 CB         32.4978  -52.3858  -53.2334 C.3       3 UNK        -0.1971 
     59 N          33.1792  -50.2685  -52.2166 N.am      3 UNK        -0.4139 
     60 C          33.1264  -49.1199  -51.5278 C.2       2 UNK         0.5016 
     61 O          32.0791  -48.5302  -51.2596 O.2       2 UNK        -0.5319 
     62 CA         34.4725  -48.5143  -51.0773 C.3       2 UNK         0.0286 
     63 CB         35.6457  -49.5210  -51.0896 C.3       2 UNK        -0.1963 
     64 N          34.8477  -47.3154  -51.8385 N.am      2 UNK        -0.4790 
     65 C          34.8876  -47.1767  -53.1743 C.2       1 UNK         0.5024 
     66 O          34.5323  -48.0478  -53.9708 O.2       1 UNK        -0.4888 
     67 H67        38.5583  -44.4710  -51.5794 H         1 UNK         0.0892 
     68 H68        39.7618  -45.1243  -52.6918 H         1 UNK         0.0892 
     69 H69        39.2243  -46.0825  -51.3095 H         1 UNK         0.0892 
     70 H70        36.5013  -44.5250  -52.4497 H         1 UNK         0.3107 
     71 H71        35.7694  -46.0425  -54.7403 H         1 UNK         0.0773 
     72 H72        34.1129  -44.4029  -52.7555 H         1 UNK         0.0680 
     73 H73        33.4127  -45.1642  -54.1581 H         1 UNK         0.0680 
     74 H74        33.7778  -41.7745  -53.3227 H         1 UNK         0.0650 
     75 H75        33.6969  -41.2277  -54.9788 H         1 UNK         0.0650 
     76 H76        31.8932  -42.8718  -52.3456 H         1 UNK         0.1397 
     77 H77        28.5496  -44.0288  -54.7694 H         1 UNK         0.1363 
     78 H78        32.1141  -42.5195  -56.6132 H         1 UNK         0.1355 
     79 H79        29.0789  -44.4210  -57.2239 H         1 UNK         0.0707 
     80 H80        30.3823  -43.5327  -57.9783 H         1 UNK         0.0707 
     81 H81        28.4333  -43.3287  -59.6552 H         1 UNK         0.1034 
     82 H82        27.7146  -41.7485  -59.7911 H         1 UNK         0.1034 
     83 H83        25.7338  -42.5121  -58.4606 H         1 UNK         0.0482 
     84 H84        25.4683  -45.4952  -60.1851 H         1 UNK         0.3460 
     85 H85        24.8557  -44.7838  -61.6581 H         1 UNK         0.3460 
     86 H86        27.2576  -44.9657  -58.1391 H         1 UNK         0.2989 
     87 H87        26.0325  -46.0574  -55.7789 H         1 UNK         0.0559 
     88 H88        24.5415  -48.0569  -55.9841 H         1 UNK         0.0848 
     89 H89        23.8324  -47.3822  -57.4517 H         1 UNK         0.0848 
     90 H90        23.6184  -46.5671  -55.9080 H         1 UNK         0.0848 
     91 H91        27.4503  -47.3715  -56.8474 H         1 UNK         0.3144 
     92 H92        27.5094  -48.9683  -60.0505 H         1 UNK         0.0727 
     93 H93        29.8731  -48.2521  -59.7377 H         1 UNK         0.0790 
     94 H94        29.3816  -47.0811  -58.5188 H         1 UNK         0.0790 
     95 H95        28.8458  -46.8997  -60.1815 H         1 UNK         0.0790 
     96 H96        28.4488  -49.1346  -57.2061 H         1 UNK         0.3215 
     97 H97        27.4812  -52.5676  -57.0765 H         1 UNK         0.0863 
     98 H98        29.7886  -52.8709  -56.2197 H         1 UNK         0.0808 
     99 H99        30.2889  -51.3486  -56.9498 H         1 UNK         0.0808 
    100 H100       29.7964  -52.6931  -57.9669 H         1 UNK         0.0808 
    101 H101       28.6485  -50.9072  -55.0909 H         1 UNK         0.3118 
    102 H102       25.5077  -49.9075  -53.6396 H         1 UNK         0.0546 
    103 H103       25.9922  -52.2494  -52.9568 H         1 UNK         0.0828 
    104 H104       26.5836  -51.1121  -51.7567 H         1 UNK         0.0828 
    105 H105       27.7119  -51.8926  -52.8626 H         1 UNK         0.0828 
    106 H106       28.4825  -49.5590  -53.5205 H         1 UNK         0.3005 
    107 H107       28.1816  -46.1000  -53.8359 H         1 UNK         0.1257 
    108 H108       28.7836  -47.4695  -51.1675 H         1 UNK         0.0775 
    109 H109       27.7057  -46.1188  -51.4009 H         1 UNK         0.0775 
    110 H110       28.3145  -43.9362  -52.3418 H         1 UNK         0.0840 
    111 H111       29.5193  -43.0966  -51.4035 H         1 UNK         0.0840 
    112 H112       30.4422  -47.6885  -53.2063 H         1 UNK         0.2987 
    113 H113       30.9297  -49.1933  -56.3608 H         1 UNK         0.0785 
    114 H114       32.3998  -46.7088  -55.3703 H         1 UNK         0.0798 
    115 H115       31.7047  -46.9243  -56.9666 H         1 UNK         0.0798 
    116 H116       33.0663  -47.9171  -56.4676 H         1 UNK         0.0798 
    117 H117       32.7569  -49.0047  -54.2369 H         1 UNK         0.3079 
    118 H118       31.3412  -51.1717  -51.8949 H         1 UNK         0.0794 
    119 H119       33.2062  -52.2925  -54.0576 H         1 UNK         0.0786 
    120 H120       31.6564  -52.9802  -53.5933 H         1 UNK         0.0786 
    121 H121       32.9778  -52.9577  -52.4390 H         1 UNK         0.0786 
    122 H122       34.0905  -50.6543  -52.4172 H         1 UNK         0.3032 
    123 H123       34.3229  -48.1969  -50.0437 H         1 UNK         0.1094 
    124 H124       35.9194  -49.8269  -52.1002 H         1 UNK         0.0794 
    125 H125       36.5345  -49.0849  -50.6331 H         1 UNK         0.0794 
    126 H126       35.4057  -50.4191  -50.5183 H         1 UNK         0.0794 
    127 H127       35.1335  -46.5221  -51.2819 H         1 UNK         0.3016 
@<TRIPOS>BOND
     1    1    2 1    
     2    1   67 1    
     3    1   68 1    
     4    1   69 1    
     5    2    3 2    
     6    2    4 am   BACKBONE|DICT|INTERRES
     7    4    5 1    
     8    4   70 1    
     9    5    6 1    
    10    5   65 1    
    11    5   71 1    
    12    6    7 1    
    13    6   72 1    
    14    6   73 1    
    15    7    8 1    
    16    8    9 1    
    17    8   74 1    
    18    8   75 1    
    19    9   10 ar   
    20    9   14 ar   
    21   10   11 ar   
    22   10   76 1    
    23   11   12 ar   
    24   11   48 1    
    25   12   13 ar   
    26   12   77 1    
    27   13   14 ar   
    28   13   15 1    
    29   14   78 1    
    30   15   16 1    
    31   15   79 1    
    32   15   80 1    
    33   16   17 1    
    34   17   18 1    
    35   17   81 1    
    36   17   82 1    
    37   18   19 1    
    38   18   22 1    
    39   18   83 1    
    40   19   20 am   BACKBONE|DICT|INTERRES
    41   19   21 2    
    42   20   84 1    
    43   20   85 1    
    44   22   23 am   BACKBONE|DICT|INTERRES
    45   22   86 1    
    46   23   24 2    
    47   23   25 1    
    48   25   26 1    
    49   25   27 1    
    50   25   87 1    
    51   26   88 1    
    52   26   89 1    
    53   26   90 1    
    54   27   28 am   BACKBONE|DICT|INTERRES
    55   27   91 1    
    56   28   29 2    
    57   28   30 1    
    58   30   31 1    
    59   30   32 1    
    60   30   92 1    
    61   31   93 1    
    62   31   94 1    
    63   31   95 1    
    64   32   33 am   BACKBONE|DICT|INTERRES
    65   32   96 1    
    66   33   34 2    
    67   33   35 1    
    68   35   36 1    
    69   35   37 1    
    70   35   97 1    
    71   36   98 1    
    72   36   99 1    
    73   36  100 1    
    74   37   38 am   BACKBONE|DICT|INTERRES
    75   37  101 1    
    76   38   39 2    
    77   38   40 1    
    78   40   41 1    
    79   40   42 1    
    80   40  102 1    
    81   41  103 1    
    82   41  104 1    
    83   41  105 1    
    84   42   43 am   BACKBONE|DICT|INTERRES
    85   42  106 1    
    86   43   44 2    
    87   43   45 1    
    88   45   46 1    
    89   45   49 1    
    90   45  107 1    
    91   46   47 1    
    92   46  108 1    
    93   46  109 1    
    94   47   48 1    
    95   48  110 1    
    96   48  111 1    
    97   49   50 am   BACKBONE|DICT|INTERRES
    98   49  112 1    
    99   50   51 2    
   100   50   52 1    
   101   52   53 1    
   102   52   54 1    
   103   52  113 1    
   104   53  114 1    
   105   53  115 1    
   106   53  116 1    
   107   54   55 am   BACKBONE|DICT|INTERRES
   108   54  117 1    
   109   55   56 2    
   110   55   57 1    
   111   57   58 1    
   112   57   59 1    
   113   57  118 1    
   114   58  119 1    
   115   58  120 1    
   116   58  121 1    
   117   59   60 am   BACKBONE|DICT|INTERRES
   118   59  122 1    
   119   60   61 2    
   120   60   62 1    
   121   62   63 1    
   122   62   64 1    
   123   62  123 1    
   124   63  124 1    
   125   63  125 1    
   126   63  126 1    
   127   64   65 am   BACKBONE|DICT|INTERRES
   128   64  127 1    
   129   65   66 2    
@<TRIPOS>SUBSTRUCTURE
     1 UNK         1 GROUP             0       ****    0 ROOT    
