@<TRIPOS>MOLECULE
3R134
127   129    1
SMALL
USER_CHARGES


@<TRIPOS>ATOM
      1 CA         36.6911  -44.6064  -47.9508 C.3       0 UNK        -0.1968 
      2 C          36.0877  -44.7827  -49.3367 C.2       0 UNK         0.4852 
      3 O          36.8280  -44.8941  -50.3154 O.2       0 UNK        -0.5359 
      4 N          34.7513  -44.8006  -49.4278 N.am      1 UNK        -0.4300 
      5 CA         33.9988  -45.0294  -50.6638 C.3       1 UNK         0.0863 
      6 C6         32.5324  -44.5560  -50.5054 C.3       11 UNK        -0.0953 
      7 S7         31.6346  -44.4640  -52.0862 S.3       11 UNK        -0.2369 
      8 C8         32.1403  -42.8258  -52.6964 C.3       11 UNK         0.0226 
      9 C9         31.7095  -42.6676  -54.1434 C.ar      11 UNK        -0.0699 
     10 C10        32.4548  -43.2758  -55.1574 C.ar      11 UNK        -0.0804 
     11 C11        31.9942  -43.2646  -56.4768 C.ar      11 UNK        -0.0871 
     12 C12        30.8218  -42.5714  -56.7893 C.ar      11 UNK        -0.1008 
     13 C13        30.0775  -41.9465  -55.7865 C.ar      11 UNK        -0.0735 
     14 C14        30.5274  -41.9931  -54.4634 C.ar      11 UNK        -0.0945 
     15 C15        28.7557  -41.2789  -56.1258 C.3       11 UNK         0.0169 
     16 S16        27.3818  -42.4689  -55.9754 S.3       11 UNK        -0.2669 
     17 C17        26.6517  -42.4834  -57.6541 C.3       11 UNK        -0.0850 
     18 CA         26.7966  -43.8305  -58.4231 C.3       10 UNK         0.0855 
     19 C          28.2224  -44.0962  -58.9721 C.2       10 UNK         0.5543 
     20 N          28.7213  -43.2295  -59.8437 N.am      10 UNK        -0.7343 
     21 O          28.8761  -45.0812  -58.6373 O.2       10 UNK        -0.5027 
     22 N          26.2800  -44.9843  -57.6782 N.am      10 UNK        -0.4495 
     23 C          24.9874  -45.2572  -57.4727 C.2       10 UNK         0.4903 
     24 O          24.0643  -44.5322  -57.8493 O.2       10 UNK        -0.4860 
     25 CA         24.6865  -46.5768  -56.7389 C.3       9 UNK         0.0227 
     26 CB         23.1816  -46.9108  -56.6606 C.3       9 UNK        -0.1964 
     27 N          25.4515  -47.6937  -57.3003 N.am      9 UNK        -0.4231 
     28 C          25.3879  -48.2012  -58.5405 C.2       9 UNK         0.5014 
     29 O          24.5845  -47.8373  -59.4004 O.2       9 UNK        -0.5270 
     30 CA         26.4116  -49.2965  -58.8951 C.3       8 UNK         0.0284 
     31 CB         27.5999  -48.6816  -59.6527 C.3       8 UNK        -0.1977 
     32 N          26.9090  -50.0350  -57.7291 N.am      8 UNK        -0.4342 
     33 C          26.1719  -50.8838  -56.9976 C.2       8 UNK         0.5039 
     34 O          25.0116  -51.1940  -57.2713 O.2       8 UNK        -0.5547 
     35 CA         26.8275  -51.4699  -55.7360 C.3       7 UNK         0.0281 
     36 CB         27.7265  -52.6641  -56.0946 C.3       7 UNK        -0.1963 
     37 N          27.5978  -50.4774  -54.9818 N.am      7 UNK        -0.4444 
     38 C          27.0716  -49.4181  -54.3491 C.2       7 UNK         0.5104 
     39 O          25.8644  -49.1875  -54.2839 O.2       7 UNK        -0.5100 
     40 CA         28.0603  -48.4197  -53.7198 C.3       6 UNK         0.0396 
     41 CB         28.5479  -48.9120  -52.3489 C.3       6 UNK        -0.1801 
     42 N          29.2080  -48.1409  -54.5862 N.am      6 UNK        -0.4747 
     43 C          29.1210  -47.5543  -55.7906 C.2       6 UNK         0.5012 
     44 O          28.0674  -47.1396  -56.2731 O.2       6 UNK        -0.5003 
     45 CA         30.4231  -47.4460  -56.6053 C.3       5 UNK         0.0782 
     46 C46        31.1959  -46.1805  -56.1816 C.3       11 UNK        -0.0868 
     47 S47        32.7383  -45.8923  -57.1261 S.3       11 UNK        -0.2515 
     48 C48        32.6830  -44.1073  -57.5436 C.3       11 UNK         0.0199 
     49 N          31.2216  -48.6693  -56.4915 N.am      5 UNK        -0.4607 
     50 C          30.8573  -49.8536  -57.0010 C.2       4 UNK         0.5031 
     51 O          29.8229  -50.0336  -57.6428 O.2       4 UNK        -0.5119 
     52 CA         31.7771  -51.0481  -56.7014 C.3       4 UNK         0.0263 
     53 CB         32.9903  -51.0493  -57.6450 C.3       4 UNK        -0.1967 
     54 N          32.2332  -51.0711  -55.3094 N.am      4 UNK        -0.4237 
     55 C          31.4253  -51.2155  -54.2483 C.2       3 UNK         0.4908 
     56 O          30.2126  -51.4002  -54.3331 O.2       3 UNK        -0.5102 
     57 CA         32.0670  -51.0977  -52.8558 C.3       3 UNK         0.0241 
     58 CB         32.5218  -52.4775  -52.3547 C.3       3 UNK        -0.1971 
     59 N          33.1932  -50.1604  -52.8078 N.am      3 UNK        -0.4139 
     60 C          33.1027  -48.8447  -53.0467 C.2       2 UNK         0.5016 
     61 O          32.0555  -48.2703  -53.3578 O.2       2 UNK        -0.5319 
     62 CA         34.4241  -48.0624  -53.0054 C.3       2 UNK         0.0286 
     63 CB         34.9912  -47.9046  -54.4253 C.3       2 UNK        -0.1963 
     64 N          34.2617  -46.7377  -52.4074 N.am      2 UNK        -0.4790 
     65 C          34.1089  -46.5090  -51.0966 C.2       1 UNK         0.5024 
     66 O          34.0691  -47.4019  -50.2454 O.2       1 UNK        -0.4888 
     67 H67        37.3162  -43.7142  -47.9244 H         1 UNK         0.0892 
     68 H68        35.9255  -44.5063  -47.1816 H         1 UNK         0.0892 
     69 H69        37.3125  -45.4658  -47.7005 H         1 UNK         0.0892 
     70 H70        34.1984  -44.7387  -48.5849 H         1 UNK         0.3107 
     71 H71        34.4694  -44.4171  -51.4360 H         1 UNK         0.0773 
     72 H72        32.5019  -43.5671  -50.0446 H         1 UNK         0.0680 
     73 H73        31.9831  -45.2178  -49.8330 H         1 UNK         0.0680 
     74 H74        33.2226  -42.7139  -52.6209 H         1 UNK         0.0650 
     75 H75        31.6982  -42.0493  -52.0702 H         1 UNK         0.0650 
     76 H76        33.3462  -43.8346  -54.9075 H         1 UNK         0.1397 
     77 H77        30.4531  -42.5689  -57.8046 H         1 UNK         0.1363 
     78 H78        29.9347  -41.5425  -53.6790 H         1 UNK         0.1355 
     79 H79        28.8033  -40.8514  -57.1279 H         1 UNK         0.0707 
     80 H80        28.5747  -40.4426  -55.4489 H         1 UNK         0.0707 
     81 H81        25.5907  -42.2587  -57.5375 H         1 UNK         0.1034 
     82 H82        27.0399  -41.6560  -58.2485 H         1 UNK         0.1034 
     83 H83        26.1772  -43.7555  -59.3193 H         1 UNK         0.0482 
     84 H84        29.6366  -43.4007  -60.2279 H         1 UNK         0.3460 
     85 H85        28.1904  -42.4320  -60.1559 H         1 UNK         0.3460 
     86 H86        26.9907  -45.6351  -57.3554 H         1 UNK         0.2989 
     87 H87        25.0481  -46.4487  -55.7175 H         1 UNK         0.0559 
     88 H88        22.6365  -46.1272  -56.1332 H         1 UNK         0.0848 
     89 H89        23.0118  -47.8431  -56.1219 H         1 UNK         0.0848 
     90 H90        22.7329  -47.0075  -57.6496 H         1 UNK         0.0848 
     91 H91        26.2178  -48.0128  -56.7182 H         1 UNK         0.3144 
     92 H92        25.9154  -50.0084  -59.5580 H         1 UNK         0.0727 
     93 H93        28.1389  -47.9597  -59.0379 H         1 UNK         0.0790 
     94 H94        27.2640  -48.1580  -60.5487 H         1 UNK         0.0790 
     95 H95        28.3083  -49.4468  -59.9707 H         1 UNK         0.0790 
     96 H96        27.8882  -49.9014  -57.4872 H         1 UNK         0.3215 
     97 H97        26.0274  -51.8313  -55.0863 H         1 UNK         0.0863 
     98 H98        28.1258  -53.1414  -55.1995 H         1 UNK         0.0808 
     99 H99        28.5704  -52.3632  -56.7162 H         1 UNK         0.0808 
    100 H100       27.1681  -53.4224  -56.6450 H         1 UNK         0.0808 
    101 H101       28.6017  -50.6330  -54.9160 H         1 UNK         0.3118 
    102 H102       27.5302  -47.4769  -53.5686 H         1 UNK         0.0546 
    103 H103       29.0507  -49.8758  -52.4195 H         1 UNK         0.0828 
    104 H104       27.7104  -49.0336  -51.6608 H         1 UNK         0.0828 
    105 H105       29.2419  -48.2038  -51.8953 H         1 UNK         0.0828 
    106 H106       30.1251  -48.4087  -54.2428 H         1 UNK         0.3005 
    107 H107       30.1385  -47.3299  -57.6537 H         1 UNK         0.1257 
    108 H108       30.5274  -45.3278  -56.3014 H         1 UNK         0.0775 
    109 H109       31.4544  -46.2162  -55.1211 H         1 UNK         0.0775 
    110 H110       33.7002  -43.7429  -57.6925 H         1 UNK         0.0840 
    111 H111       32.1747  -43.9992  -58.5032 H         1 UNK         0.0840 
    112 H112       32.0655  -48.6018  -55.9427 H         1 UNK         0.2987 
    113 H113       31.2034  -51.9601  -56.8802 H         1 UNK         0.0785 
    114 H114       32.6711  -51.0473  -58.6883 H         1 UNK         0.0798 
    115 H115       33.6060  -51.9370  -57.4987 H         1 UNK         0.0798 
    116 H116       33.6226  -50.1728  -57.4966 H         1 UNK         0.0798 
    117 H117       33.2199  -50.9370  -55.1468 H         1 UNK         0.3079 
    118 H118       31.3013  -50.7241  -52.1734 H         1 UNK         0.0794 
    119 H119       32.8934  -52.4258  -51.3310 H         1 UNK         0.0786 
    120 H120       33.3119  -52.8963  -52.9793 H         1 UNK         0.0786 
    121 H121       31.6923  -53.1864  -52.3599 H         1 UNK         0.0786 
    122 H122       34.0932  -50.5520  -52.5688 H         1 UNK         0.3032 
    123 H123       35.1471  -48.6190  -52.4042 H         1 UNK         0.1094 
    124 H124       34.3152  -47.3401  -55.0675 H         1 UNK         0.0794 
    125 H125       35.9512  -47.3880  -54.4144 H         1 UNK         0.0794 
    126 H126       35.1538  -48.8752  -54.8957 H         1 UNK         0.0794 
    127 H127       34.2188  -45.9577  -53.0463 H         1 UNK         0.3016 
@<TRIPOS>BOND
     1    1    2 1    
     2    1   67 1    
     3    1   68 1    
     4    1   69 1    
     5    2    3 2    
     6    2    4 am   BACKBONE|DICT|INTERRES
     7    4    5 1    
     8    4   70 1    
     9    5    6 1    
    10    5   65 1    
    11    5   71 1    
    12    6    7 1    
    13    6   72 1    
    14    6   73 1    
    15    7    8 1    
    16    8    9 1    
    17    8   74 1    
    18    8   75 1    
    19    9   10 ar   
    20    9   14 ar   
    21   10   11 ar   
    22   10   76 1    
    23   11   12 ar   
    24   11   48 1    
    25   12   13 ar   
    26   12   77 1    
    27   13   14 ar   
    28   13   15 1    
    29   14   78 1    
    30   15   16 1    
    31   15   79 1    
    32   15   80 1    
    33   16   17 1    
    34   17   18 1    
    35   17   81 1    
    36   17   82 1    
    37   18   19 1    
    38   18   22 1    
    39   18   83 1    
    40   19   20 am   BACKBONE|DICT|INTERRES
    41   19   21 2    
    42   20   84 1    
    43   20   85 1    
    44   22   23 am   BACKBONE|DICT|INTERRES
    45   22   86 1    
    46   23   24 2    
    47   23   25 1    
    48   25   26 1    
    49   25   27 1    
    50   25   87 1    
    51   26   88 1    
    52   26   89 1    
    53   26   90 1    
    54   27   28 am   BACKBONE|DICT|INTERRES
    55   27   91 1    
    56   28   29 2    
    57   28   30 1    
    58   30   31 1    
    59   30   32 1    
    60   30   92 1    
    61   31   93 1    
    62   31   94 1    
    63   31   95 1    
    64   32   33 am   BACKBONE|DICT|INTERRES
    65   32   96 1    
    66   33   34 2    
    67   33   35 1    
    68   35   36 1    
    69   35   37 1    
    70   35   97 1    
    71   36   98 1    
    72   36   99 1    
    73   36  100 1    
    74   37   38 am   BACKBONE|DICT|INTERRES
    75   37  101 1    
    76   38   39 2    
    77   38   40 1    
    78   40   41 1    
    79   40   42 1    
    80   40  102 1    
    81   41  103 1    
    82   41  104 1    
    83   41  105 1    
    84   42   43 am   BACKBONE|DICT|INTERRES
    85   42  106 1    
    86   43   44 2    
    87   43   45 1    
    88   45   46 1    
    89   45   49 1    
    90   45  107 1    
    91   46   47 1    
    92   46  108 1    
    93   46  109 1    
    94   47   48 1    
    95   48  110 1    
    96   48  111 1    
    97   49   50 am   BACKBONE|DICT|INTERRES
    98   49  112 1    
    99   50   51 2    
   100   50   52 1    
   101   52   53 1    
   102   52   54 1    
   103   52  113 1    
   104   53  114 1    
   105   53  115 1    
   106   53  116 1    
   107   54   55 am   BACKBONE|DICT|INTERRES
   108   54  117 1    
   109   55   56 2    
   110   55   57 1    
   111   57   58 1    
   112   57   59 1    
   113   57  118 1    
   114   58  119 1    
   115   58  120 1    
   116   58  121 1    
   117   59   60 am   BACKBONE|DICT|INTERRES
   118   59  122 1    
   119   60   61 2    
   120   60   62 1    
   121   62   63 1    
   122   62   64 1    
   123   62  123 1    
   124   63  124 1    
   125   63  125 1    
   126   63  126 1    
   127   64   65 am   BACKBONE|DICT|INTERRES
   128   64  127 1    
   129   65   66 2    
@<TRIPOS>SUBSTRUCTURE
     1 UNK         1 GROUP             0       ****    0 ROOT    
