@<TRIPOS>MOLECULE
3R134
127   129    1
SMALL
USER_CHARGES


@<TRIPOS>ATOM
      1 CA         27.6058  -46.5457  -51.5097 C.3       0 UNK        -0.1968 
      2 C          28.9695  -46.1553  -50.9655 C.2       0 UNK         0.4852 
      3 O          29.2865  -46.4834  -49.8215 O.2       0 UNK        -0.5359 
      4 N          29.7751  -45.4611  -51.7817 N.am      1 UNK        -0.4300 
      5 CA         31.1448  -45.0341  -51.4623 C.3       1 UNK         0.0863 
      6 C6         31.7454  -44.1097  -52.5497 C.3       11 UNK        -0.0953 
      7 S7         30.6711  -42.7100  -53.0091 S.3       11 UNK        -0.2369 
      8 C8         31.7435  -41.8336  -54.1909 C.3       11 UNK         0.0226 
      9 C9         31.9657  -42.6384  -55.4642 C.ar      11 UNK        -0.0699 
     10 C10        33.0984  -43.4450  -55.6003 C.ar      11 UNK        -0.0804 
     11 C11        33.3153  -44.1788  -56.7694 C.ar      11 UNK        -0.0871 
     12 C12        32.3766  -44.1117  -57.8059 C.ar      11 UNK        -0.1008 
     13 C13        31.2456  -43.2917  -57.6914 C.ar      11 UNK        -0.0735 
     14 C14        31.0529  -42.5550  -56.5180 C.ar      11 UNK        -0.0945 
     15 C15        30.2795  -43.1427  -58.8639 C.3       11 UNK         0.0169 
     16 S16        28.6547  -43.9247  -58.5801 S.3       11 UNK        -0.2669 
     17 C17        27.7458  -42.6498  -57.6405 C.3       11 UNK        -0.0850 
     18 CA         27.4188  -43.1001  -56.1925 C.3       10 UNK         0.0855 
     19 C          26.9155  -41.8957  -55.3514 C.2       10 UNK         0.5543 
     20 N          27.7211  -41.3974  -54.4240 N.am      10 UNK        -0.7343 
     21 O          25.8168  -41.3879  -55.5671 O.2       10 UNK        -0.5027 
     22 N          26.4558  -44.2122  -56.1890 N.am      10 UNK        -0.4495 
     23 C          26.0799  -44.9048  -55.1066 C.2       10 UNK         0.4903 
     24 O          26.5777  -44.7419  -53.9922 O.2       10 UNK        -0.4860 
     25 CA         24.9761  -45.9636  -55.2768 C.3       9 UNK         0.0227 
     26 CB         24.3602  -46.0231  -56.6906 C.3       9 UNK        -0.1964 
     27 N          25.5420  -47.2689  -54.9443 N.am      9 UNK        -0.4231 
     28 C          25.1595  -48.0581  -53.9309 C.2       9 UNK         0.5014 
     29 O          24.2085  -47.7981  -53.1916 O.2       9 UNK        -0.5270 
     30 CA         25.9911  -49.3319  -53.6520 C.3       8 UNK         0.0284 
     31 CB         25.1140  -50.5330  -53.2360 C.3       8 UNK        -0.1977 
     32 N          26.9331  -49.6956  -54.7201 N.am      8 UNK        -0.4342 
     33 C          26.6473  -50.1392  -55.9540 C.2       8 UNK         0.5039 
     34 O          25.5071  -50.3756  -56.3561 O.2       8 UNK        -0.5547 
     35 CA         27.8540  -50.3014  -56.9046 C.3       7 UNK         0.0281 
     36 CB         27.4310  -50.4272  -58.3834 C.3       7 UNK        -0.1963 
     37 N          28.8609  -49.2375  -56.7584 N.am      7 UNK        -0.4444 
     38 C          28.6534  -47.9125  -56.8396 C.2       7 UNK         0.5104 
     39 O          27.5469  -47.4029  -57.0041 O.2       7 UNK        -0.5100 
     40 CA         29.8691  -46.9928  -56.6674 C.3       6 UNK         0.0396 
     41 CB         29.8549  -46.3275  -55.2839 C.3       6 UNK        -0.1801 
     42 N          31.1409  -47.6867  -56.8624 N.am      6 UNK        -0.4747 
     43 C          31.6955  -47.8908  -58.0649 C.2       6 UNK         0.5012 
     44 O          31.1600  -47.5634  -59.1249 O.2       6 UNK        -0.5003 
     45 CA         33.0688  -48.5767  -58.1121 C.3       5 UNK         0.0782 
     46 C46        34.2362  -47.5619  -58.0322 C.3       11 UNK        -0.0868 
     47 S47        34.4124  -46.7204  -56.4170 S.3       11 UNK        -0.2515 
     48 C48        34.6017  -44.9806  -56.9226 C.3       11 UNK         0.0199 
     49 N          33.1901  -49.6671  -57.1365 N.am      5 UNK        -0.4607 
     50 C          33.7108  -50.8668  -57.4344 C.2       4 UNK         0.5031 
     51 O          34.1132  -51.1721  -58.5580 O.2       4 UNK        -0.5119 
     52 CA         33.8319  -51.9162  -56.3126 C.3       4 UNK         0.0263 
     53 CB         35.2841  -51.9920  -55.8125 C.3       4 UNK        -0.1967 
     54 N          32.9508  -51.6902  -55.1677 N.am      4 UNK        -0.4237 
     55 C          31.6135  -51.7679  -55.1845 C.2       3 UNK         0.4908 
     56 O          30.9531  -52.0689  -56.1783 O.2       3 UNK        -0.5102 
     57 CA         30.8818  -51.4156  -53.8755 C.3       3 UNK         0.0241 
     58 CB         30.4852  -52.6934  -53.1193 C.3       3 UNK        -0.1971 
     59 N          31.6314  -50.5273  -52.9748 N.am      3 UNK        -0.4139 
     60 C          32.0310  -49.2896  -53.2935 C.2       2 UNK         0.5016 
     61 O          31.8765  -48.7900  -54.4111 O.2       2 UNK        -0.5319 
     62 CA         32.7172  -48.4634  -52.2058 C.3       2 UNK         0.0286 
     63 CB         34.2182  -48.2987  -52.5059 C.3       2 UNK        -0.1963 
     64 N          32.0446  -47.1726  -52.2052 N.am      2 UNK        -0.4790 
     65 C          32.0734  -46.2465  -51.2408 C.2       1 UNK         0.5024 
     66 O          32.7578  -46.3287  -50.2201 O.2       1 UNK        -0.4888 
     67 H67        27.2379  -47.4437  -51.0143 H         1 UNK         0.0892 
     68 H68        27.6552  -46.7452  -52.5793 H         1 UNK         0.0892 
     69 H69        26.8868  -45.7443  -51.3411 H         1 UNK         0.0892 
     70 H70        29.4254  -45.1595  -52.6798 H         1 UNK         0.3107 
     71 H71        31.1009  -44.4739  -50.5258 H         1 UNK         0.0773 
     72 H72        32.7035  -43.7089  -52.2128 H         1 UNK         0.0680 
     73 H73        31.9543  -44.6797  -53.4549 H         1 UNK         0.0680 
     74 H74        32.6964  -41.6009  -53.7130 H         1 UNK         0.0650 
     75 H75        31.2854  -40.8744  -54.4366 H         1 UNK         0.0650 
     76 H76        33.8200  -43.4929  -54.7962 H         1 UNK         0.1397 
     77 H77        32.5448  -44.6728  -58.7149 H         1 UNK         0.1363 
     78 H78        30.1995  -41.9017  -56.4223 H         1 UNK         0.1355 
     79 H79        30.7126  -43.5937  -59.7579 H         1 UNK         0.0707 
     80 H80        30.1484  -42.0862  -59.1017 H         1 UNK         0.0707 
     81 H81        28.3193  -41.7220  -57.6440 H         1 UNK         0.1034 
     82 H82        26.8260  -42.4169  -58.1804 H         1 UNK         0.1034 
     83 H83        28.3392  -43.4694  -55.7362 H         1 UNK         0.0482 
     84 H84        28.6087  -41.8283  -54.2134 H         1 UNK         0.3460 
     85 H85        27.4095  -40.6068  -53.8823 H         1 UNK         0.3460 
     86 H86        26.0219  -44.4247  -57.0742 H         1 UNK         0.2989 
     87 H87        24.1822  -45.6979  -54.5764 H         1 UNK         0.0559 
     88 H88        25.0958  -46.2904  -57.4505 H         1 UNK         0.0848 
     89 H89        23.9153  -45.0674  -56.9710 H         1 UNK         0.0848 
     90 H90        23.5647  -46.7672  -56.7343 H         1 UNK         0.0848 
     91 H91        26.3297  -47.5460  -55.5242 H         1 UNK         0.3144 
     92 H92        26.6148  -49.0877  -52.7918 H         1 UNK         0.0727 
     93 H93        24.3867  -50.7916  -54.0058 H         1 UNK         0.0790 
     94 H94        24.5539  -50.3118  -52.3266 H         1 UNK         0.0790 
     95 H95        25.7192  -51.4166  -53.0338 H         1 UNK         0.0790 
     96 H96        27.9064  -49.5268  -54.5109 H         1 UNK         0.3215 
     97 H97        28.3414  -51.2351  -56.6198 H         1 UNK         0.0863 
     98 H98        28.2955  -50.5684  -59.0320 H         1 UNK         0.0808 
     99 H99        26.8957  -49.5407  -58.7258 H         1 UNK         0.0808 
    100 H100       26.7725  -51.2839  -58.5322 H         1 UNK         0.0808 
    101 H101       29.8134  -49.5456  -56.6179 H         1 UNK         0.3118 
    102 H102       29.7901  -46.2021  -57.4123 H         1 UNK         0.0546 
    103 H103       29.8806  -47.0609  -54.4792 H         1 UNK         0.0828 
    104 H104       28.9531  -45.7312  -55.1523 H         1 UNK         0.0828 
    105 H105       30.7040  -45.6542  -55.1707 H         1 UNK         0.0828 
    106 H106       31.6220  -47.9860  -56.0163 H         1 UNK         0.3005 
    107 H107       33.1083  -49.0077  -59.1156 H         1 UNK         0.1257 
    108 H108       34.1321  -46.8241  -58.8294 H         1 UNK         0.0775 
    109 H109       35.1757  -48.0773  -58.2373 H         1 UNK         0.0775 
    110 H110       35.3841  -44.5355  -56.3060 H         1 UNK         0.0840 
    111 H111       34.9709  -44.9104  -57.9465 H         1 UNK         0.0840 
    112 H112       32.8829  -49.4745  -56.1908 H         1 UNK         0.2987 
    113 H113       33.5683  -52.8830  -56.7471 H         1 UNK         0.0785 
    114 H114       35.9709  -52.1974  -56.6351 H         1 UNK         0.0798 
    115 H115       35.4126  -52.7899  -55.0808 H         1 UNK         0.0798 
    116 H116       35.6009  -51.0557  -55.3508 H         1 UNK         0.0798 
    117 H117       33.3967  -51.4313  -54.3003 H         1 UNK         0.3079 
    118 H118       29.9659  -50.8928  -54.1572 H         1 UNK         0.0794 
    119 H119       31.3598  -53.2490  -52.7785 H         1 UNK         0.0786 
    120 H120       29.9033  -53.3608  -53.7571 H         1 UNK         0.0786 
    121 H121       29.8701  -52.4656  -52.2485 H         1 UNK         0.0786 
    122 H122       31.8018  -50.8726  -52.0407 H         1 UNK         0.3032 
    123 H123       32.5819  -48.9408  -51.2328 H         1 UNK         0.1094 
    124 H124       34.7184  -49.2671  -52.5446 H         1 UNK         0.0794 
    125 H125       34.3847  -47.8057  -53.4648 H         1 UNK         0.0794 
    126 H126       34.7170  -47.7083  -51.7374 H         1 UNK         0.0794 
    127 H127       31.4617  -47.0203  -53.0170 H         1 UNK         0.3016 
@<TRIPOS>BOND
     1    1    2 1    
     2    1   67 1    
     3    1   68 1    
     4    1   69 1    
     5    2    3 2    
     6    2    4 am   BACKBONE|DICT|INTERRES
     7    4    5 1    
     8    4   70 1    
     9    5    6 1    
    10    5   65 1    
    11    5   71 1    
    12    6    7 1    
    13    6   72 1    
    14    6   73 1    
    15    7    8 1    
    16    8    9 1    
    17    8   74 1    
    18    8   75 1    
    19    9   10 ar   
    20    9   14 ar   
    21   10   11 ar   
    22   10   76 1    
    23   11   12 ar   
    24   11   48 1    
    25   12   13 ar   
    26   12   77 1    
    27   13   14 ar   
    28   13   15 1    
    29   14   78 1    
    30   15   16 1    
    31   15   79 1    
    32   15   80 1    
    33   16   17 1    
    34   17   18 1    
    35   17   81 1    
    36   17   82 1    
    37   18   19 1    
    38   18   22 1    
    39   18   83 1    
    40   19   20 am   BACKBONE|DICT|INTERRES
    41   19   21 2    
    42   20   84 1    
    43   20   85 1    
    44   22   23 am   BACKBONE|DICT|INTERRES
    45   22   86 1    
    46   23   24 2    
    47   23   25 1    
    48   25   26 1    
    49   25   27 1    
    50   25   87 1    
    51   26   88 1    
    52   26   89 1    
    53   26   90 1    
    54   27   28 am   BACKBONE|DICT|INTERRES
    55   27   91 1    
    56   28   29 2    
    57   28   30 1    
    58   30   31 1    
    59   30   32 1    
    60   30   92 1    
    61   31   93 1    
    62   31   94 1    
    63   31   95 1    
    64   32   33 am   BACKBONE|DICT|INTERRES
    65   32   96 1    
    66   33   34 2    
    67   33   35 1    
    68   35   36 1    
    69   35   37 1    
    70   35   97 1    
    71   36   98 1    
    72   36   99 1    
    73   36  100 1    
    74   37   38 am   BACKBONE|DICT|INTERRES
    75   37  101 1    
    76   38   39 2    
    77   38   40 1    
    78   40   41 1    
    79   40   42 1    
    80   40  102 1    
    81   41  103 1    
    82   41  104 1    
    83   41  105 1    
    84   42   43 am   BACKBONE|DICT|INTERRES
    85   42  106 1    
    86   43   44 2    
    87   43   45 1    
    88   45   46 1    
    89   45   49 1    
    90   45  107 1    
    91   46   47 1    
    92   46  108 1    
    93   46  109 1    
    94   47   48 1    
    95   48  110 1    
    96   48  111 1    
    97   49   50 am   BACKBONE|DICT|INTERRES
    98   49  112 1    
    99   50   51 2    
   100   50   52 1    
   101   52   53 1    
   102   52   54 1    
   103   52  113 1    
   104   53  114 1    
   105   53  115 1    
   106   53  116 1    
   107   54   55 am   BACKBONE|DICT|INTERRES
   108   54  117 1    
   109   55   56 2    
   110   55   57 1    
   111   57   58 1    
   112   57   59 1    
   113   57  118 1    
   114   58  119 1    
   115   58  120 1    
   116   58  121 1    
   117   59   60 am   BACKBONE|DICT|INTERRES
   118   59  122 1    
   119   60   61 2    
   120   60   62 1    
   121   62   63 1    
   122   62   64 1    
   123   62  123 1    
   124   63  124 1    
   125   63  125 1    
   126   63  126 1    
   127   64   65 am   BACKBONE|DICT|INTERRES
   128   64  127 1    
   129   65   66 2    
@<TRIPOS>SUBSTRUCTURE
     1 UNK         1 GROUP             0       ****    0 ROOT    
