@<TRIPOS>MOLECULE
3R134
127   129    1
SMALL
USER_CHARGES


@<TRIPOS>ATOM
      1 CA         39.2154  -46.5231  -54.9752 C.3       0 UNK        -0.1968 
      2 C          37.7086  -46.5845  -55.1814 C.2       0 UNK         0.4852 
      3 O          37.2505  -47.2320  -56.1245 O.2       0 UNK        -0.5359 
      4 N          36.9447  -45.9110  -54.3113 N.am      1 UNK        -0.4300 
      5 CA         35.4796  -45.8984  -54.3004 C.3       1 UNK         0.0863 
      6 C6         34.9349  -44.4594  -54.0768 C.3       11 UNK        -0.0953 
      7 S7         33.2230  -44.2692  -54.6746 S.3       11 UNK        -0.2369 
      8 C8         32.7618  -42.6601  -53.9671 C.3       11 UNK         0.0226 
      9 C9         31.2592  -42.6040  -53.7527 C.ar      11 UNK        -0.0699 
     10 C10        30.7172  -43.0301  -52.5380 C.ar      11 UNK        -0.0804 
     11 C11        29.3330  -43.0530  -52.3483 C.ar      11 UNK        -0.0871 
     12 C12        28.4898  -42.6237  -53.3758 C.ar      11 UNK        -0.1008 
     13 C13        29.0205  -42.1952  -54.5952 C.ar      11 UNK        -0.0735 
     14 C14        30.4079  -42.1754  -54.7756 C.ar      11 UNK        -0.0945 
     15 C15        28.0845  -41.7935  -55.7237 C.3       11 UNK         0.0169 
     16 S16        27.5783  -43.2479  -56.6962 S.3       11 UNK        -0.2669 
     17 C17        29.1064  -43.5905  -57.6324 C.3       11 UNK        -0.0850 
     18 CA         28.8082  -44.1522  -59.0438 C.3       10 UNK         0.0855 
     19 C          30.0880  -44.1134  -59.9278 C.2       10 UNK         0.5543 
     20 N          30.3606  -42.9840  -60.5668 N.am      10 UNK        -0.7343 
     21 O          30.8517  -45.0730  -60.0070 O.2       10 UNK        -0.5027 
     22 N          28.1943  -45.4865  -58.9606 N.am      10 UNK        -0.4495 
     23 C          27.7284  -46.1826  -60.0062 C.2       10 UNK         0.4903 
     24 O          27.6647  -45.7419  -61.1545 O.2       10 UNK        -0.4860 
     25 CA         27.2521  -47.6158  -59.7346 C.3       9 UNK         0.0227 
     26 CB         28.4101  -48.6063  -59.9411 C.3       9 UNK        -0.1964 
     27 N          26.7253  -47.7800  -58.3811 N.am      9 UNK        -0.4231 
     28 C          25.4390  -47.6619  -58.0308 C.2       9 UNK         0.5014 
     29 O          24.5413  -47.3322  -58.8090 O.2       9 UNK        -0.5270 
     30 CA         25.1123  -48.0074  -56.5623 C.3       8 UNK         0.0284 
     31 CB         23.6023  -48.1861  -56.2998 C.3       8 UNK        -0.1977 
     32 N          25.8691  -49.1731  -56.0820 N.am      8 UNK        -0.4342 
     33 C          25.8779  -50.4135  -56.5986 C.2       8 UNK         0.5039 
     34 O          25.1379  -50.7845  -57.5107 O.2       8 UNK        -0.5547 
     35 CA         26.9142  -51.4093  -56.0435 C.3       7 UNK         0.0281 
     36 CB         28.0385  -51.6231  -57.0714 C.3       7 UNK        -0.1963 
     37 N          27.5110  -50.9923  -54.7727 N.am      7 UNK        -0.4444 
     38 C          26.8979  -51.0663  -53.5843 C.2       7 UNK         0.5104 
     39 O          25.7784  -51.5511  -53.4177 O.2       7 UNK        -0.5100 
     40 CA         27.6471  -50.4602  -52.3848 C.3       6 UNK         0.0396 
     41 CB         28.6834  -51.4510  -51.8319 C.3       6 UNK        -0.1801 
     42 N          28.3056  -49.1867  -52.6916 N.am      6 UNK        -0.4747 
     43 C          27.6854  -48.0720  -53.1117 C.2       6 UNK         0.5012 
     44 O          26.4764  -47.9944  -53.3266 O.2       6 UNK        -0.5003 
     45 CA         28.5876  -46.8558  -53.3833 C.3       5 UNK         0.0782 
     46 C46        29.0951  -46.2316  -52.0557 C.3       11 UNK        -0.0868 
     47 S47        27.8414  -45.1456  -51.2897 S.3       11 UNK        -0.2515 
     48 C48        28.7495  -43.5833  -51.0476 C.3       11 UNK         0.0199 
     49 N          29.6809  -47.2459  -54.2772 N.am      5 UNK        -0.4607 
     50 C          29.5375  -47.5123  -55.5845 C.2       4 UNK         0.5031 
     51 O          28.4946  -47.3325  -56.2136 O.2       4 UNK        -0.5119 
     52 CA         30.7473  -48.1076  -56.3254 C.3       4 UNK         0.0263 
     53 CB         31.5057  -47.0087  -57.0809 C.3       4 UNK        -0.1967 
     54 N          31.6726  -48.8274  -55.4483 N.am      4 UNK        -0.4237 
     55 C          31.3926  -49.9885  -54.8383 C.2       3 UNK         0.4908 
     56 O          30.3367  -50.6021  -54.9860 O.2       3 UNK        -0.5102 
     57 CA         32.4414  -50.5115  -53.8425 C.3       3 UNK         0.0241 
     58 CB         33.5437  -51.2946  -54.5720 C.3       3 UNK        -0.1971 
     59 N          33.0425  -49.4364  -53.0472 N.am      3 UNK        -0.4139 
     60 C          32.3685  -48.6316  -52.2161 C.2       2 UNK         0.5016 
     61 O          31.1637  -48.7488  -51.9909 O.2       2 UNK        -0.5319 
     62 CA         33.1382  -47.4563  -51.5912 C.3       2 UNK         0.0286 
     63 CB         34.0364  -47.9212  -50.4286 C.3       2 UNK        -0.1963 
     64 N          33.8751  -46.6428  -52.5738 N.am      2 UNK        -0.4790 
     65 C          34.9601  -46.9584  -53.2978 C.2       1 UNK         0.5024 
     66 O          35.5239  -48.0526  -53.2209 O.2       1 UNK        -0.4888 
     67 H67        39.6985  -46.1070  -55.8589 H         1 UNK         0.0892 
     68 H68        39.4863  -45.9056  -54.1189 H         1 UNK         0.0892 
     69 H69        39.6118  -47.5245  -54.8094 H         1 UNK         0.0892 
     70 H70        37.3879  -45.4301  -53.5410 H         1 UNK         0.3107 
     71 H71        35.1258  -46.2261  -55.2804 H         1 UNK         0.0773 
     72 H72        35.0127  -44.1613  -53.0293 H         1 UNK         0.0680 
     73 H73        35.5398  -43.7434  -54.6360 H         1 UNK         0.0680 
     74 H74        33.2774  -42.5021  -53.0186 H         1 UNK         0.0650 
     75 H75        33.0867  -41.8615  -54.6356 H         1 UNK         0.0650 
     76 H76        31.3746  -43.3759  -51.7520 H         1 UNK         0.1397 
     77 H77        27.4175  -42.6576  -53.2379 H         1 UNK         0.1363 
     78 H78        30.8261  -41.8572  -55.7203 H         1 UNK         0.1355 
     79 H79        28.5516  -41.0492  -56.3704 H         1 UNK         0.0707 
     80 H80        27.1927  -41.3190  -55.3113 H         1 UNK         0.0707 
     81 H81        29.6758  -42.6630  -57.7133 H         1 UNK         0.1034 
     82 H82        29.7294  -44.2790  -57.0579 H         1 UNK         0.1034 
     83 H83        28.0723  -43.5007  -59.5199 H         1 UNK         0.0482 
     84 H84        29.7454  -42.1874  -60.5078 H         1 UNK         0.3460 
     85 H85        31.1924  -42.9324  -61.1340 H         1 UNK         0.3460 
     86 H86        28.1965  -45.9214  -58.0482 H         1 UNK         0.2989 
     87 H87        26.4709  -47.8543  -60.4597 H         1 UNK         0.0559 
     88 H88        29.2379  -48.4104  -59.2588 H         1 UNK         0.0848 
     89 H89        28.8037  -48.5383  -60.9563 H         1 UNK         0.0848 
     90 H90        28.0840  -49.6354  -59.7888 H         1 UNK         0.0848 
     91 H91        27.3979  -47.9475  -57.6373 H         1 UNK         0.3144 
     92 H92        25.4535  -47.1581  -55.9681 H         1 UNK         0.0727 
     93 H93        23.0529  -47.2763  -56.5446 H         1 UNK         0.0790 
     94 H94        23.4080  -48.4093  -55.2507 H         1 UNK         0.0790 
     95 H95        23.1795  -48.9930  -56.8992 H         1 UNK         0.0790 
     96 H96        26.4893  -48.9837  -55.3043 H         1 UNK         0.3215 
     97 H97        26.4033  -52.3625  -55.8909 H         1 UNK         0.0863 
     98 H98        28.7564  -52.3671  -56.7257 H         1 UNK         0.0808 
     99 H99        28.5837  -50.6994  -57.2691 H         1 UNK         0.0808 
    100 H100       27.6389  -51.9762  -58.0231 H         1 UNK         0.0808 
    101 H101       28.4728  -50.6581  -54.8051 H         1 UNK         0.3118 
    102 H102       26.9125  -50.2649  -51.6010 H         1 UNK         0.0546 
    103 H103       29.4589  -51.6761  -52.5646 H         1 UNK         0.0828 
    104 H104       28.2121  -52.3950  -51.5553 H         1 UNK         0.0828 
    105 H105       29.1717  -51.0583  -50.9397 H         1 UNK         0.0828 
    106 H106       29.3092  -49.1441  -52.5321 H         1 UNK         0.3005 
    107 H107       27.9922  -46.1072  -53.9131 H         1 UNK         0.1257 
    108 H108       30.0049  -45.6627  -52.2410 H         1 UNK         0.0775 
    109 H109       29.3799  -46.9902  -51.3251 H         1 UNK         0.0775 
    110 H110       28.0712  -42.8393  -50.6274 H         1 UNK         0.0840 
    111 H111       29.5315  -43.7396  -50.3028 H         1 UNK         0.0840 
    112 H112       30.5578  -47.4705  -53.8316 H         1 UNK         0.2987 
    113 H113       30.3614  -48.8196  -57.0577 H         1 UNK         0.0785 
    114 H114       31.9137  -46.2583  -56.4047 H         1 UNK         0.0798 
    115 H115       30.8433  -46.4938  -57.7762 H         1 UNK         0.0798 
    116 H116       32.3279  -47.4197  -57.6668 H         1 UNK         0.0798 
    117 H117       32.5680  -48.3963  -55.2742 H         1 UNK         0.3079 
    118 H118       31.9339  -51.1909  -53.1546 H         1 UNK         0.0794 
    119 H119       33.1189  -52.1068  -55.1638 H         1 UNK         0.0786 
    120 H120       34.2440  -51.7418  -53.8662 H         1 UNK         0.0786 
    121 H121       34.1133  -50.6581  -55.2505 H         1 UNK         0.0786 
    122 H122       34.0319  -49.2435  -53.1801 H         1 UNK         0.3032 
    123 H123       32.3847  -46.7911  -51.1649 H         1 UNK         0.1094 
    124 H124       34.5330  -47.0768  -49.9508 H         1 UNK         0.0794 
    125 H125       33.4460  -48.4250  -49.6620 H         1 UNK         0.0794 
    126 H126       34.8057  -48.6222  -50.7528 H         1 UNK         0.0794 
    127 H127       33.4684  -45.7349  -52.7634 H         1 UNK         0.3016 
@<TRIPOS>BOND
     1    1    2 1    
     2    1   67 1    
     3    1   68 1    
     4    1   69 1    
     5    2    3 2    
     6    2    4 am   BACKBONE|DICT|INTERRES
     7    4    5 1    
     8    4   70 1    
     9    5    6 1    
    10    5   65 1    
    11    5   71 1    
    12    6    7 1    
    13    6   72 1    
    14    6   73 1    
    15    7    8 1    
    16    8    9 1    
    17    8   74 1    
    18    8   75 1    
    19    9   10 ar   
    20    9   14 ar   
    21   10   11 ar   
    22   10   76 1    
    23   11   12 ar   
    24   11   48 1    
    25   12   13 ar   
    26   12   77 1    
    27   13   14 ar   
    28   13   15 1    
    29   14   78 1    
    30   15   16 1    
    31   15   79 1    
    32   15   80 1    
    33   16   17 1    
    34   17   18 1    
    35   17   81 1    
    36   17   82 1    
    37   18   19 1    
    38   18   22 1    
    39   18   83 1    
    40   19   20 am   BACKBONE|DICT|INTERRES
    41   19   21 2    
    42   20   84 1    
    43   20   85 1    
    44   22   23 am   BACKBONE|DICT|INTERRES
    45   22   86 1    
    46   23   24 2    
    47   23   25 1    
    48   25   26 1    
    49   25   27 1    
    50   25   87 1    
    51   26   88 1    
    52   26   89 1    
    53   26   90 1    
    54   27   28 am   BACKBONE|DICT|INTERRES
    55   27   91 1    
    56   28   29 2    
    57   28   30 1    
    58   30   31 1    
    59   30   32 1    
    60   30   92 1    
    61   31   93 1    
    62   31   94 1    
    63   31   95 1    
    64   32   33 am   BACKBONE|DICT|INTERRES
    65   32   96 1    
    66   33   34 2    
    67   33   35 1    
    68   35   36 1    
    69   35   37 1    
    70   35   97 1    
    71   36   98 1    
    72   36   99 1    
    73   36  100 1    
    74   37   38 am   BACKBONE|DICT|INTERRES
    75   37  101 1    
    76   38   39 2    
    77   38   40 1    
    78   40   41 1    
    79   40   42 1    
    80   40  102 1    
    81   41  103 1    
    82   41  104 1    
    83   41  105 1    
    84   42   43 am   BACKBONE|DICT|INTERRES
    85   42  106 1    
    86   43   44 2    
    87   43   45 1    
    88   45   46 1    
    89   45   49 1    
    90   45  107 1    
    91   46   47 1    
    92   46  108 1    
    93   46  109 1    
    94   47   48 1    
    95   48  110 1    
    96   48  111 1    
    97   49   50 am   BACKBONE|DICT|INTERRES
    98   49  112 1    
    99   50   51 2    
   100   50   52 1    
   101   52   53 1    
   102   52   54 1    
   103   52  113 1    
   104   53  114 1    
   105   53  115 1    
   106   53  116 1    
   107   54   55 am   BACKBONE|DICT|INTERRES
   108   54  117 1    
   109   55   56 2    
   110   55   57 1    
   111   57   58 1    
   112   57   59 1    
   113   57  118 1    
   114   58  119 1    
   115   58  120 1    
   116   58  121 1    
   117   59   60 am   BACKBONE|DICT|INTERRES
   118   59  122 1    
   119   60   61 2    
   120   60   62 1    
   121   62   63 1    
   122   62   64 1    
   123   62  123 1    
   124   63  124 1    
   125   63  125 1    
   126   63  126 1    
   127   64   65 am   BACKBONE|DICT|INTERRES
   128   64  127 1    
   129   65   66 2    
@<TRIPOS>SUBSTRUCTURE
     1 UNK         1 GROUP             0       ****    0 ROOT    
