@<TRIPOS>MOLECULE
3R134
127   129    1
SMALL
USER_CHARGES


@<TRIPOS>ATOM
      1 CA         37.6779  -44.4179  -50.0651 C.3       0 UNK        -0.1968 
      2 C          37.7017  -45.5083  -51.1265 C.2       0 UNK         0.4852 
      3 O          38.6174  -46.3332  -51.1345 O.2       0 UNK        -0.5359 
      4 N          36.7082  -45.5123  -52.0241 N.am      1 UNK        -0.4300 
      5 CA         36.5234  -46.5255  -53.0666 C.3       1 UNK         0.0863 
      6 C6         35.7193  -45.9592  -54.2662 C.3       11 UNK        -0.0953 
      7 S7         33.9887  -45.5262  -53.8763 S.3       11 UNK        -0.2369 
      8 C8         33.8722  -43.8176  -54.4954 C.3       11 UNK         0.0226 
      9 C9         32.4167  -43.4128  -54.6769 C.ar      11 UNK        -0.0699 
     10 C10        31.5833  -43.2848  -53.5641 C.ar      11 UNK        -0.0804 
     11 C11        30.2251  -42.9937  -53.7206 C.ar      11 UNK        -0.0871 
     12 C12        29.7105  -42.7803  -55.0017 C.ar      11 UNK        -0.1008 
     13 C13        30.5344  -42.9009  -56.1256 C.ar      11 UNK        -0.0735 
     14 C14        31.8878  -43.2115  -55.9558 C.ar      11 UNK        -0.0945 
     15 C15        29.9672  -42.7109  -57.5255 C.3       11 UNK         0.0169 
     16 S16        28.8788  -44.0916  -58.0069 S.3       11 UNK        -0.2669 
     17 C17        27.2473  -43.4725  -57.4584 C.3       11 UNK        -0.0850 
     18 CA         26.0446  -44.0735  -58.2271 C.3       10 UNK         0.0855 
     19 C          26.0571  -43.7113  -59.7437 C.2       10 UNK         0.5543 
     20 N          26.1516  -44.6671  -60.6617 N.am      10 UNK        -0.7343 
     21 O          25.9631  -42.5364  -60.0908 O.2       10 UNK        -0.5027 
     22 N          25.8705  -45.5020  -57.9277 N.am      10 UNK        -0.4495 
     23 C          24.7242  -46.1718  -58.1119 C.2       10 UNK         0.4903 
     24 O          23.6643  -45.6253  -58.4234 O.2       10 UNK        -0.4860 
     25 CA         24.7582  -47.7037  -57.9297 C.3       9 UNK         0.0227 
     26 CB         23.7005  -48.4203  -58.7947 C.3       9 UNK        -0.1964 
     27 N          26.0757  -48.3149  -58.1414 N.am      9 UNK        -0.4231 
     28 C          26.8698  -48.2284  -59.2218 C.2       9 UNK         0.5014 
     29 O          26.5832  -47.5798  -60.2295 O.2       9 UNK        -0.5270 
     30 CA         28.2213  -48.9653  -59.1647 C.3       8 UNK         0.0284 
     31 CB         29.3856  -48.0050  -59.4684 C.3       8 UNK        -0.1977 
     32 N          28.4365  -49.5848  -57.8520 N.am      8 UNK        -0.4342 
     33 C          28.3895  -50.9024  -57.6140 C.2       8 UNK         0.5039 
     34 O          28.2764  -51.7528  -58.4978 O.2       8 UNK        -0.5547 
     35 CA         28.4444  -51.3661  -56.1473 C.3       7 UNK         0.0281 
     36 CB         29.8809  -51.7232  -55.7304 C.3       7 UNK        -0.1963 
     37 N          27.8598  -50.4269  -55.1817 N.am      7 UNK        -0.4444 
     38 C          26.5508  -50.1370  -55.1101 C.2       7 UNK         0.5104 
     39 O          25.7274  -50.5050  -55.9466 O.2       7 UNK        -0.5100 
     40 CA         26.0722  -49.2935  -53.9201 C.3       6 UNK         0.0396 
     41 CB         26.0392  -50.1423  -52.6389 C.3       6 UNK        -0.1801 
     42 N          26.9423  -48.1413  -53.7126 N.am      6 UNK        -0.4747 
     43 C          26.6498  -46.8752  -54.0470 C.2       6 UNK         0.5012 
     44 O          25.5684  -46.5085  -54.5072 O.2       6 UNK        -0.5003 
     45 CA         27.7867  -45.8480  -53.8420 C.3       5 UNK         0.0782 
     46 C46        27.7215  -45.3123  -52.3807 C.3       11 UNK        -0.0868 
     47 S47        29.2424  -44.5737  -51.6927 S.3       11 UNK        -0.2515 
     48 C48        29.3215  -42.9429  -52.4992 C.3       11 UNK         0.0199 
     49 N          29.0998  -46.3915  -54.2149 N.am      5 UNK        -0.4607 
     50 C          29.4012  -47.0105  -55.3681 C.2       4 UNK         0.5031 
     51 O          28.6129  -47.1445  -56.3042 O.2       4 UNK        -0.5119 
     52 CA         30.7737  -47.6974  -55.4678 C.3       4 UNK         0.0263 
     53 CB         31.7391  -46.8696  -56.3233 C.3       4 UNK        -0.1967 
     54 N          31.3898  -48.0277  -54.1751 N.am      4 UNK        -0.4237 
     55 C          30.8460  -48.8340  -53.2486 C.2       3 UNK         0.4908 
     56 O          29.7252  -49.3394  -53.3643 O.2       3 UNK        -0.5102 
     57 CA         31.6760  -49.0946  -51.9762 C.3       3 UNK         0.0241 
     58 CB         31.1263  -50.2758  -51.1484 C.3       3 UNK        -0.1971 
     59 N          33.1140  -49.2703  -52.2229 N.am      3 UNK        -0.4139 
     60 C          33.7125  -50.1741  -53.0134 C.2       2 UNK         0.5016 
     61 O          33.1029  -50.9741  -53.7251 O.2       2 UNK        -0.5319 
     62 CA         35.2584  -50.1800  -52.9991 C.3       2 UNK         0.0286 
     63 CB         35.8546  -51.2325  -53.9535 C.3       2 UNK        -0.1963 
     64 N          35.8440  -48.8725  -53.3195 N.am      2 UNK        -0.4790 
     65 C          35.8983  -47.8188  -52.4936 C.2       1 UNK         0.5024 
     66 O          35.4369  -47.8402  -51.3483 O.2       1 UNK        -0.4888 
     67 H67        38.5867  -43.8193  -50.1211 H         1 UNK         0.0892 
     68 H68        36.8247  -43.7504  -50.1850 H         1 UNK         0.0892 
     69 H69        37.6228  -44.8630  -49.0720 H         1 UNK         0.0892 
     70 H70        35.9609  -44.8379  -51.9444 H         1 UNK         0.3107 
     71 H71        37.5118  -46.7992  -53.4425 H         1 UNK         0.0773 
     72 H72        35.7069  -46.6741  -55.0905 H         1 UNK         0.0680 
     73 H73        36.2339  -45.0806  -54.6582 H         1 UNK         0.0680 
     74 H74        34.3631  -43.1402  -53.7953 H         1 UNK         0.0650 
     75 H75        34.4080  -43.7364  -55.4424 H         1 UNK         0.0650 
     76 H76        31.9841  -43.4582  -52.5746 H         1 UNK         0.1397 
     77 H77        28.6649  -42.5403  -55.1255 H         1 UNK         0.1363 
     78 H78        32.5256  -43.3214  -56.8222 H         1 UNK         0.1355 
     79 H79        29.4383  -41.7592  -57.5869 H         1 UNK         0.0707 
     80 H80        30.7766  -42.6489  -58.2544 H         1 UNK         0.0707 
     81 H81        27.1334  -43.6832  -56.3960 H         1 UNK         0.1034 
     82 H82        27.2236  -42.3850  -57.5466 H         1 UNK         0.1034 
     83 H83        25.1604  -43.5713  -57.8294 H         1 UNK         0.0482 
     84 H84        26.2463  -45.6419  -60.3931 H         1 UNK         0.3460 
     85 H85        26.1524  -44.4152  -61.6367 H         1 UNK         0.3460 
     86 H86        26.7071  -46.0131  -57.6792 H         1 UNK         0.2989 
     87 H87        24.5092  -47.8856  -56.8832 H         1 UNK         0.0559 
     88 H88        22.6939  -48.0765  -58.5538 H         1 UNK         0.0848 
     89 H89        23.7188  -49.4977  -58.6301 H         1 UNK         0.0848 
     90 H90        23.8615  -48.2397  -59.8581 H         1 UNK         0.0848 
     91 H91        26.3894  -48.9094  -57.3860 H         1 UNK         0.3144 
     92 H92        28.2001  -49.7249  -59.9484 H         1 UNK         0.0727 
     93 H93        29.3890  -47.1449  -58.7990 H         1 UNK         0.0790 
     94 H94        29.3148  -47.6178  -60.4856 H         1 UNK         0.0790 
     95 H95        30.3496  -48.5057  -59.3790 H         1 UNK         0.0790 
     96 H96        28.5285  -48.9329  -57.0774 H         1 UNK         0.3215 
     97 H97        27.8545  -52.2838  -56.0904 H         1 UNK         0.0863 
     98 H98        29.9115  -52.1320  -54.7202 H         1 UNK         0.0808 
     99 H99        30.5468  -50.8627  -55.7572 H         1 UNK         0.0808 
    100 H100       30.3026  -52.4775  -56.3961 H         1 UNK         0.0808 
    101 H101       28.4876  -50.0703  -54.4624 H         1 UNK         0.3118 
    102 H102       25.0525  -48.9641  -54.1312 H         1 UNK         0.0546 
    103 H103       27.0324  -50.4958  -52.3579 H         1 UNK         0.0828 
    104 H104       25.4039  -51.0196  -52.7678 H         1 UNK         0.0828 
    105 H105       25.6384  -49.5736  -51.7999 H         1 UNK         0.0828 
    106 H106       27.8816  -48.3412  -53.3853 H         1 UNK         0.3005 
    107 H107       27.5989  -45.0163  -54.5215 H         1 UNK         0.1257 
    108 H108       26.9081  -44.5904  -52.2866 H         1 UNK         0.0775 
    109 H109       27.4699  -46.1188  -51.6880 H         1 UNK         0.0775 
    110 H110       28.3187  -42.5978  -52.7553 H         1 UNK         0.0840 
    111 H111       29.7250  -42.2179  -51.7910 H         1 UNK         0.0840 
    112 H112       29.8187  -46.3082  -53.5113 H         1 UNK         0.2987 
    113 H113       30.6113  -48.6386  -55.9916 H         1 UNK         0.0785 
    114 H114       31.3226  -46.6798  -57.3132 H         1 UNK         0.0798 
    115 H115       32.6930  -47.3785  -56.4619 H         1 UNK         0.0798 
    116 H116       31.9336  -45.9025  -55.8691 H         1 UNK         0.0798 
    117 H117       32.3029  -47.6335  -53.9954 H         1 UNK         0.3079 
    118 H118       31.5796  -48.1940  -51.3679 H         1 UNK         0.0794 
    119 H119       31.7040  -50.4249  -50.2363 H         1 UNK         0.0786 
    120 H120       31.1461  -51.2076  -51.7150 H         1 UNK         0.0786 
    121 H121       30.0923  -50.0992  -50.8493 H         1 UNK         0.0786 
    122 H122       33.7325  -48.6482  -51.7080 H         1 UNK         0.3032 
    123 H123       35.5578  -50.4526  -51.9842 H         1 UNK         0.1094 
    124 H124       35.5932  -51.0296  -54.9929 H         1 UNK         0.0794 
    125 H125       36.9418  -51.2659  -53.8800 H         1 UNK         0.0794 
    126 H126       35.4871  -52.2314  -53.7139 H         1 UNK         0.0794 
    127 H127       36.2080  -48.7694  -54.2562 H         1 UNK         0.3016 
@<TRIPOS>BOND
     1    1    2 1    
     2    1   67 1    
     3    1   68 1    
     4    1   69 1    
     5    2    3 2    
     6    2    4 am   BACKBONE|DICT|INTERRES
     7    4    5 1    
     8    4   70 1    
     9    5    6 1    
    10    5   65 1    
    11    5   71 1    
    12    6    7 1    
    13    6   72 1    
    14    6   73 1    
    15    7    8 1    
    16    8    9 1    
    17    8   74 1    
    18    8   75 1    
    19    9   10 ar   
    20    9   14 ar   
    21   10   11 ar   
    22   10   76 1    
    23   11   12 ar   
    24   11   48 1    
    25   12   13 ar   
    26   12   77 1    
    27   13   14 ar   
    28   13   15 1    
    29   14   78 1    
    30   15   16 1    
    31   15   79 1    
    32   15   80 1    
    33   16   17 1    
    34   17   18 1    
    35   17   81 1    
    36   17   82 1    
    37   18   19 1    
    38   18   22 1    
    39   18   83 1    
    40   19   20 am   BACKBONE|DICT|INTERRES
    41   19   21 2    
    42   20   84 1    
    43   20   85 1    
    44   22   23 am   BACKBONE|DICT|INTERRES
    45   22   86 1    
    46   23   24 2    
    47   23   25 1    
    48   25   26 1    
    49   25   27 1    
    50   25   87 1    
    51   26   88 1    
    52   26   89 1    
    53   26   90 1    
    54   27   28 am   BACKBONE|DICT|INTERRES
    55   27   91 1    
    56   28   29 2    
    57   28   30 1    
    58   30   31 1    
    59   30   32 1    
    60   30   92 1    
    61   31   93 1    
    62   31   94 1    
    63   31   95 1    
    64   32   33 am   BACKBONE|DICT|INTERRES
    65   32   96 1    
    66   33   34 2    
    67   33   35 1    
    68   35   36 1    
    69   35   37 1    
    70   35   97 1    
    71   36   98 1    
    72   36   99 1    
    73   36  100 1    
    74   37   38 am   BACKBONE|DICT|INTERRES
    75   37  101 1    
    76   38   39 2    
    77   38   40 1    
    78   40   41 1    
    79   40   42 1    
    80   40  102 1    
    81   41  103 1    
    82   41  104 1    
    83   41  105 1    
    84   42   43 am   BACKBONE|DICT|INTERRES
    85   42  106 1    
    86   43   44 2    
    87   43   45 1    
    88   45   46 1    
    89   45   49 1    
    90   45  107 1    
    91   46   47 1    
    92   46  108 1    
    93   46  109 1    
    94   47   48 1    
    95   48  110 1    
    96   48  111 1    
    97   49   50 am   BACKBONE|DICT|INTERRES
    98   49  112 1    
    99   50   51 2    
   100   50   52 1    
   101   52   53 1    
   102   52   54 1    
   103   52  113 1    
   104   53  114 1    
   105   53  115 1    
   106   53  116 1    
   107   54   55 am   BACKBONE|DICT|INTERRES
   108   54  117 1    
   109   55   56 2    
   110   55   57 1    
   111   57   58 1    
   112   57   59 1    
   113   57  118 1    
   114   58  119 1    
   115   58  120 1    
   116   58  121 1    
   117   59   60 am   BACKBONE|DICT|INTERRES
   118   59  122 1    
   119   60   61 2    
   120   60   62 1    
   121   62   63 1    
   122   62   64 1    
   123   62  123 1    
   124   63  124 1    
   125   63  125 1    
   126   63  126 1    
   127   64   65 am   BACKBONE|DICT|INTERRES
   128   64  127 1    
   129   65   66 2    
@<TRIPOS>SUBSTRUCTURE
     1 UNK         1 GROUP             0       ****    0 ROOT    
