@<TRIPOS>MOLECULE
3R134
127   129    1
SMALL
USER_CHARGES


@<TRIPOS>ATOM
      1 CA         31.8783  -47.0480  -50.7583 C.3       0 UNK        -0.1968 
      2 C          33.2641  -46.5888  -51.1772 C.2       0 UNK         0.4852 
      3 O          34.2620  -47.1349  -50.7051 O.2       0 UNK        -0.5359 
      4 N          33.3348  -45.5893  -52.0658 N.am      1 UNK        -0.4300 
      5 CA         34.5810  -44.9407  -52.4974 C.3       1 UNK         0.0863 
      6 C6         34.3217  -43.6069  -53.2369 C.3       11 UNK        -0.0953 
      7 S7         33.3175  -42.4587  -52.2327 S.3       11 UNK        -0.2369 
      8 C8         32.1160  -41.8260  -53.4440 C.3       11 UNK         0.0226 
      9 C9         31.1566  -42.8953  -53.9511 C.ar      11 UNK        -0.0699 
     10 C10        30.1187  -43.3636  -53.1378 C.ar      11 UNK        -0.0804 
     11 C11        29.1934  -44.2915  -53.6299 C.ar      11 UNK        -0.0871 
     12 C12        29.3134  -44.7415  -54.9475 C.ar      11 UNK        -0.1008 
     13 C13        30.3617  -44.3050  -55.7617 C.ar      11 UNK        -0.0735 
     14 C14        31.2813  -43.3828  -55.2554 C.ar      11 UNK        -0.0945 
     15 C15        30.5104  -44.8602  -57.1732 C.3       11 UNK         0.0169 
     16 S16        30.6907  -43.5782  -58.4654 S.3       11 UNK        -0.2669 
     17 C17        29.1593  -42.5621  -58.5055 C.3       11 UNK        -0.0850 
     18 CA         27.8697  -43.0910  -57.8090 C.3       10 UNK         0.0855 
     19 C          26.6937  -42.0670  -57.8722 C.2       10 UNK         0.5543 
     20 N          25.4426  -42.4959  -58.0009 N.am      10 UNK        -0.7343 
     21 O          26.9124  -40.8623  -57.7703 O.2       10 UNK        -0.5027 
     22 N          27.4981  -44.4546  -58.2142 N.am      10 UNK        -0.4495 
     23 C          27.1728  -44.8739  -59.4437 C.2       10 UNK         0.4903 
     24 O          27.1851  -44.1649  -60.4500 O.2       10 UNK        -0.4860 
     25 CA         26.7413  -46.3466  -59.5617 C.3       9 UNK         0.0227 
     26 CB         27.9351  -47.2051  -60.0062 C.3       9 UNK        -0.1964 
     27 N          26.1838  -46.8901  -58.3155 N.am      9 UNK        -0.4231 
     28 C          25.0434  -46.4745  -57.7429 C.2       9 UNK         0.5014 
     29 O          24.3217  -45.5984  -58.2246 O.2       9 UNK        -0.5270 
     30 CA         24.6848  -47.1060  -56.3835 C.3       8 UNK         0.0284 
     31 CB         23.2483  -46.7794  -55.9212 C.3       8 UNK        -0.1977 
     32 N          24.9423  -48.5500  -56.3307 N.am      8 UNK        -0.4342 
     33 C          24.3656  -49.5140  -57.0647 C.2       8 UNK         0.5039 
     34 O          23.4879  -49.3149  -57.9066 O.2       8 UNK        -0.5547 
     35 CA         24.8687  -50.9469  -56.7911 C.3       7 UNK         0.0281 
     36 CB         24.3766  -51.9737  -57.8349 C.3       7 UNK        -0.1963 
     37 N          26.3295  -51.0097  -56.6303 N.am      7 UNK        -0.4444 
     38 C          27.2544  -50.6952  -57.5504 C.2       7 UNK         0.5104 
     39 O          26.9940  -50.3497  -58.7029 O.2       7 UNK        -0.5100 
     40 CA         28.7176  -50.7466  -57.0685 C.3       6 UNK         0.0396 
     41 CB         29.7240  -50.2889  -58.1447 C.3       6 UNK        -0.1801 
     42 N          28.9368  -50.0032  -55.8197 N.am      6 UNK        -0.4747 
     43 C          28.6825  -48.7041  -55.5844 C.2       6 UNK         0.5012 
     44 O          28.1424  -47.9553  -56.4015 O.2       6 UNK        -0.5003 
     45 CA         29.0776  -48.1357  -54.2024 C.3       5 UNK         0.0782 
     46 C46        27.8510  -47.5275  -53.4752 C.3       11 UNK        -0.0868 
     47 S47        28.3376  -46.4526  -52.0824 S.3       11 UNK        -0.2515 
     48 C48        28.0457  -44.7795  -52.7528 C.3       11 UNK         0.0199 
     49 N          29.7800  -49.1244  -53.3713 N.am      5 UNK        -0.4607 
     50 C          31.1043  -49.3076  -53.3965 C.2       4 UNK         0.5031 
     51 O          31.8805  -48.6212  -54.0696 O.2       4 UNK        -0.5119 
     52 CA         31.6571  -50.4509  -52.5354 C.3       4 UNK         0.0263 
     53 CB         31.3880  -51.8199  -53.1884 C.3       4 UNK        -0.1967 
     54 N          33.0874  -50.2173  -52.4188 N.am      4 UNK        -0.4237 
     55 C          33.9594  -50.7487  -51.5586 C.2       3 UNK         0.4908 
     56 O          33.6601  -51.6036  -50.7239 O.2       3 UNK        -0.5102 
     57 CA         35.4026  -50.2024  -51.6058 C.3       3 UNK         0.0241 
     58 CB         36.4512  -51.3271  -51.7359 C.3       3 UNK        -0.1971 
     59 N          35.5977  -49.1352  -52.6039 N.am      3 UNK        -0.4139 
     60 C          35.6489  -49.2356  -53.9437 C.2       2 UNK         0.5016 
     61 O          35.6615  -50.3076  -54.5489 O.2       2 UNK        -0.5319 
     62 CA         35.6106  -47.9163  -54.7432 C.3       2 UNK         0.0286 
     63 CB         34.9249  -48.0899  -56.1120 C.3       2 UNK        -0.1963 
     64 N          34.9052  -46.8657  -54.0019 N.am      2 UNK        -0.4790 
     65 C          35.4936  -45.8656  -53.3307 C.2       1 UNK         0.5024 
     66 O          36.7104  -45.6776  -53.3208 O.2       1 UNK        -0.4888 
     67 H67        31.8798  -48.1134  -50.5322 H         1 UNK         0.0892 
     68 H68        31.5576  -46.5113  -49.8660 H         1 UNK         0.0892 
     69 H69        31.1515  -46.8681  -51.5484 H         1 UNK         0.0892 
     70 H70        32.4850  -45.1693  -52.4166 H         1 UNK         0.3107 
     71 H71        35.1408  -44.7034  -51.5897 H         1 UNK         0.0773 
     72 H72        33.8361  -43.7920  -54.1954 H         1 UNK         0.0680 
     73 H73        35.2649  -43.1074  -53.4662 H         1 UNK         0.0680 
     74 H74        31.5407  -41.0253  -52.9770 H         1 UNK         0.0650 
     75 H75        32.6566  -41.3654  -54.2724 H         1 UNK         0.0650 
     76 H76        30.0241  -42.9898  -52.1272 H         1 UNK         0.1397 
     77 H77        28.5913  -45.4414  -55.3409 H         1 UNK         0.1363 
     78 H78        32.0867  -43.0331  -55.8868 H         1 UNK         0.1355 
     79 H79        29.7002  -45.5426  -57.4259 H         1 UNK         0.0707 
     80 H80        31.4120  -45.4739  -57.1905 H         1 UNK         0.0707 
     81 H81        29.4301  -41.5990  -58.0692 H         1 UNK         0.1034 
     82 H82        28.9450  -42.3472  -59.5535 H         1 UNK         0.1034 
     83 H83        28.0832  -43.1525  -56.7447 H         1 UNK         0.0482 
     84 H84        24.6931  -41.8231  -58.0288 H         1 UNK         0.3460 
     85 H85        25.2381  -43.4814  -58.0940 H         1 UNK         0.3460 
     86 H86        27.4331  -45.1279  -57.4669 H         1 UNK         0.2989 
     87 H87        25.9677  -46.4064  -60.3297 H         1 UNK         0.0559 
     88 H88        27.6406  -48.2402  -60.1762 H         1 UNK         0.0848 
     89 H89        28.7329  -47.1966  -59.2630 H         1 UNK         0.0848 
     90 H90        28.3575  -46.8337  -60.9409 H         1 UNK         0.0848 
     91 H91        26.7499  -47.5754  -57.8239 H         1 UNK         0.3144 
     92 H92        25.3641  -46.6515  -55.6618 H         1 UNK         0.0727 
     93 H93        23.0354  -47.2172  -54.9460 H         1 UNK         0.0790 
     94 H94        22.5018  -47.1481  -56.6254 H         1 UNK         0.0790 
     95 H95        23.1024  -45.7023  -55.8299 H         1 UNK         0.0790 
     96 H96        25.6747  -48.8355  -55.6976 H         1 UNK         0.3215 
     97 H97        24.4414  -51.2347  -55.8290 H         1 UNK         0.0863 
     98 H98        24.7376  -52.9765  -57.6070 H         1 UNK         0.0808 
     99 H99        24.7049  -51.7191  -58.8430 H         1 UNK         0.0808 
    100 H100       23.2870  -52.0189  -57.8527 H         1 UNK         0.0808 
    101 H101       26.6595  -51.2839  -55.7149 H         1 UNK         0.3118 
    102 H102       28.9288  -51.7943  -56.8490 H         1 UNK         0.0546 
    103 H103       29.5789  -49.2441  -58.4165 H         1 UNK         0.0828 
    104 H104       29.6208  -50.8797  -59.0557 H         1 UNK         0.0828 
    105 H105       30.7515  -50.4035  -57.7998 H         1 UNK         0.0828 
    106 H106       29.3656  -50.5287  -55.0720 H         1 UNK         0.3005 
    107 H107       29.7716  -47.3229  -54.4216 H         1 UNK         0.1257 
    108 H108       27.2280  -46.9453  -54.1546 H         1 UNK         0.0775 
    109 H109       27.2046  -48.3181  -53.0905 H         1 UNK         0.0775 
    110 H110       27.1087  -44.7545  -53.3110 H         1 UNK         0.0840 
    111 H111       27.9058  -44.0970  -51.9131 H         1 UNK         0.0840 
    112 H112       29.2066  -49.6986  -52.7694 H         1 UNK         0.2987 
    113 H113       31.2038  -50.4075  -51.5432 H         1 UNK         0.0785 
    114 H114       31.8107  -52.6326  -52.5975 H         1 UNK         0.0798 
    115 H115       31.8180  -51.8792  -54.1893 H         1 UNK         0.0798 
    116 H116       30.3186  -52.0134  -53.2762 H         1 UNK         0.0798 
    117 H117       33.4152  -49.5113  -53.0667 H         1 UNK         0.3079 
    118 H118       35.5635  -49.7218  -50.6395 H         1 UNK         0.0794 
    119 H119       36.4035  -52.0014  -50.8800 H         1 UNK         0.0786 
    120 H120       37.4635  -50.9251  -51.7748 H         1 UNK         0.0786 
    121 H121       36.2934  -51.9333  -52.6281 H         1 UNK         0.0786 
    122 H122       35.5468  -48.2005  -52.2150 H         1 UNK         0.3032 
    123 H123       36.6486  -47.6266  -54.9216 H         1 UNK         0.1094 
    124 H124       33.8988  -48.4451  -56.0069 H         1 UNK         0.0794 
    125 H125       34.8989  -47.1502  -56.6639 H         1 UNK         0.0794 
    126 H126       35.4589  -48.8111  -56.7321 H         1 UNK         0.0794 
    127 H127       33.8985  -46.9550  -53.9465 H         1 UNK         0.3016 
@<TRIPOS>BOND
     1    1    2 1    
     2    1   67 1    
     3    1   68 1    
     4    1   69 1    
     5    2    3 2    
     6    2    4 am   BACKBONE|DICT|INTERRES
     7    4    5 1    
     8    4   70 1    
     9    5    6 1    
    10    5   65 1    
    11    5   71 1    
    12    6    7 1    
    13    6   72 1    
    14    6   73 1    
    15    7    8 1    
    16    8    9 1    
    17    8   74 1    
    18    8   75 1    
    19    9   10 ar   
    20    9   14 ar   
    21   10   11 ar   
    22   10   76 1    
    23   11   12 ar   
    24   11   48 1    
    25   12   13 ar   
    26   12   77 1    
    27   13   14 ar   
    28   13   15 1    
    29   14   78 1    
    30   15   16 1    
    31   15   79 1    
    32   15   80 1    
    33   16   17 1    
    34   17   18 1    
    35   17   81 1    
    36   17   82 1    
    37   18   19 1    
    38   18   22 1    
    39   18   83 1    
    40   19   20 am   BACKBONE|DICT|INTERRES
    41   19   21 2    
    42   20   84 1    
    43   20   85 1    
    44   22   23 am   BACKBONE|DICT|INTERRES
    45   22   86 1    
    46   23   24 2    
    47   23   25 1    
    48   25   26 1    
    49   25   27 1    
    50   25   87 1    
    51   26   88 1    
    52   26   89 1    
    53   26   90 1    
    54   27   28 am   BACKBONE|DICT|INTERRES
    55   27   91 1    
    56   28   29 2    
    57   28   30 1    
    58   30   31 1    
    59   30   32 1    
    60   30   92 1    
    61   31   93 1    
    62   31   94 1    
    63   31   95 1    
    64   32   33 am   BACKBONE|DICT|INTERRES
    65   32   96 1    
    66   33   34 2    
    67   33   35 1    
    68   35   36 1    
    69   35   37 1    
    70   35   97 1    
    71   36   98 1    
    72   36   99 1    
    73   36  100 1    
    74   37   38 am   BACKBONE|DICT|INTERRES
    75   37  101 1    
    76   38   39 2    
    77   38   40 1    
    78   40   41 1    
    79   40   42 1    
    80   40  102 1    
    81   41  103 1    
    82   41  104 1    
    83   41  105 1    
    84   42   43 am   BACKBONE|DICT|INTERRES
    85   42  106 1    
    86   43   44 2    
    87   43   45 1    
    88   45   46 1    
    89   45   49 1    
    90   45  107 1    
    91   46   47 1    
    92   46  108 1    
    93   46  109 1    
    94   47   48 1    
    95   48  110 1    
    96   48  111 1    
    97   49   50 am   BACKBONE|DICT|INTERRES
    98   49  112 1    
    99   50   51 2    
   100   50   52 1    
   101   52   53 1    
   102   52   54 1    
   103   52  113 1    
   104   53  114 1    
   105   53  115 1    
   106   53  116 1    
   107   54   55 am   BACKBONE|DICT|INTERRES
   108   54  117 1    
   109   55   56 2    
   110   55   57 1    
   111   57   58 1    
   112   57   59 1    
   113   57  118 1    
   114   58  119 1    
   115   58  120 1    
   116   58  121 1    
   117   59   60 am   BACKBONE|DICT|INTERRES
   118   59  122 1    
   119   60   61 2    
   120   60   62 1    
   121   62   63 1    
   122   62   64 1    
   123   62  123 1    
   124   63  124 1    
   125   63  125 1    
   126   63  126 1    
   127   64   65 am   BACKBONE|DICT|INTERRES
   128   64  127 1    
   129   65   66 2    
@<TRIPOS>SUBSTRUCTURE
     1 UNK         1 GROUP             0       ****    0 ROOT    
