@<TRIPOS>MOLECULE
3R134
127   129    1
SMALL
USER_CHARGES


@<TRIPOS>ATOM
      1 CA         29.9042  -46.9227  -52.4422 C.3       0 UNK        -0.1968 
      2 C          31.0468  -46.2861  -51.6687 C.2       0 UNK         0.4852 
      3 O          31.1117  -46.4282  -50.4462 O.2       0 UNK        -0.5359 
      4 N          31.9626  -45.6029  -52.3687 N.am      1 UNK        -0.4300 
      5 CA         33.1519  -44.9397  -51.8175 C.3       1 UNK         0.0863 
      6 C6         33.6903  -43.8494  -52.7812 C.3       11 UNK        -0.0953 
      7 S7         32.4840  -42.5172  -53.0940 S.3       11 UNK        -0.2369 
      8 C8         33.0895  -41.8417  -54.6736 C.3       11 UNK         0.0226 
      9 C9         32.4405  -42.5259  -55.8684 C.ar      11 UNK        -0.0699 
     10 C10        33.0069  -43.6780  -56.4215 C.ar      11 UNK        -0.0804 
     11 C11        32.3967  -44.3200  -57.5035 C.ar      11 UNK        -0.0871 
     12 C12        31.2362  -43.7759  -58.0612 C.ar      11 UNK        -0.1008 
     13 C13        30.6693  -42.6154  -57.5290 C.ar      11 UNK        -0.0735 
     14 C14        31.2721  -41.9983  -56.4281 C.ar      11 UNK        -0.0945 
     15 C15        29.4156  -42.0237  -58.1585 C.3       11 UNK         0.0169 
     16 S16        27.9450  -43.0659  -57.8939 S.3       11 UNK        -0.2669 
     17 C17        27.6963  -42.9152  -56.0912 C.3       11 UNK        -0.0850 
     18 CA         27.6980  -44.2948  -55.3694 C.3       10 UNK         0.0855 
     19 C          27.7466  -44.1483  -53.8170 C.2       10 UNK         0.5543 
     20 N          27.0596  -44.9848  -53.0480 N.am      10 UNK        -0.7343 
     21 O          28.4467  -43.2855  -53.2950 O.2       10 UNK        -0.5027 
     22 N          26.6574  -45.2163  -55.8693 N.am      10 UNK        -0.4495 
     23 C          25.3305  -45.0192  -55.8152 C.2       10 UNK         0.4903 
     24 O          24.8093  -44.0091  -55.3403 O.2       10 UNK        -0.4860 
     25 CA         24.4258  -46.1569  -56.3309 C.3       9 UNK         0.0227 
     26 CB         23.0362  -45.6638  -56.7900 C.3       9 UNK        -0.1964 
     27 N          25.0597  -47.0023  -57.3484 N.am      9 UNK        -0.4231 
     28 C          25.4227  -46.6606  -58.5963 C.2       9 UNK         0.5014 
     29 O          25.1982  -45.5582  -59.0967 O.2       9 UNK        -0.5270 
     30 CA         26.1726  -47.7178  -59.4330 C.3       8 UNK         0.0284 
     31 CB         27.4668  -47.1320  -60.0285 C.3       8 UNK        -0.1977 
     32 N          26.5145  -48.9021  -58.6410 N.am      8 UNK        -0.4342 
     33 C          25.8130  -50.0436  -58.6029 C.2       8 UNK         0.5039 
     34 O          24.8327  -50.2674  -59.3134 O.2       8 UNK        -0.5547 
     35 CA         26.2571  -51.1094  -57.5807 C.3       7 UNK         0.0281 
     36 CB         27.1189  -52.1819  -58.2657 C.3       7 UNK        -0.1963 
     37 N          26.9898  -50.5543  -56.4363 N.am      7 UNK        -0.4444 
     38 C          26.4525  -49.7435  -55.5102 C.2       7 UNK         0.5104 
     39 O          25.2634  -49.4282  -55.4944 O.2       7 UNK        -0.5100 
     40 CA         27.4048  -49.1064  -54.4783 C.3       6 UNK         0.0396 
     41 CB         27.4499  -49.9506  -53.1961 C.3       6 UNK        -0.1801 
     42 N          28.7677  -48.9131  -54.9809 N.am      6 UNK        -0.4747 
     43 C          29.0994  -48.2059  -56.0717 C.2       6 UNK         0.5012 
     44 O          28.2866  -47.5320  -56.7049 O.2       6 UNK        -0.5003 
     45 CA         30.5593  -48.2927  -56.5687 C.3       5 UNK         0.0782 
     46 C46        31.3034  -46.9941  -56.1862 C.3       11 UNK        -0.0868 
     47 S47        33.0262  -46.9390  -56.7915 S.3       11 UNK        -0.2515 
     48 C48        32.9665  -45.6216  -58.0523 C.3       11 UNK         0.0199 
     49 N          31.2890  -49.4781  -56.0985 N.am      5 UNK        -0.4607 
     50 C          30.9294  -50.7654  -56.1929 C.2       4 UNK         0.5031 
     51 O          29.8885  -51.1378  -56.7353 O.2       4 UNK        -0.5119 
     52 CA         31.8569  -51.8168  -55.5457 C.3       4 UNK         0.0263 
     53 CB         32.3247  -52.8403  -56.5944 C.3       4 UNK        -0.1967 
     54 N          33.0361  -51.2785  -54.8500 N.am      4 UNK        -0.4237 
     55 C          33.0294  -50.5048  -53.7550 C.2       3 UNK         0.4908 
     56 O          32.0008  -50.1210  -53.1902 O.2       3 UNK        -0.5102 
     57 CA         34.4016  -50.0460  -53.2430 C.3       3 UNK         0.0241 
     58 CB         35.1507  -49.2091  -54.3020 C.3       3 UNK        -0.1971 
     59 N          34.2134  -49.2462  -52.0374 N.am      3 UNK        -0.4139 
     60 C          35.1441  -48.9744  -51.1160 C.2       2 UNK         0.5016 
     61 O          36.2840  -49.4440  -51.1363 O.2       2 UNK        -0.5319 
     62 CA         34.7253  -47.9933  -50.0006 C.3       2 UNK         0.0286 
     63 CB         35.9226  -47.4689  -49.1790 C.3       2 UNK        -0.1963 
     64 N          33.9125  -46.8744  -50.5028 N.am      2 UNK        -0.4790 
     65 C          34.2452  -45.9680  -51.4360 C.2       1 UNK         0.5024 
     66 O          35.3415  -45.9385  -51.9979 O.2       1 UNK        -0.4888 
     67 H67        30.1264  -47.9724  -52.6302 H         1 UNK         0.0892 
     68 H68        28.9806  -46.8683  -51.8668 H         1 UNK         0.0892 
     69 H69        29.7333  -46.4252  -53.3954 H         1 UNK         0.0892 
     70 H70        31.8538  -45.5067  -53.3671 H         1 UNK         0.3107 
     71 H71        32.8619  -44.4401  -50.8903 H         1 UNK         0.0773 
     72 H72        34.5864  -43.3819  -52.3685 H         1 UNK         0.0680 
     73 H73        33.9881  -44.3001  -53.7281 H         1 UNK         0.0680 
     74 H74        34.1759  -41.9282  -54.7260 H         1 UNK         0.0650 
     75 H75        32.8715  -40.7730  -54.6990 H         1 UNK         0.0650 
     76 H76        33.9104  -44.0938  -55.9985 H         1 UNK         0.1397 
     77 H77        30.7588  -44.2618  -58.9015 H         1 UNK         0.1363 
     78 H78        30.8347  -41.1037  -56.0063 H         1 UNK         0.1355 
     79 H79        29.5764  -41.9124  -59.2318 H         1 UNK         0.0707 
     80 H80        29.2203  -41.0209  -57.7752 H         1 UNK         0.0707 
     81 H81        28.4771  -42.2726  -55.6824 H         1 UNK         0.1034 
     82 H82        26.7615  -42.3830  -55.9118 H         1 UNK         0.1034 
     83 H83        28.6426  -44.7798  -55.6185 H         1 UNK         0.0482 
     84 H84        26.4695  -45.6880  -53.4595 H         1 UNK         0.3460 
     85 H85        27.0983  -44.8764  -52.0473 H         1 UNK         0.3460 
     86 H86        27.0115  -46.0764  -56.2753 H         1 UNK         0.2989 
     87 H87        24.2639  -46.8098  -55.4723 H         1 UNK         0.0559 
     88 H88        22.4980  -45.1905  -55.9679 H         1 UNK         0.0848 
     89 H89        22.4188  -46.4886  -57.1457 H         1 UNK         0.0848 
     90 H90        23.1103  -44.9283  -57.5915 H         1 UNK         0.0848 
     91 H91        25.2679  -47.9442  -57.0388 H         1 UNK         0.3144 
     92 H92        25.5172  -47.9996  -60.2595 H         1 UNK         0.0727 
     93 H93        28.1352  -46.7531  -59.2546 H         1 UNK         0.0790 
     94 H94        27.2469  -46.3002  -60.6991 H         1 UNK         0.0790 
     95 H95        28.0109  -47.8775  -60.6085 H         1 UNK         0.0790 
     96 H96        27.2844  -48.7803  -57.9926 H         1 UNK         0.3215 
     97 H97        25.3543  -51.5900  -57.1975 H         1 UNK         0.0863 
     98 H98        27.4022  -52.9703  -57.5681 H         1 UNK         0.0808 
     99 H99        28.0341  -51.7587  -58.6819 H         1 UNK         0.0808 
    100 H100       26.5759  -52.6539  -59.0856 H         1 UNK         0.0808 
    101 H101       27.9870  -50.7525  -56.3991 H         1 UNK         0.3118 
    102 H102       27.0055  -48.1217  -54.2270 H         1 UNK         0.0546 
    103 H103       27.8770  -50.9378  -53.3771 H         1 UNK         0.0828 
    104 H104       26.4477  -50.0983  -52.7909 H         1 UNK         0.0828 
    105 H105       28.0412  -49.4660  -52.4194 H         1 UNK         0.0828 
    106 H106       29.4981  -49.4444  -54.5270 H         1 UNK         0.3005 
    107 H107       30.5118  -48.3580  -57.6577 H         1 UNK         0.1257 
    108 H108       30.7512  -46.1266  -56.5495 H         1 UNK         0.0775 
    109 H109       31.3453  -46.8885  -55.1022 H         1 UNK         0.0775 
    110 H110       33.9750  -45.4416  -58.4269 H         1 UNK         0.0840 
    111 H111       32.3811  -45.9769  -58.9018 H         1 UNK         0.0840 
    112 H112       32.1659  -49.2803  -55.6407 H         1 UNK         0.2987 
    113 H113       31.2534  -52.3438  -54.8038 H         1 UNK         0.0785 
    114 H114       31.4754  -53.3053  -57.0974 H         1 UNK         0.0798 
    115 H115       32.9025  -53.6436  -56.1368 H         1 UNK         0.0798 
    116 H116       32.9429  -52.3753  -57.3633 H         1 UNK         0.0798 
    117 H117       33.9302  -51.5275  -55.2490 H         1 UNK         0.3079 
    118 H118       34.9827  -50.9368  -52.9953 H         1 UNK         0.0794 
    119 H119       36.1348  -48.9064  -53.9438 H         1 UNK         0.0786 
    120 H120       34.6020  -48.3012  -54.5547 H         1 UNK         0.0786 
    121 H121       35.3097  -49.7664  -55.2255 H         1 UNK         0.0786 
    122 H122       33.2739  -48.8874  -51.9212 H         1 UNK         0.3032 
    123 H123       34.0860  -48.5630  -49.3240 H         1 UNK         0.1094 
    124 H124       36.4600  -48.2902  -48.7032 H         1 UNK         0.0794 
    125 H125       36.6379  -46.9314  -49.8024 H         1 UNK         0.0794 
    126 H126       35.5957  -46.7959  -48.3865 H         1 UNK         0.0794 
    127 H127       32.9563  -46.8251  -50.1553 H         1 UNK         0.3016 
@<TRIPOS>BOND
     1    1    2 1    
     2    1   67 1    
     3    1   68 1    
     4    1   69 1    
     5    2    3 2    
     6    2    4 am   BACKBONE|DICT|INTERRES
     7    4    5 1    
     8    4   70 1    
     9    5    6 1    
    10    5   65 1    
    11    5   71 1    
    12    6    7 1    
    13    6   72 1    
    14    6   73 1    
    15    7    8 1    
    16    8    9 1    
    17    8   74 1    
    18    8   75 1    
    19    9   10 ar   
    20    9   14 ar   
    21   10   11 ar   
    22   10   76 1    
    23   11   12 ar   
    24   11   48 1    
    25   12   13 ar   
    26   12   77 1    
    27   13   14 ar   
    28   13   15 1    
    29   14   78 1    
    30   15   16 1    
    31   15   79 1    
    32   15   80 1    
    33   16   17 1    
    34   17   18 1    
    35   17   81 1    
    36   17   82 1    
    37   18   19 1    
    38   18   22 1    
    39   18   83 1    
    40   19   20 am   BACKBONE|DICT|INTERRES
    41   19   21 2    
    42   20   84 1    
    43   20   85 1    
    44   22   23 am   BACKBONE|DICT|INTERRES
    45   22   86 1    
    46   23   24 2    
    47   23   25 1    
    48   25   26 1    
    49   25   27 1    
    50   25   87 1    
    51   26   88 1    
    52   26   89 1    
    53   26   90 1    
    54   27   28 am   BACKBONE|DICT|INTERRES
    55   27   91 1    
    56   28   29 2    
    57   28   30 1    
    58   30   31 1    
    59   30   32 1    
    60   30   92 1    
    61   31   93 1    
    62   31   94 1    
    63   31   95 1    
    64   32   33 am   BACKBONE|DICT|INTERRES
    65   32   96 1    
    66   33   34 2    
    67   33   35 1    
    68   35   36 1    
    69   35   37 1    
    70   35   97 1    
    71   36   98 1    
    72   36   99 1    
    73   36  100 1    
    74   37   38 am   BACKBONE|DICT|INTERRES
    75   37  101 1    
    76   38   39 2    
    77   38   40 1    
    78   40   41 1    
    79   40   42 1    
    80   40  102 1    
    81   41  103 1    
    82   41  104 1    
    83   41  105 1    
    84   42   43 am   BACKBONE|DICT|INTERRES
    85   42  106 1    
    86   43   44 2    
    87   43   45 1    
    88   45   46 1    
    89   45   49 1    
    90   45  107 1    
    91   46   47 1    
    92   46  108 1    
    93   46  109 1    
    94   47   48 1    
    95   48  110 1    
    96   48  111 1    
    97   49   50 am   BACKBONE|DICT|INTERRES
    98   49  112 1    
    99   50   51 2    
   100   50   52 1    
   101   52   53 1    
   102   52   54 1    
   103   52  113 1    
   104   53  114 1    
   105   53  115 1    
   106   53  116 1    
   107   54   55 am   BACKBONE|DICT|INTERRES
   108   54  117 1    
   109   55   56 2    
   110   55   57 1    
   111   57   58 1    
   112   57   59 1    
   113   57  118 1    
   114   58  119 1    
   115   58  120 1    
   116   58  121 1    
   117   59   60 am   BACKBONE|DICT|INTERRES
   118   59  122 1    
   119   60   61 2    
   120   60   62 1    
   121   62   63 1    
   122   62   64 1    
   123   62  123 1    
   124   63  124 1    
   125   63  125 1    
   126   63  126 1    
   127   64   65 am   BACKBONE|DICT|INTERRES
   128   64  127 1    
   129   65   66 2    
@<TRIPOS>SUBSTRUCTURE
     1 UNK         1 GROUP             0       ****    0 ROOT    
