@<TRIPOS>MOLECULE
3R134
127   129    1
SMALL
USER_CHARGES


@<TRIPOS>ATOM
      1 CA         36.9006  -47.3497  -52.5053 C.3       0 UNK        -0.1968 
      2 C          35.4905  -46.9499  -52.9124 C.2       0 UNK         0.4852 
      3 O          34.9994  -47.4113  -53.9424 O.2       0 UNK        -0.5359 
      4 N          34.8335  -46.1019  -52.1084 N.am      1 UNK        -0.4300 
      5 CA         33.4789  -45.5888  -52.3532 C.3       1 UNK         0.0863 
      6 C6         33.0966  -44.4525  -51.3715 C.3       11 UNK        -0.0953 
      7 S7         34.1518  -42.9793  -51.5630 S.3       11 UNK        -0.2369 
      8 C8         32.9491  -41.7366  -52.1589 C.3       11 UNK         0.0226 
      9 C9         32.3332  -42.0441  -53.5245 C.ar      11 UNK        -0.0699 
     10 C10        33.0891  -42.6285  -54.5478 C.ar      11 UNK        -0.0804 
     11 C11        32.5183  -42.8895  -55.7953 C.ar      11 UNK        -0.0871 
     12 C12        31.2045  -42.4868  -56.0438 C.ar      11 UNK        -0.1008 
     13 C13        30.4175  -41.9496  -55.0246 C.ar      11 UNK        -0.0735 
     14 C14        30.9911  -41.7231  -53.7678 C.ar      11 UNK        -0.0945 
     15 C15        28.9466  -41.6413  -55.2819 C.3       11 UNK         0.0169 
     16 S16        27.9357  -43.1626  -55.3770 S.3       11 UNK        -0.2669 
     17 C17        28.2005  -43.7129  -57.1030 C.3       11 UNK        -0.0850 
     18 CA         26.8919  -44.1166  -57.8334 C.3       10 UNK         0.0855 
     19 C          27.1393  -44.3807  -59.3498 C.2       10 UNK         0.5543 
     20 N          26.7030  -45.4955  -59.9253 N.am      10 UNK        -0.7343 
     21 O          27.7318  -43.5444  -60.0271 O.2       10 UNK        -0.5027 
     22 N          26.1868  -45.2164  -57.1533 N.am      10 UNK        -0.4495 
     23 C          24.8533  -45.3428  -57.1236 C.2       10 UNK         0.4903 
     24 O          24.0794  -44.5044  -57.5897 O.2       10 UNK        -0.4860 
     25 CA         24.2870  -46.6195  -56.4698 C.3       9 UNK         0.0227 
     26 CB         22.8058  -46.8682  -56.8267 C.3       9 UNK        -0.1964 
     27 N          25.0833  -47.8251  -56.7300 N.am      9 UNK        -0.4231 
     28 C          25.3999  -48.3588  -57.9222 C.2       9 UNK         0.5014 
     29 O          25.0700  -47.8561  -58.9975 O.2       9 UNK        -0.5270 
     30 CA         26.2408  -49.6526  -57.9261 C.3       8 UNK         0.0284 
     31 CB         27.3120  -49.6274  -59.0327 C.3       8 UNK        -0.1977 
     32 N          26.9025  -49.8613  -56.6377 N.am      8 UNK        -0.4342 
     33 C          26.5390  -50.7475  -55.7005 C.2       8 UNK         0.5039 
     34 O          25.6502  -51.5848  -55.8589 O.2       8 UNK        -0.5547 
     35 CA         27.2613  -50.6700  -54.3389 C.3       7 UNK         0.0281 
     36 CB         28.3416  -51.7553  -54.2403 C.3       7 UNK        -0.1963 
     37 N          27.8643  -49.3603  -54.0654 N.am      7 UNK        -0.4444 
     38 C          27.1710  -48.2222  -53.9219 C.2       7 UNK         0.5104 
     39 O          25.9413  -48.1745  -53.9070 O.2       7 UNK        -0.5100 
     40 CA         27.9689  -46.9099  -53.8813 C.3       6 UNK         0.0396 
     41 CB         28.2189  -46.4705  -52.4323 C.3       6 UNK        -0.1801 
     42 N          29.2380  -46.9690  -54.6174 N.am      6 UNK        -0.4747 
     43 C          29.3442  -47.1434  -55.9409 C.2       6 UNK         0.5012 
     44 O          28.3655  -47.3261  -56.6661 O.2       6 UNK        -0.5003 
     45 CA         30.7452  -47.0893  -56.5731 C.3       5 UNK         0.0782 
     46 C46        31.5717  -45.8371  -56.1656 C.3       11 UNK        -0.0868 
     47 S47        32.3323  -45.0170  -57.6123 S.3       11 UNK        -0.2515 
     48 C48        33.3018  -43.6645  -56.8489 C.3       11 UNK         0.0199 
     49 N          31.4823  -48.3299  -56.3242 N.am      5 UNK        -0.4607 
     50 C          32.2959  -48.8835  -57.2362 C.2       4 UNK         0.5031 
     51 O          32.3436  -48.5171  -58.4113 O.2       4 UNK        -0.5119 
     52 CA         33.2512  -50.0073  -56.7988 C.3       4 UNK         0.0263 
     53 CB         34.7119  -49.5332  -56.8935 C.3       4 UNK        -0.1967 
     54 N          33.0042  -50.4907  -55.4413 N.am      4 UNK        -0.4237 
     55 C          32.2342  -51.5464  -55.1533 C.2       3 UNK         0.4908 
     56 O          31.6351  -52.2096  -56.0004 O.2       3 UNK        -0.5102 
     57 CA         32.1145  -51.9489  -53.6733 C.3       3 UNK         0.0241 
     58 CB         33.1350  -53.0497  -53.3400 C.3       3 UNK        -0.1971 
     59 N          32.2544  -50.8583  -52.7013 N.am      3 UNK        -0.4139 
     60 C          31.5058  -49.7479  -52.6464 C.2       2 UNK         0.5016 
     61 O          30.6966  -49.4249  -53.5185 O.2       2 UNK        -0.5319 
     62 CA         31.6684  -48.8701  -51.3906 C.3       2 UNK         0.0286 
     63 CB         32.0722  -49.6672  -50.1337 C.3       2 UNK        -0.1963 
     64 N          32.6218  -47.7782  -51.5885 N.am      2 UNK        -0.4790 
     65 C          32.3919  -46.6801  -52.3218 C.2       1 UNK         0.5024 
     66 O          31.3529  -46.4845  -52.9438 O.2       1 UNK        -0.4888 
     67 H67        37.6091  -47.0638  -53.2822 H         1 UNK         0.0892 
     68 H68        37.2078  -46.8736  -51.5742 H         1 UNK         0.0892 
     69 H69        36.9599  -48.4294  -52.3706 H         1 UNK         0.0892 
     70 H70        35.2923  -45.7408  -51.2839 H         1 UNK         0.3107 
     71 H71        33.4681  -45.1825  -53.3661 H         1 UNK         0.0773 
     72 H72        32.0557  -44.1532  -51.5135 H         1 UNK         0.0680 
     73 H73        33.1706  -44.7960  -50.3381 H         1 UNK         0.0680 
     74 H74        32.1681  -41.6263  -51.4049 H         1 UNK         0.0650 
     75 H75        33.4541  -40.7720  -52.2214 H         1 UNK         0.0650 
     76 H76        34.1183  -42.9050  -54.3660 H         1 UNK         0.1397 
     77 H77        30.7771  -42.6661  -57.0182 H         1 UNK         0.1363 
     78 H78        30.3912  -41.2931  -52.9775 H         1 UNK         0.1355 
     79 H79        28.5506  -41.0178  -54.4789 H         1 UNK         0.0707 
     80 H80        28.8388  -41.0566  -56.1965 H         1 UNK         0.0707 
     81 H81        28.6735  -42.8988  -57.6529 H         1 UNK         0.1034 
     82 H82        28.9159  -44.5343  -57.1098 H         1 UNK         0.1034 
     83 H83        26.2489  -43.2348  -57.8068 H         1 UNK         0.0482 
     84 H84        26.1755  -46.1883  -59.4067 H         1 UNK         0.3460 
     85 H85        26.8728  -45.6350  -60.9082 H         1 UNK         0.3460 
     86 H86        26.7688  -45.9697  -56.8055 H         1 UNK         0.2989 
     87 H87        24.3395  -46.4498  -55.3937 H         1 UNK         0.0559 
     88 H88        22.6658  -46.9993  -57.9003 H         1 UNK         0.0848 
     89 H89        22.1806  -46.0299  -56.5170 H         1 UNK         0.0848 
     90 H90        22.4210  -47.7572  -56.3271 H         1 UNK         0.0848 
     91 H91        25.4219  -48.2900  -55.8944 H         1 UNK         0.3144 
     92 H92        25.5556  -50.4759  -58.1366 H         1 UNK         0.0727 
     93 H93        27.9867  -48.7774  -58.9238 H         1 UNK         0.0790 
     94 H94        26.8552  -49.5555  -60.0206 H         1 UNK         0.0790 
     95 H95        27.9138  -50.5362  -59.0224 H         1 UNK         0.0790 
     96 H96        27.6188  -49.1778  -56.4128 H         1 UNK         0.3215 
     97 H97        26.5143  -50.8598  -53.5651 H         1 UNK         0.0863 
     98 H98        28.7989  -51.7657  -53.2510 H         1 UNK         0.0808 
     99 H99        29.1293  -51.6005  -54.9779 H         1 UNK         0.0808 
    100 H100       27.9205  -52.7464  -54.4139 H         1 UNK         0.0808 
    101 H101       28.8814  -49.3150  -54.0181 H         1 UNK         0.3118 
    102 H102       27.3544  -46.1436  -54.3584 H         1 UNK         0.0546 
    103 H103       28.7273  -45.5067  -52.3942 H         1 UNK         0.0828 
    104 H104       28.8289  -47.1941  -51.8932 H         1 UNK         0.0828 
    105 H105       27.2795  -46.3640  -51.8885 H         1 UNK         0.0828 
    106 H106       30.0835  -46.8409  -54.0583 H         1 UNK         0.3005 
    107 H107       30.5307  -47.0216  -57.6427 H         1 UNK         0.1257 
    108 H108       30.9494  -45.1065  -55.6482 H         1 UNK         0.0775 
    109 H109       32.3618  -46.0974  -55.4595 H         1 UNK         0.0775 
    110 H110       34.2039  -44.0974  -56.4134 H         1 UNK         0.0840 
    111 H111       33.6315  -42.9768  -57.6285 H         1 UNK         0.0840 
    112 H112       31.4209  -48.7161  -55.3880 H         1 UNK         0.2987 
    113 H113       33.1258  -50.8271  -57.5097 H         1 UNK         0.0785 
    114 H114       34.8994  -48.6734  -56.2503 H         1 UNK         0.0798 
    115 H115       34.9611  -49.2345  -57.9127 H         1 UNK         0.0798 
    116 H116       35.4070  -50.3239  -56.6107 H         1 UNK         0.0798 
    117 H117       33.4495  -49.9875  -54.6864 H         1 UNK         0.3079 
    118 H118       31.1171  -52.3694  -53.5389 H         1 UNK         0.0794 
    119 H119       34.1603  -52.6841  -53.4105 H         1 UNK         0.0786 
    120 H120       33.0415  -53.8917  -54.0276 H         1 UNK         0.0786 
    121 H121       32.9850  -53.4407  -52.3334 H         1 UNK         0.0786 
    122 H122       32.9000  -51.0222  -51.9428 H         1 UNK         0.3032 
    123 H123       30.6870  -48.4349  -51.1939 H         1 UNK         0.1094 
    124 H124       32.0014  -49.0454  -49.2408 H         1 UNK         0.0794 
    125 H125       31.4096  -50.5201  -49.9772 H         1 UNK         0.0794 
    126 H126       33.0941  -50.0440  -50.1882 H         1 UNK         0.0794 
    127 H127       33.5149  -47.8594  -51.1250 H         1 UNK         0.3016 
@<TRIPOS>BOND
     1    1    2 1    
     2    1   67 1    
     3    1   68 1    
     4    1   69 1    
     5    2    3 2    
     6    2    4 am   BACKBONE|DICT|INTERRES
     7    4    5 1    
     8    4   70 1    
     9    5    6 1    
    10    5   65 1    
    11    5   71 1    
    12    6    7 1    
    13    6   72 1    
    14    6   73 1    
    15    7    8 1    
    16    8    9 1    
    17    8   74 1    
    18    8   75 1    
    19    9   10 ar   
    20    9   14 ar   
    21   10   11 ar   
    22   10   76 1    
    23   11   12 ar   
    24   11   48 1    
    25   12   13 ar   
    26   12   77 1    
    27   13   14 ar   
    28   13   15 1    
    29   14   78 1    
    30   15   16 1    
    31   15   79 1    
    32   15   80 1    
    33   16   17 1    
    34   17   18 1    
    35   17   81 1    
    36   17   82 1    
    37   18   19 1    
    38   18   22 1    
    39   18   83 1    
    40   19   20 am   BACKBONE|DICT|INTERRES
    41   19   21 2    
    42   20   84 1    
    43   20   85 1    
    44   22   23 am   BACKBONE|DICT|INTERRES
    45   22   86 1    
    46   23   24 2    
    47   23   25 1    
    48   25   26 1    
    49   25   27 1    
    50   25   87 1    
    51   26   88 1    
    52   26   89 1    
    53   26   90 1    
    54   27   28 am   BACKBONE|DICT|INTERRES
    55   27   91 1    
    56   28   29 2    
    57   28   30 1    
    58   30   31 1    
    59   30   32 1    
    60   30   92 1    
    61   31   93 1    
    62   31   94 1    
    63   31   95 1    
    64   32   33 am   BACKBONE|DICT|INTERRES
    65   32   96 1    
    66   33   34 2    
    67   33   35 1    
    68   35   36 1    
    69   35   37 1    
    70   35   97 1    
    71   36   98 1    
    72   36   99 1    
    73   36  100 1    
    74   37   38 am   BACKBONE|DICT|INTERRES
    75   37  101 1    
    76   38   39 2    
    77   38   40 1    
    78   40   41 1    
    79   40   42 1    
    80   40  102 1    
    81   41  103 1    
    82   41  104 1    
    83   41  105 1    
    84   42   43 am   BACKBONE|DICT|INTERRES
    85   42  106 1    
    86   43   44 2    
    87   43   45 1    
    88   45   46 1    
    89   45   49 1    
    90   45  107 1    
    91   46   47 1    
    92   46  108 1    
    93   46  109 1    
    94   47   48 1    
    95   48  110 1    
    96   48  111 1    
    97   49   50 am   BACKBONE|DICT|INTERRES
    98   49  112 1    
    99   50   51 2    
   100   50   52 1    
   101   52   53 1    
   102   52   54 1    
   103   52  113 1    
   104   53  114 1    
   105   53  115 1    
   106   53  116 1    
   107   54   55 am   BACKBONE|DICT|INTERRES
   108   54  117 1    
   109   55   56 2    
   110   55   57 1    
   111   57   58 1    
   112   57   59 1    
   113   57  118 1    
   114   58  119 1    
   115   58  120 1    
   116   58  121 1    
   117   59   60 am   BACKBONE|DICT|INTERRES
   118   59  122 1    
   119   60   61 2    
   120   60   62 1    
   121   62   63 1    
   122   62   64 1    
   123   62  123 1    
   124   63  124 1    
   125   63  125 1    
   126   63  126 1    
   127   64   65 am   BACKBONE|DICT|INTERRES
   128   64  127 1    
   129   65   66 2    
@<TRIPOS>SUBSTRUCTURE
     1 UNK         1 GROUP             0       ****    0 ROOT    
