@<TRIPOS>MOLECULE
3R134
127   129    1
SMALL
USER_CHARGES


@<TRIPOS>ATOM
      1 CA         33.3184  -43.3668  -58.4330 C.3       0 UNK        -0.1968 
      2 C          34.1274  -44.2542  -57.4981 C.2       0 UNK         0.4852 
      3 O          34.4419  -45.3893  -57.8567 O.2       0 UNK        -0.5359 
      4 N          34.4588  -43.7448  -56.3039 N.am      1 UNK        -0.4300 
      5 CA         35.2064  -44.4531  -55.2588 C.3       1 UNK         0.0863 
      6 C6         35.1524  -43.6974  -53.9041 C.3       11 UNK        -0.0953 
      7 S7         33.4636  -43.2900  -53.3453 S.3       11 UNK        -0.2369 
      8 C8         32.7703  -44.9370  -52.9926 C.3       11 UNK         0.0226 
      9 C9         31.3433  -44.8373  -52.4735 C.ar      11 UNK        -0.0699 
     10 C10        31.0253  -45.2548  -51.1776 C.ar      11 UNK        -0.0804 
     11 C11        29.7078  -45.1831  -50.7118 C.ar      11 UNK        -0.0871 
     12 C12        28.7079  -44.6742  -51.5458 C.ar      11 UNK        -0.1008 
     13 C13        29.0127  -44.2650  -52.8464 C.ar      11 UNK        -0.0735 
     14 C14        30.3313  -44.3466  -53.3034 C.ar      11 UNK        -0.0945 
     15 C15        27.9165  -43.7402  -53.7607 C.3       11 UNK         0.0169 
     16 S16        26.9059  -45.0821  -54.4666 S.3       11 UNK        -0.2669 
     17 C17        28.1257  -45.9919  -55.4755 C.3       11 UNK        -0.0850 
     18 CA         28.3592  -45.3337  -56.8598 C.3       10 UNK         0.0855 
     19 C          29.6100  -45.9306  -57.5662 C.2       10 UNK         0.5543 
     20 N          29.4955  -46.5637  -58.7286 N.am      10 UNK        -0.7343 
     21 O          30.7154  -45.7927  -57.0525 O.2       10 UNK        -0.5027 
     22 N          27.1392  -45.3393  -57.6810 N.am      10 UNK        -0.4495 
     23 C          26.9024  -44.4824  -58.6841 C.2       10 UNK         0.4903 
     24 O          27.6364  -43.5285  -58.9487 O.2       10 UNK        -0.4860 
     25 CA         25.6398  -44.7299  -59.5398 C.3       9 UNK         0.0227 
     26 CB         25.7610  -44.1334  -60.9586 C.3       9 UNK        -0.1964 
     27 N          25.2380  -46.1415  -59.6098 N.am      9 UNK        -0.4231 
     28 C          25.9808  -47.1716  -60.0401 C.2       9 UNK         0.5014 
     29 O          27.1290  -47.0712  -60.4791 O.2       9 UNK        -0.5270 
     30 CA         25.3510  -48.5657  -59.8921 C.3       8 UNK         0.0284 
     31 CB         25.2646  -49.2794  -61.2517 C.3       8 UNK        -0.1977 
     32 N          26.1073  -49.3958  -58.9510 N.am      8 UNK        -0.4342 
     33 C          26.3305  -49.0963  -57.6640 C.2       8 UNK         0.5039 
     34 O          25.9176  -48.0705  -57.1151 O.2       8 UNK        -0.5547 
     35 CA         27.1845  -50.1036  -56.8739 C.3       7 UNK         0.0281 
     36 CB         28.6811  -49.8039  -57.0607 C.3       7 UNK        -0.1963 
     37 N          26.8572  -50.1113  -55.4436 N.am      7 UNK        -0.4444 
     38 C          25.6942  -50.5615  -54.9436 C.2       7 UNK         0.5104 
     39 O          24.8023  -51.0435  -55.6445 O.2       7 UNK        -0.5100 
     40 CA         25.4788  -50.5150  -53.4170 C.3       6 UNK         0.0396 
     41 CB         25.2297  -51.9291  -52.8633 C.3       6 UNK        -0.1801 
     42 N          26.6078  -49.9303  -52.6939 N.am      6 UNK        -0.4747 
     43 C          26.7239  -48.6461  -52.3275 C.2       6 UNK         0.5012 
     44 O          25.8396  -47.8081  -52.4991 O.2       6 UNK        -0.5003 
     45 CA         28.0477  -48.2293  -51.6441 C.3       5 UNK         0.0782 
     46 C46        27.8053  -47.8968  -50.1479 C.3       11 UNK        -0.0868 
     47 S47        29.3288  -47.4872  -49.2246 S.3       11 UNK        -0.2515 
     48 C48        29.3653  -45.6685  -49.3117 C.3       11 UNK         0.0199 
     49 N          29.1260  -49.2119  -51.8299 N.am      5 UNK        -0.4607 
     50 C          29.7190  -49.4660  -53.0009 C.2       4 UNK         0.5031 
     51 O          29.3735  -48.9493  -54.0644 O.2       4 UNK        -0.5119 
     52 CA         30.8197  -50.5367  -52.9955 C.3       4 UNK         0.0263 
     53 CB         30.2246  -51.9092  -53.3524 C.3       4 UNK        -0.1967 
     54 N          31.8759  -50.2066  -53.9518 N.am      4 UNK        -0.4237 
     55 C          32.7634  -49.2217  -53.7732 C.2       3 UNK         0.4908 
     56 O          32.8510  -48.5474  -52.7416 O.2       3 UNK        -0.5102 
     57 CA         33.7080  -48.9356  -54.9458 C.3       3 UNK         0.0241 
     58 CB         32.9589  -48.2108  -56.0818 C.3       3 UNK        -0.1971 
     59 N          34.7913  -48.1023  -54.4383 N.am      3 UNK        -0.4139 
     60 C          35.9357  -47.8058  -55.0584 C.2       2 UNK         0.5016 
     61 O          36.2730  -48.2537  -56.1561 O.2       2 UNK        -0.5319 
     62 CA         36.8648  -46.8354  -54.3125 C.3       2 UNK         0.0286 
     63 CB         38.0699  -47.5906  -53.7285 C.3       2 UNK        -0.1963 
     64 N          37.3518  -45.7686  -55.1928 N.am      2 UNK        -0.4790 
     65 C          36.6762  -44.7155  -55.6829 C.2       1 UNK         0.5024 
     66 O          37.2294  -43.9119  -56.4356 O.2       1 UNK        -0.4888 
     67 H67        32.3587  -43.8353  -58.6514 H         1 UNK         0.0892 
     68 H68        33.1253  -42.3856  -57.9998 H         1 UNK         0.0892 
     69 H69        33.8518  -43.2249  -59.3724 H         1 UNK         0.0892 
     70 H70        34.1872  -42.8002  -56.0732 H         1 UNK         0.3107 
     71 H71        34.6989  -45.4066  -55.1398 H         1 UNK         0.0773 
     72 H72        35.7044  -42.7582  -53.9767 H         1 UNK         0.0680 
     73 H73        35.6400  -44.2659  -53.1119 H         1 UNK         0.0680 
     74 H74        33.4106  -45.4537  -52.2762 H         1 UNK         0.0650 
     75 H75        32.7650  -45.5388  -53.9017 H         1 UNK         0.0650 
     76 H76        31.7983  -45.6525  -50.5342 H         1 UNK         0.1397 
     77 H77        27.6861  -44.6192  -51.1951 H         1 UNK         0.1363 
     78 H78        30.5735  -44.0352  -54.3107 H         1 UNK         0.1355 
     79 H79        27.2651  -43.0710  -53.1969 H         1 UNK         0.0707 
     80 H80        28.3402  -43.1400  -54.5671 H         1 UNK         0.0707 
     81 H81        29.0566  -46.0903  -54.9166 H         1 UNK         0.1034 
     82 H82        27.7652  -47.0135  -55.5968 H         1 UNK         0.1034 
     83 H83        28.6195  -44.2903  -56.6738 H         1 UNK         0.0482 
     84 H84        30.3258  -46.9271  -59.1665 H         1 UNK         0.3460 
     85 H85        28.5999  -46.6570  -59.1960 H         1 UNK         0.3460 
     86 H86        26.5114  -46.1228  -57.5301 H         1 UNK         0.2989 
     87 H87        24.8276  -44.2086  -59.0313 H         1 UNK         0.0559 
     88 H88        25.9204  -43.0551  -60.9199 H         1 UNK         0.0848 
     89 H89        24.8551  -44.3030  -61.5403 H         1 UNK         0.0848 
     90 H90        26.5982  -44.5656  -61.5078 H         1 UNK         0.0848 
     91 H91        24.3274  -46.3499  -59.2224 H         1 UNK         0.3144 
     92 H92        24.3375  -48.4609  -59.4990 H         1 UNK         0.0727 
     93 H93        26.2521  -49.4504  -61.6826 H         1 UNK         0.0790 
     94 H94        24.6964  -48.6842  -61.9679 H         1 UNK         0.0790 
     95 H95        24.7637  -50.2438  -61.1644 H         1 UNK         0.0790 
     96 H96        26.5163  -50.2381  -59.3291 H         1 UNK         0.3215 
     97 H97        26.9844  -51.1042  -57.2636 H         1 UNK         0.0863 
     98 H98        29.3015  -50.5276  -56.5323 H         1 UNK         0.0808 
     99 H99        28.9440  -48.8114  -56.6957 H         1 UNK         0.0808 
    100 H100       28.9627  -49.8434  -58.1137 H         1 UNK         0.0808 
    101 H101       27.5348  -49.6862  -54.8213 H         1 UNK         0.3118 
    102 H102       24.5806  -49.9206  -53.2373 H         1 UNK         0.0546 
    103 H103       26.0800  -52.5888  -53.0406 H         1 UNK         0.0828 
    104 H104       24.3587  -52.3877  -53.3336 H         1 UNK         0.0828 
    105 H105       25.0388  -51.9073  -51.7903 H         1 UNK         0.0828 
    106 H106       27.3844  -50.5449  -52.4979 H         1 UNK         0.3005 
    107 H107       28.3654  -47.3153  -52.1494 H         1 UNK         0.1257 
    108 H108       27.3423  -48.7474  -49.6439 H         1 UNK         0.0775 
    109 H109       27.0980  -47.0709  -50.0505 H         1 UNK         0.0775 
    110 H110       28.4089  -45.2634  -48.9773 H         1 UNK         0.0840 
    111 H111       30.1131  -45.2975  -48.6092 H         1 UNK         0.0840 
    112 H112       29.4597  -49.6661  -50.9918 H         1 UNK         0.2987 
    113 H113       31.2602  -50.5922  -51.9974 H         1 UNK         0.0785 
    114 H114       29.4636  -52.2067  -52.6298 H         1 UNK         0.0798 
    115 H115       30.9896  -52.6859  -53.3502 H         1 UNK         0.0798 
    116 H116       29.7546  -51.9039  -54.3370 H         1 UNK         0.0798 
    117 H117       31.8463  -50.6837  -54.8408 H         1 UNK         0.3079 
    118 H118       34.1210  -49.8794  -55.3077 H         1 UNK         0.0794 
    119 H119       33.6085  -48.0200  -56.9362 H         1 UNK         0.0786 
    120 H120       32.5632  -47.2508  -55.7487 H         1 UNK         0.0786 
    121 H121       32.1157  -48.7990  -56.4457 H         1 UNK         0.0786 
    122 H122       34.6060  -47.7597  -53.5020 H         1 UNK         0.3032 
    123 H123       36.3239  -46.3894  -53.4770 H         1 UNK         0.1094 
    124 H124       38.6711  -48.0595  -54.5089 H         1 UNK         0.0794 
    125 H125       38.7191  -46.9248  -53.1592 H         1 UNK         0.0794 
    126 H126       37.7447  -48.3809  -53.0503 H         1 UNK         0.0794 
    127 H127       38.2985  -45.8935  -55.5202 H         1 UNK         0.3016 
@<TRIPOS>BOND
     1    1    2 1    
     2    1   67 1    
     3    1   68 1    
     4    1   69 1    
     5    2    3 2    
     6    2    4 am   BACKBONE|DICT|INTERRES
     7    4    5 1    
     8    4   70 1    
     9    5    6 1    
    10    5   65 1    
    11    5   71 1    
    12    6    7 1    
    13    6   72 1    
    14    6   73 1    
    15    7    8 1    
    16    8    9 1    
    17    8   74 1    
    18    8   75 1    
    19    9   10 ar   
    20    9   14 ar   
    21   10   11 ar   
    22   10   76 1    
    23   11   12 ar   
    24   11   48 1    
    25   12   13 ar   
    26   12   77 1    
    27   13   14 ar   
    28   13   15 1    
    29   14   78 1    
    30   15   16 1    
    31   15   79 1    
    32   15   80 1    
    33   16   17 1    
    34   17   18 1    
    35   17   81 1    
    36   17   82 1    
    37   18   19 1    
    38   18   22 1    
    39   18   83 1    
    40   19   20 am   BACKBONE|DICT|INTERRES
    41   19   21 2    
    42   20   84 1    
    43   20   85 1    
    44   22   23 am   BACKBONE|DICT|INTERRES
    45   22   86 1    
    46   23   24 2    
    47   23   25 1    
    48   25   26 1    
    49   25   27 1    
    50   25   87 1    
    51   26   88 1    
    52   26   89 1    
    53   26   90 1    
    54   27   28 am   BACKBONE|DICT|INTERRES
    55   27   91 1    
    56   28   29 2    
    57   28   30 1    
    58   30   31 1    
    59   30   32 1    
    60   30   92 1    
    61   31   93 1    
    62   31   94 1    
    63   31   95 1    
    64   32   33 am   BACKBONE|DICT|INTERRES
    65   32   96 1    
    66   33   34 2    
    67   33   35 1    
    68   35   36 1    
    69   35   37 1    
    70   35   97 1    
    71   36   98 1    
    72   36   99 1    
    73   36  100 1    
    74   37   38 am   BACKBONE|DICT|INTERRES
    75   37  101 1    
    76   38   39 2    
    77   38   40 1    
    78   40   41 1    
    79   40   42 1    
    80   40  102 1    
    81   41  103 1    
    82   41  104 1    
    83   41  105 1    
    84   42   43 am   BACKBONE|DICT|INTERRES
    85   42  106 1    
    86   43   44 2    
    87   43   45 1    
    88   45   46 1    
    89   45   49 1    
    90   45  107 1    
    91   46   47 1    
    92   46  108 1    
    93   46  109 1    
    94   47   48 1    
    95   48  110 1    
    96   48  111 1    
    97   49   50 am   BACKBONE|DICT|INTERRES
    98   49  112 1    
    99   50   51 2    
   100   50   52 1    
   101   52   53 1    
   102   52   54 1    
   103   52  113 1    
   104   53  114 1    
   105   53  115 1    
   106   53  116 1    
   107   54   55 am   BACKBONE|DICT|INTERRES
   108   54  117 1    
   109   55   56 2    
   110   55   57 1    
   111   57   58 1    
   112   57   59 1    
   113   57  118 1    
   114   58  119 1    
   115   58  120 1    
   116   58  121 1    
   117   59   60 am   BACKBONE|DICT|INTERRES
   118   59  122 1    
   119   60   61 2    
   120   60   62 1    
   121   62   63 1    
   122   62   64 1    
   123   62  123 1    
   124   63  124 1    
   125   63  125 1    
   126   63  126 1    
   127   64   65 am   BACKBONE|DICT|INTERRES
   128   64  127 1    
   129   65   66 2    
@<TRIPOS>SUBSTRUCTURE
     1 UNK         1 GROUP             0       ****    0 ROOT    
