@<TRIPOS>MOLECULE
3R134
127   129    1
SMALL
USER_CHARGES


@<TRIPOS>ATOM
      1 CA         36.1621  -44.2020  -48.1037 C.3       0 UNK        -0.1968 
      2 C          35.7448  -45.0464  -49.2989 C.2       0 UNK         0.4852 
      3 O          36.0038  -46.2510  -49.3167 O.2       0 UNK        -0.5359 
      4 N          35.1109  -44.4222  -50.2993 N.am      1 UNK        -0.4300 
      5 CA         34.5634  -45.0757  -51.4910 C.3       1 UNK         0.0863 
      6 C6         34.2694  -44.0680  -52.6330 C.3       11 UNK        -0.0953 
      7 S7         33.3750  -42.5604  -52.1113 S.3       11 UNK        -0.2369 
      8 C8         33.5885  -41.4991  -53.5745 C.3       11 UNK         0.0226 
      9 C9         32.6202  -41.8858  -54.6811 C.ar      11 UNK        -0.0699 
     10 C10        32.9680  -42.8657  -55.6132 C.ar      11 UNK        -0.0804 
     11 C11        32.0589  -43.2602  -56.5976 C.ar      11 UNK        -0.0871 
     12 C12        30.8164  -42.6248  -56.6794 C.ar      11 UNK        -0.1008 
     13 C13        30.4517  -41.6342  -55.7565 C.ar      11 UNK        -0.0735 
     14 C14        31.3650  -41.2763  -54.7597 C.ar      11 UNK        -0.0945 
     15 C15        29.0938  -40.9237  -55.7703 C.3       11 UNK         0.0169 
     16 S16        27.9078  -41.4379  -57.0619 S.3       11 UNK        -0.2669 
     17 C17        27.4217  -43.0967  -56.4724 C.3       11 UNK        -0.0850 
     18 CA         26.8410  -43.9853  -57.6013 C.3       10 UNK         0.0855 
     19 C          27.8987  -44.3893  -58.6593 C.2       10 UNK         0.5543 
     20 N          27.7919  -43.8816  -59.8791 N.am      10 UNK        -0.7343 
     21 O          28.8289  -45.1392  -58.3757 O.2       10 UNK        -0.5027 
     22 N          26.2547  -45.2030  -57.0429 N.am      10 UNK        -0.4495 
     23 C          24.9493  -45.4556  -56.9081 C.2       10 UNK         0.4903 
     24 O          24.0602  -44.6354  -57.1436 O.2       10 UNK        -0.4860 
     25 CA         24.5899  -46.8823  -56.4483 C.3       9 UNK         0.0227 
     26 CB         23.0786  -47.1859  -56.5206 C.3       9 UNK        -0.1964 
     27 N          25.3668  -47.9021  -57.1634 N.am      9 UNK        -0.4231 
     28 C          25.3999  -48.1306  -58.4864 C.2       9 UNK         0.5014 
     29 O          24.6858  -47.5493  -59.3047 O.2       9 UNK        -0.5270 
     30 CA         26.4218  -49.1620  -59.0023 C.3       8 UNK         0.0284 
     31 CB         27.5870  -48.4412  -59.7008 C.3       8 UNK        -0.1977 
     32 N          26.9598  -50.0370  -57.9562 N.am      8 UNK        -0.4342 
     33 C          26.2768  -51.0279  -57.3658 C.2       8 UNK         0.5039 
     34 O          25.1369  -51.3620  -57.6905 O.2       8 UNK        -0.5547 
     35 CA         26.9660  -51.7418  -56.1899 C.3       7 UNK         0.0281 
     36 CB         27.9442  -52.8120  -56.6994 C.3       7 UNK        -0.1963 
     37 N          27.6674  -50.8191  -55.2918 N.am      7 UNK        -0.4444 
     38 C          27.0797  -49.8549  -54.5679 C.2       7 UNK         0.5104 
     39 O          25.8669  -49.6493  -54.5522 O.2       7 UNK        -0.5100 
     40 CA         28.0063  -48.9263  -53.7678 C.3       6 UNK         0.0396 
     41 CB         28.4443  -49.5780  -52.4464 C.3       6 UNK        -0.1801 
     42 N          29.1775  -48.5287  -54.5508 N.am      6 UNK        -0.4747 
     43 C          29.1359  -47.6757  -55.5861 C.2       6 UNK         0.5012 
     44 O          28.1127  -47.0925  -55.9441 O.2       6 UNK        -0.5003 
     45 CA         30.4463  -47.4692  -56.3704 C.3       5 UNK         0.0782 
     46 C46        31.2557  -46.2962  -55.7687 C.3       11 UNK        -0.0868 
     47 S47        32.7967  -45.9499  -56.6877 S.3       11 UNK        -0.2515 
     48 C48        32.4030  -44.3932  -57.5573 C.3       11 UNK         0.0199 
     49 N          31.2230  -48.7114  -56.4492 N.am      5 UNK        -0.4607 
     50 C          30.8572  -49.7761  -57.1765 C.2       4 UNK         0.5031 
     51 O          29.8289  -49.8194  -57.8499 O.2       4 UNK        -0.5119 
     52 CA         31.7557  -51.0223  -57.1056 C.3       4 UNK         0.0263 
     53 CB         32.8966  -50.9205  -58.1298 C.3       4 UNK        -0.1967 
     54 N          32.3126  -51.2638  -55.7728 N.am      4 UNK        -0.4237 
     55 C          31.5896  -51.4579  -54.6614 C.2       3 UNK         0.4908 
     56 O          30.3588  -51.4835  -54.6439 O.2       3 UNK        -0.5102 
     57 CA         32.3522  -51.6043  -53.3332 C.3       3 UNK         0.0241 
     58 CB         33.8622  -51.8930  -53.5004 C.3       3 UNK        -0.1971 
     59 N          32.1475  -50.4416  -52.4598 N.am      3 UNK        -0.4139 
     60 C          32.4087  -49.1568  -52.7468 C.2       2 UNK         0.5016 
     61 O          32.8198  -48.7697  -53.8441 O.2       2 UNK        -0.5319 
     62 CA         32.1990  -48.1225  -51.6275 C.3       2 UNK         0.0286 
     63 CB         32.2149  -48.7379  -50.2069 C.3       2 UNK        -0.1963 
     64 N          33.2445  -47.1125  -51.7782 N.am      2 UNK        -0.4790 
     65 C          33.3311  -45.9383  -51.1445 C.2       1 UNK         0.5024 
     66 O          32.4969  -45.5291  -50.3331 O.2       1 UNK        -0.4888 
     67 H67        37.2422  -44.2510  -47.9680 H         1 UNK         0.0892 
     68 H68        35.8831  -43.1556  -48.2263 H         1 UNK         0.0892 
     69 H69        35.6869  -44.5753  -47.1969 H         1 UNK         0.0892 
     70 H70        34.8919  -43.4390  -50.2192 H         1 UNK         0.3107 
     71 H71        35.3363  -45.7546  -51.8591 H         1 UNK         0.0773 
     72 H72        33.7139  -44.5515  -53.4389 H         1 UNK         0.0680 
     73 H73        35.2168  -43.7553  -53.0745 H         1 UNK         0.0680 
     74 H74        34.6189  -41.5513  -53.9293 H         1 UNK         0.0650 
     75 H75        33.4210  -40.4617  -53.2812 H         1 UNK         0.0650 
     76 H76        33.9330  -43.3496  -55.5519 H         1 UNK         0.1397 
     77 H77        30.1334  -42.9262  -57.4586 H         1 UNK         0.1363 
     78 H78        31.0944  -40.5219  -54.0331 H         1 UNK         0.1355 
     79 H79        29.2707  -39.8541  -55.8916 H         1 UNK         0.0707 
     80 H80        28.6176  -41.0466  -54.7962 H         1 UNK         0.0707 
     81 H81        28.2640  -43.5942  -55.9882 H         1 UNK         0.1034 
     82 H82        26.6715  -42.9575  -55.6924 H         1 UNK         0.1034 
     83 H83        26.0594  -43.4163  -58.1093 H         1 UNK         0.0482 
     84 H84        27.0429  -43.2503  -60.1167 H         1 UNK         0.3460 
     85 H85        28.4790  -44.1292  -60.5731 H         1 UNK         0.3460 
     86 H86        26.9253  -45.9363  -56.8171 H         1 UNK         0.2989 
     87 H87        24.8909  -46.9515  -55.4020 H         1 UNK         0.0559 
     88 H88        22.5121  -46.4971  -55.8928 H         1 UNK         0.0848 
     89 H89        22.8614  -48.1954  -56.1713 H         1 UNK         0.0848 
     90 H90        22.6925  -47.0914  -57.5359 H         1 UNK         0.0848 
     91 H91        26.0015  -48.4369  -56.5851 H         1 UNK         0.3144 
     92 H92        25.9129  -49.7846  -59.7412 H         1 UNK         0.0727 
     93 H93        28.1435  -47.8115  -59.0052 H         1 UNK         0.0790 
     94 H94        27.2274  -47.7979  -60.5050 H         1 UNK         0.0790 
     95 H95        28.2864  -49.1513  -60.1423 H         1 UNK         0.0790 
     96 H96        27.9321  -49.8856  -57.6945 H         1 UNK         0.3215 
     97 H97        26.1897  -52.2406  -55.6057 H         1 UNK         0.0863 
     98 H98        28.4000  -53.3590  -55.8738 H         1 UNK         0.0808 
     99 H99        28.7463  -52.3752  -57.2943 H         1 UNK         0.0808 
    100 H100       27.4313  -53.5407  -57.3285 H         1 UNK         0.0808 
    101 H101       28.6720  -50.9530  -55.1905 H         1 UNK         0.3118 
    102 H102       27.4409  -48.0247  -53.5215 H         1 UNK         0.0546 
    103 H103       29.0321  -50.4814  -52.6072 H         1 UNK         0.0828 
    104 H104       27.5761  -49.8610  -51.8495 H         1 UNK         0.0828 
    105 H105       29.0372  -48.8918  -51.8427 H         1 UNK         0.0828 
    106 H106       30.0412  -49.0217  -54.3732 H         1 UNK         0.3005 
    107 H107       30.1638  -47.1923  -57.3886 H         1 UNK         0.1257 
    108 H108       30.6396  -45.3962  -55.7371 H         1 UNK         0.0775 
    109 H109       31.5284  -46.5074  -54.7331 H         1 UNK         0.0775 
    110 H110       33.2608  -44.0983  -58.1629 H         1 UNK         0.0840 
    111 H111       31.5835  -44.5797  -58.2534 H         1 UNK         0.0840 
    112 H112       32.0567  -48.7571  -55.8737 H         1 UNK         0.2987 
    113 H113       31.1410  -51.8863  -57.3649 H         1 UNK         0.0785 
    114 H114       32.5038  -50.7623  -59.1354 H         1 UNK         0.0798 
    115 H115       33.4902  -51.8345  -58.1562 H         1 UNK         0.0798 
    116 H116       33.5669  -50.0891  -57.9075 H         1 UNK         0.0798 
    117 H117       33.3174  -51.2221  -55.6836 H         1 UNK         0.3079 
    118 H118       31.9075  -52.4610  -52.8243 H         1 UNK         0.0794 
    119 H119       34.3266  -52.0943  -52.5349 H         1 UNK         0.0786 
    120 H120       34.3999  -51.0574  -53.9502 H         1 UNK         0.0786 
    121 H121       34.0307  -52.7738  -54.1217 H         1 UNK         0.0786 
    122 H122       31.7962  -50.6531  -51.5365 H         1 UNK         0.3032 
    123 H123       31.2333  -47.6438  -51.8018 H         1 UNK         0.1094 
    124 H124       33.1489  -49.2645  -50.0060 H         1 UNK         0.0794 
    125 H125       32.0972  -47.9775  -49.4353 H         1 UNK         0.0794 
    126 H126       31.3940  -49.4417  -50.0653 H         1 UNK         0.0794 
    127 H127       33.9267  -47.3450  -52.4904 H         1 UNK         0.3016 
@<TRIPOS>BOND
     1    1    2 1    
     2    1   67 1    
     3    1   68 1    
     4    1   69 1    
     5    2    3 2    
     6    2    4 am   BACKBONE|DICT|INTERRES
     7    4    5 1    
     8    4   70 1    
     9    5    6 1    
    10    5   65 1    
    11    5   71 1    
    12    6    7 1    
    13    6   72 1    
    14    6   73 1    
    15    7    8 1    
    16    8    9 1    
    17    8   74 1    
    18    8   75 1    
    19    9   10 ar   
    20    9   14 ar   
    21   10   11 ar   
    22   10   76 1    
    23   11   12 ar   
    24   11   48 1    
    25   12   13 ar   
    26   12   77 1    
    27   13   14 ar   
    28   13   15 1    
    29   14   78 1    
    30   15   16 1    
    31   15   79 1    
    32   15   80 1    
    33   16   17 1    
    34   17   18 1    
    35   17   81 1    
    36   17   82 1    
    37   18   19 1    
    38   18   22 1    
    39   18   83 1    
    40   19   20 am   BACKBONE|DICT|INTERRES
    41   19   21 2    
    42   20   84 1    
    43   20   85 1    
    44   22   23 am   BACKBONE|DICT|INTERRES
    45   22   86 1    
    46   23   24 2    
    47   23   25 1    
    48   25   26 1    
    49   25   27 1    
    50   25   87 1    
    51   26   88 1    
    52   26   89 1    
    53   26   90 1    
    54   27   28 am   BACKBONE|DICT|INTERRES
    55   27   91 1    
    56   28   29 2    
    57   28   30 1    
    58   30   31 1    
    59   30   32 1    
    60   30   92 1    
    61   31   93 1    
    62   31   94 1    
    63   31   95 1    
    64   32   33 am   BACKBONE|DICT|INTERRES
    65   32   96 1    
    66   33   34 2    
    67   33   35 1    
    68   35   36 1    
    69   35   37 1    
    70   35   97 1    
    71   36   98 1    
    72   36   99 1    
    73   36  100 1    
    74   37   38 am   BACKBONE|DICT|INTERRES
    75   37  101 1    
    76   38   39 2    
    77   38   40 1    
    78   40   41 1    
    79   40   42 1    
    80   40  102 1    
    81   41  103 1    
    82   41  104 1    
    83   41  105 1    
    84   42   43 am   BACKBONE|DICT|INTERRES
    85   42  106 1    
    86   43   44 2    
    87   43   45 1    
    88   45   46 1    
    89   45   49 1    
    90   45  107 1    
    91   46   47 1    
    92   46  108 1    
    93   46  109 1    
    94   47   48 1    
    95   48  110 1    
    96   48  111 1    
    97   49   50 am   BACKBONE|DICT|INTERRES
    98   49  112 1    
    99   50   51 2    
   100   50   52 1    
   101   52   53 1    
   102   52   54 1    
   103   52  113 1    
   104   53  114 1    
   105   53  115 1    
   106   53  116 1    
   107   54   55 am   BACKBONE|DICT|INTERRES
   108   54  117 1    
   109   55   56 2    
   110   55   57 1    
   111   57   58 1    
   112   57   59 1    
   113   57  118 1    
   114   58  119 1    
   115   58  120 1    
   116   58  121 1    
   117   59   60 am   BACKBONE|DICT|INTERRES
   118   59  122 1    
   119   60   61 2    
   120   60   62 1    
   121   62   63 1    
   122   62   64 1    
   123   62  123 1    
   124   63  124 1    
   125   63  125 1    
   126   63  126 1    
   127   64   65 am   BACKBONE|DICT|INTERRES
   128   64  127 1    
   129   65   66 2    
@<TRIPOS>SUBSTRUCTURE
     1 UNK         1 GROUP             0       ****    0 ROOT    
