@<TRIPOS>MOLECULE
3R134
127   129    1
SMALL
USER_CHARGES


@<TRIPOS>ATOM
      1 CA         30.2402  -45.6948  -52.5695 C.3       0 UNK        -0.1968 
      2 C          31.6152  -45.8403  -51.9321 C.2       0 UNK         0.4852 
      3 O          31.8177  -46.7420  -51.1179 O.2       0 UNK        -0.5359 
      4 N          32.5572  -44.9606  -52.2998 N.am      1 UNK        -0.4300 
      5 CA         33.8634  -44.7824  -51.6496 C.3       1 UNK         0.0863 
      6 C6         34.6513  -43.5831  -52.2317 C.3       11 UNK        -0.0953 
      7 S7         33.7137  -42.0181  -52.1608 S.3       11 UNK        -0.2369 
      8 C8         33.6484  -41.5296  -53.9140 C.3       11 UNK         0.0226 
      9 C9         32.6711  -42.3791  -54.7139 C.ar      11 UNK        -0.0699 
     10 C10        33.1327  -43.4449  -55.4932 C.ar      11 UNK        -0.0804 
     11 C11        32.2384  -44.2137  -56.2430 C.ar      11 UNK        -0.0871 
     12 C12        30.8766  -43.8996  -56.2228 C.ar      11 UNK        -0.1008 
     13 C13        30.4021  -42.8397  -55.4469 C.ar      11 UNK        -0.0735 
     14 C14        31.3042  -42.0820  -54.6934 C.ar      11 UNK        -0.0945 
     15 C15        28.9140  -42.5276  -55.4226 C.3       11 UNK         0.0169 
     16 S16        28.3683  -41.8048  -57.0003 S.3       11 UNK        -0.2669 
     17 C17        26.5932  -41.5318  -56.6647 C.3       11 UNK        -0.0850 
     18 CA         25.6454  -42.5593  -57.3430 C.3       10 UNK         0.0855 
     19 C          25.5607  -42.4419  -58.8927 C.2       10 UNK         0.5543 
     20 N          25.3230  -43.5282  -59.6207 N.am      10 UNK        -0.7343 
     21 O          25.6840  -41.3521  -59.4466 O.2       10 UNK        -0.5027 
     22 N          25.9003  -43.9350  -56.8916 N.am      10 UNK        -0.4495 
     23 C          25.2089  -44.5839  -55.9502 C.2       10 UNK         0.4903 
     24 O          24.3444  -44.0483  -55.2545 O.2       10 UNK        -0.4860 
     25 CA         25.5292  -46.0815  -55.7441 C.3       9 UNK         0.0227 
     26 CB         24.2872  -46.8735  -55.2852 C.3       9 UNK        -0.1964 
     27 N          26.1621  -46.7566  -56.8895 N.am      9 UNK        -0.4231 
     28 C          25.7011  -46.8604  -58.1478 C.2       9 UNK         0.5014 
     29 O          24.6857  -46.2993  -58.5608 O.2       9 UNK        -0.5270 
     30 CA         26.5270  -47.7168  -59.1187 C.3       8 UNK         0.0284 
     31 CB         27.7675  -46.9428  -59.5979 C.3       8 UNK        -0.1977 
     32 N          26.9414  -48.9724  -58.4896 N.am      8 UNK        -0.4342 
     33 C          26.3176  -50.1509  -58.6346 C.2       8 UNK         0.5039 
     34 O          25.3595  -50.3308  -59.3874 O.2       8 UNK        -0.5547 
     35 CA         26.8435  -51.3374  -57.7995 C.3       7 UNK         0.0281 
     36 CB         27.8704  -52.1485  -58.6057 C.3       7 UNK        -0.1963 
     37 N          27.4461  -50.9247  -56.5294 N.am      7 UNK        -0.4444 
     38 C          26.7641  -50.3769  -55.5116 C.2       7 UNK         0.5104 
     39 O          25.5355  -50.3258  -55.4705 O.2       7 UNK        -0.5100 
     40 CA         27.5760  -49.7413  -54.3633 C.3       6 UNK         0.0396 
     41 CB         27.5075  -50.6229  -53.1074 C.3       6 UNK        -0.1801 
     42 N          28.9817  -49.4669  -54.6908 N.am      6 UNK        -0.4747 
     43 C          29.4009  -48.6542  -55.6756 C.2       6 UNK         0.5012 
     44 O          28.6278  -47.9907  -56.3668 O.2       6 UNK        -0.5003 
     45 CA         30.9122  -48.5767  -55.9855 C.3       5 UNK         0.0782 
     46 C46        31.4799  -47.2724  -55.3915 C.3       11 UNK        -0.0868 
     47 S47        33.1211  -46.8356  -56.0446 S.3       11 UNK        -0.2515 
     48 C48        32.7418  -45.3837  -57.0767 C.3       11 UNK         0.0199 
     49 N          31.6799  -49.7278  -55.5083 N.am      5 UNK        -0.4607 
     50 C          31.4582  -51.0244  -55.7582 C.2       4 UNK         0.5031 
     51 O          30.6129  -51.4378  -56.5526 O.2       4 UNK        -0.5119 
     52 CA         32.2707  -52.0184  -54.9052 C.3       4 UNK         0.0263 
     53 CB         33.4964  -52.5178  -55.6852 C.3       4 UNK        -0.1967 
     54 N          32.7119  -51.4508  -53.6210 N.am      4 UNK        -0.4237 
     55 C          31.9096  -50.9858  -52.6518 C.2       3 UNK         0.4908 
     56 O          30.6823  -51.0577  -52.6996 O.2       3 UNK        -0.5102 
     57 CA         32.5688  -50.2476  -51.4728 C.3       3 UNK         0.0241 
     58 CB         33.1806  -51.2347  -50.4594 C.3       3 UNK        -0.1971 
     59 N          33.5249  -49.2021  -51.8766 N.am      3 UNK        -0.4139 
     60 C          34.7171  -49.3465  -52.4789 C.2       2 UNK         0.5016 
     61 O          35.1902  -50.4422  -52.7861 O.2       2 UNK        -0.5319 
     62 CA         35.5047  -48.0743  -52.8445 C.3       2 UNK         0.0286 
     63 CB         36.0615  -48.1598  -54.2772 C.3       2 UNK        -0.1963 
     64 N          34.7108  -46.8464  -52.7063 N.am      2 UNK        -0.4790 
     65 C          34.7534  -46.0430  -51.6334 C.2       1 UNK         0.5024 
     66 O          35.4562  -46.2647  -50.6464 O.2       1 UNK        -0.4888 
     67 H67        30.2747  -45.0876  -53.4735 H         1 UNK         0.0892 
     68 H68        29.5559  -45.2191  -51.8678 H         1 UNK         0.0892 
     69 H69        29.8303  -46.6709  -52.8275 H         1 UNK         0.0892 
     70 H70        32.3308  -44.2552  -52.9883 H         1 UNK         0.3107 
     71 H71        33.6472  -44.5527  -50.6038 H         1 UNK         0.0773 
     72 H72        34.9585  -43.7871  -53.2581 H         1 UNK         0.0680 
     73 H73        35.5746  -43.4295  -51.6696 H         1 UNK         0.0680 
     74 H74        33.3473  -40.4826  -53.9718 H         1 UNK         0.0650 
     75 H75        34.6494  -41.5788  -54.3455 H         1 UNK         0.0650 
     76 H76        34.1880  -43.6800  -55.5189 H         1 UNK         0.1397 
     77 H77        30.1783  -44.4819  -56.8089 H         1 UNK         0.1363 
     78 H78        30.9455  -41.2566  -54.0933 H         1 UNK         0.1355 
     79 H79        28.6800  -41.8392  -54.6090 H         1 UNK         0.0707 
     80 H80        28.3535  -43.4433  -55.2279 H         1 UNK         0.0707 
     81 H81        26.3391  -40.5189  -56.9819 H         1 UNK         0.1034 
     82 H82        26.4218  -41.5415  -55.5874 H         1 UNK         0.1034 
     83 H83        24.6358  -42.2854  -57.0318 H         1 UNK         0.0482 
     84 H84        25.1162  -44.4177  -59.1802 H         1 UNK         0.3460 
     85 H85        25.2595  -43.4395  -60.6223 H         1 UNK         0.3460 
     86 H86        26.5958  -44.4404  -57.4201 H         1 UNK         0.2989 
     87 H87        26.2612  -46.1200  -54.9361 H         1 UNK         0.0559 
     88 H88        24.5302  -47.9170  -55.0912 H         1 UNK         0.0848 
     89 H89        23.4951  -46.8483  -56.0343 H         1 UNK         0.0848 
     90 H90        23.8754  -46.4667  -54.3608 H         1 UNK         0.0848 
     91 H91        27.0525  -47.2060  -56.6801 H         1 UNK         0.3144 
     92 H92        25.9054  -47.9257  -59.9922 H         1 UNK         0.0727 
     93 H93        28.3323  -47.5200  -60.3300 H         1 UNK         0.0790 
     94 H94        28.4420  -46.6957  -58.7772 H         1 UNK         0.0790 
     95 H95        27.4809  -46.0058  -60.0777 H         1 UNK         0.0790 
     96 H96        27.6921  -48.9034  -57.8111 H         1 UNK         0.3215 
     97 H97        25.9932  -51.9856  -57.5760 H         1 UNK         0.0863 
     98 H98        28.1999  -53.0302  -58.0556 H         1 UNK         0.0808 
     99 H99        28.7541  -51.5558  -58.8465 H         1 UNK         0.0808 
    100 H100       27.4423  -52.4950  -59.5473 H         1 UNK         0.0808 
    101 H101       28.4566  -50.9779  -56.4637 H         1 UNK         0.3118 
    102 H102       27.1037  -48.7844  -54.1315 H         1 UNK         0.0546 
    103 H103       26.4734  -50.8098  -52.8144 H         1 UNK         0.0828 
    104 H104       28.0016  -50.1468  -52.2603 H         1 UNK         0.0828 
    105 H105       27.9813  -51.5918  -53.2701 H         1 UNK         0.0828 
    106 H106       29.6706  -49.9833  -54.1525 H         1 UNK         0.3005 
    107 H107       31.0045  -48.5453  -57.0733 H         1 UNK         0.1257 
    108 H108       31.5797  -47.3784  -54.3127 H         1 UNK         0.0775 
    109 H109       30.7937  -46.4427  -55.5512 H         1 UNK         0.0775 
    110 H110       33.6435  -45.0860  -57.6140 H         1 UNK         0.0840 
    111 H111       32.0117  -45.6623  -57.8384 H         1 UNK         0.0840 
    112 H112       32.4207  -49.5095  -54.8602 H         1 UNK         0.2987 
    113 H113       31.6227  -52.8702  -54.6890 H         1 UNK         0.0785 
    114 H114       34.1930  -51.7074  -55.9042 H         1 UNK         0.0798 
    115 H115       33.1999  -52.9612  -56.6370 H         1 UNK         0.0798 
    116 H116       34.0367  -53.2826  -55.1270 H         1 UNK         0.0798 
    117 H117       33.7132  -51.3208  -53.4856 H         1 UNK         0.3079 
    118 H118       31.7675  -49.7150  -50.9573 H         1 UNK         0.0794 
    119 H119       33.9811  -51.8327  -50.8957 H         1 UNK         0.0786 
    120 H120       32.4244  -51.9292  -50.0913 H         1 UNK         0.0786 
    121 H121       33.5873  -50.7110  -49.5943 H         1 UNK         0.0786 
    122 H122       33.2139  -48.2560  -51.6790 H         1 UNK         0.3032 
    123 H123       36.3611  -48.0379  -52.1672 H         1 UNK         0.1094 
    124 H124       35.2838  -48.3919  -55.0037 H         1 UNK         0.0794 
    125 H125       36.5406  -47.2282  -54.5787 H         1 UNK         0.0794 
    126 H126       36.8129  -48.9467  -54.3544 H         1 UNK         0.0794 
    127 H127       34.1061  -46.6000  -53.4784 H         1 UNK         0.3016 
@<TRIPOS>BOND
     1    1    2 1    
     2    1   67 1    
     3    1   68 1    
     4    1   69 1    
     5    2    3 2    
     6    2    4 am   BACKBONE|DICT|INTERRES
     7    4    5 1    
     8    4   70 1    
     9    5    6 1    
    10    5   65 1    
    11    5   71 1    
    12    6    7 1    
    13    6   72 1    
    14    6   73 1    
    15    7    8 1    
    16    8    9 1    
    17    8   74 1    
    18    8   75 1    
    19    9   10 ar   
    20    9   14 ar   
    21   10   11 ar   
    22   10   76 1    
    23   11   12 ar   
    24   11   48 1    
    25   12   13 ar   
    26   12   77 1    
    27   13   14 ar   
    28   13   15 1    
    29   14   78 1    
    30   15   16 1    
    31   15   79 1    
    32   15   80 1    
    33   16   17 1    
    34   17   18 1    
    35   17   81 1    
    36   17   82 1    
    37   18   19 1    
    38   18   22 1    
    39   18   83 1    
    40   19   20 am   BACKBONE|DICT|INTERRES
    41   19   21 2    
    42   20   84 1    
    43   20   85 1    
    44   22   23 am   BACKBONE|DICT|INTERRES
    45   22   86 1    
    46   23   24 2    
    47   23   25 1    
    48   25   26 1    
    49   25   27 1    
    50   25   87 1    
    51   26   88 1    
    52   26   89 1    
    53   26   90 1    
    54   27   28 am   BACKBONE|DICT|INTERRES
    55   27   91 1    
    56   28   29 2    
    57   28   30 1    
    58   30   31 1    
    59   30   32 1    
    60   30   92 1    
    61   31   93 1    
    62   31   94 1    
    63   31   95 1    
    64   32   33 am   BACKBONE|DICT|INTERRES
    65   32   96 1    
    66   33   34 2    
    67   33   35 1    
    68   35   36 1    
    69   35   37 1    
    70   35   97 1    
    71   36   98 1    
    72   36   99 1    
    73   36  100 1    
    74   37   38 am   BACKBONE|DICT|INTERRES
    75   37  101 1    
    76   38   39 2    
    77   38   40 1    
    78   40   41 1    
    79   40   42 1    
    80   40  102 1    
    81   41  103 1    
    82   41  104 1    
    83   41  105 1    
    84   42   43 am   BACKBONE|DICT|INTERRES
    85   42  106 1    
    86   43   44 2    
    87   43   45 1    
    88   45   46 1    
    89   45   49 1    
    90   45  107 1    
    91   46   47 1    
    92   46  108 1    
    93   46  109 1    
    94   47   48 1    
    95   48  110 1    
    96   48  111 1    
    97   49   50 am   BACKBONE|DICT|INTERRES
    98   49  112 1    
    99   50   51 2    
   100   50   52 1    
   101   52   53 1    
   102   52   54 1    
   103   52  113 1    
   104   53  114 1    
   105   53  115 1    
   106   53  116 1    
   107   54   55 am   BACKBONE|DICT|INTERRES
   108   54  117 1    
   109   55   56 2    
   110   55   57 1    
   111   57   58 1    
   112   57   59 1    
   113   57  118 1    
   114   58  119 1    
   115   58  120 1    
   116   58  121 1    
   117   59   60 am   BACKBONE|DICT|INTERRES
   118   59  122 1    
   119   60   61 2    
   120   60   62 1    
   121   62   63 1    
   122   62   64 1    
   123   62  123 1    
   124   63  124 1    
   125   63  125 1    
   126   63  126 1    
   127   64   65 am   BACKBONE|DICT|INTERRES
   128   64  127 1    
   129   65   66 2    
@<TRIPOS>SUBSTRUCTURE
     1 UNK         1 GROUP             0       ****    0 ROOT    
