@<TRIPOS>MOLECULE
3R134
127   129    1
SMALL
USER_CHARGES


@<TRIPOS>ATOM
      1 CA         31.8133  -48.6352  -58.0987 C.3       0 UNK        -0.1968 
      2 C          32.3787  -48.3713  -56.7127 C.2       0 UNK         0.4852 
      3 O          32.7654  -49.3146  -56.0212 O.2       0 UNK        -0.5359 
      4 N          32.4724  -47.0959  -56.3113 N.am      1 UNK        -0.4300 
      5 CA         32.9910  -46.6536  -55.0088 C.3       1 UNK         0.0863 
      6 C6         32.5954  -45.2047  -54.6654 C.3       11 UNK        -0.0953 
      7 S7         33.1297  -43.9411  -55.8696 S.3       11 UNK        -0.2369 
      8 C8         32.8639  -42.4068  -54.9143 C.3       11 UNK         0.0226 
      9 C9         31.5381  -42.4270  -54.1652 C.ar      11 UNK        -0.0699 
     10 C10        31.5139  -42.6983  -52.7940 C.ar      11 UNK        -0.0804 
     11 C11        30.2996  -42.8385  -52.1181 C.ar      11 UNK        -0.0871 
     12 C12        29.1005  -42.6639  -52.8157 C.ar      11 UNK        -0.1008 
     13 C13        29.1133  -42.3750  -54.1844 C.ar      11 UNK        -0.0735 
     14 C14        30.3351  -42.2520  -54.8532 C.ar      11 UNK        -0.0945 
     15 C15        27.8080  -42.2223  -54.9507 C.3       11 UNK         0.0169 
     16 S16        26.8855  -43.7889  -55.0795 S.3       11 UNK        -0.2669 
     17 C17        28.0830  -44.8960  -55.9086 C.3       11 UNK        -0.0850 
     18 CA         28.1741  -44.6727  -57.4394 C.3       10 UNK         0.0855 
     19 C          29.2659  -45.5825  -58.0766 C.2       10 UNK         0.5543 
     20 N          28.9498  -46.4469  -59.0350 N.am      10 UNK        -0.7343 
     21 O          30.4309  -45.4965  -57.6979 O.2       10 UNK        -0.5027 
     22 N          26.8568  -44.7747  -58.0848 N.am      10 UNK        -0.4495 
     23 C          26.5301  -44.1849  -59.2423 C.2       10 UNK         0.4903 
     24 O          27.2737  -43.4065  -59.8421 O.2       10 UNK        -0.4860 
     25 CA         25.1432  -44.5235  -59.8334 C.3       9 UNK         0.0227 
     26 CB         25.0939  -44.3383  -61.3653 C.3       9 UNK        -0.1964 
     27 N          24.6480  -45.8572  -59.4624 N.am      9 UNK        -0.4231 
     28 C          25.2584  -47.0313  -59.6787 C.2       9 UNK         0.5014 
     29 O          26.3410  -47.1595  -60.2559 O.2       9 UNK        -0.5270 
     30 CA         24.5580  -48.2751  -59.1111 C.3       8 UNK         0.0284 
     31 CB         24.1116  -49.2166  -60.2420 C.3       8 UNK        -0.1977 
     32 N          25.4338  -48.9992  -58.1875 N.am      8 UNK        -0.4342 
     33 C          25.9051  -48.5057  -57.0351 C.2       8 UNK         0.5039 
     34 O          25.6429  -47.3772  -56.6082 O.2       8 UNK        -0.5547 
     35 CA         26.8372  -49.4215  -56.2364 C.3       7 UNK         0.0281 
     36 CB         28.3000  -49.2288  -56.6691 C.3       7 UNK        -0.1963 
     37 N          26.7083  -49.1057  -54.8186 N.am      7 UNK        -0.4444 
     38 C          26.7344  -49.9874  -53.8157 C.2       7 UNK         0.5104 
     39 O          26.8988  -51.1990  -53.9729 O.2       7 UNK        -0.5100 
     40 CA         26.5738  -49.4064  -52.3967 C.3       6 UNK         0.0396 
     41 CB         26.3205  -50.4952  -51.3375 C.3       6 UNK        -0.1801 
     42 N          27.7577  -48.6385  -52.0092 N.am      6 UNK        -0.4747 
     43 C          28.0624  -47.4071  -52.4437 C.2       6 UNK         0.5012 
     44 O          27.3121  -46.7415  -53.1558 O.2       6 UNK        -0.5003 
     45 CA         29.4250  -46.8167  -52.0178 C.3       5 UNK         0.0782 
     46 C46        29.2128  -45.8131  -50.8558 C.3       11 UNK        -0.0868 
     47 S47        30.7411  -44.9442  -50.3657 S.3       11 UNK        -0.2515 
     48 C48        30.2967  -43.1961  -50.6395 C.3       11 UNK         0.0199 
     49 N          30.4229  -47.8475  -51.6833 N.am      5 UNK        -0.4607 
     50 C          30.9207  -48.7528  -52.5371 C.2       4 UNK         0.5031 
     51 O          30.5800  -48.8461  -53.7161 O.2       4 UNK        -0.5119 
     52 CA         31.9360  -49.7461  -51.9638 C.3       4 UNK         0.0263 
     53 CB         31.1969  -50.9473  -51.3391 C.3       4 UNK        -0.1967 
     54 N          32.8516  -50.1975  -53.0159 N.am      4 UNK        -0.4237 
     55 C          34.0106  -50.8358  -52.7917 C.2       3 UNK         0.4908 
     56 O          34.4490  -51.0795  -51.6666 O.2       3 UNK        -0.5102 
     57 CA         34.8294  -51.2733  -54.0149 C.3       3 UNK         0.0241 
     58 CB         34.0579  -52.2896  -54.8757 C.3       3 UNK        -0.1971 
     59 N          35.1934  -50.1104  -54.8196 N.am      3 UNK        -0.4139 
     60 C          36.3656  -49.4600  -54.7511 C.2       2 UNK         0.5016 
     61 O          37.3241  -49.8408  -54.0778 O.2       2 UNK        -0.5319 
     62 CA         36.4936  -48.1483  -55.5555 C.3       2 UNK         0.0286 
     63 CB         37.1227  -48.4170  -56.9318 C.3       2 UNK        -0.1963 
     64 N          35.2076  -47.4703  -55.7371 N.am      2 UNK        -0.4790 
     65 C          34.4796  -46.9577  -54.7348 C.2       1 UNK         0.5024 
     66 O          34.9248  -46.7927  -53.5981 O.2       1 UNK        -0.4888 
     67 H67        32.4577  -49.3268  -58.6404 H         1 UNK         0.0892 
     68 H68        30.8242  -49.0821  -58.0221 H         1 UNK         0.0892 
     69 H69        31.7366  -47.7197  -58.6841 H         1 UNK         0.0892 
     70 H70        32.0766  -46.3627  -56.8938 H         1 UNK         0.3107 
     71 H71        32.4784  -47.2671  -54.2733 H         1 UNK         0.0773 
     72 H72        31.5078  -45.1522  -54.5941 H         1 UNK         0.0680 
     73 H73        32.9690  -44.9372  -53.6754 H         1 UNK         0.0680 
     74 H74        32.8932  -41.5530  -55.5925 H         1 UNK         0.0650 
     75 H75        33.6942  -42.2765  -54.2186 H         1 UNK         0.0650 
     76 H76        32.4414  -42.8502  -52.2588 H         1 UNK         0.1397 
     77 H77        28.1543  -42.7750  -52.3036 H         1 UNK         0.1363 
     78 H78        30.3535  -42.0586  -55.9172 H         1 UNK         0.1355 
     79 H79        27.9875  -41.8325  -55.9537 H         1 UNK         0.0707 
     80 H80        27.1814  -41.4859  -54.4457 H         1 UNK         0.0707 
     81 H81        29.0611  -44.7848  -55.4383 H         1 UNK         0.1034 
     82 H82        27.7777  -45.9229  -55.7026 H         1 UNK         0.1034 
     83 H83        28.5333  -43.6526  -57.5863 H         1 UNK         0.0482 
     84 H84        27.9973  -46.5330  -59.3746 H         1 UNK         0.3460 
     85 H85        29.6746  -47.0065  -59.4504 H         1 UNK         0.3460 
     86 H86        26.2070  -45.4216  -57.6545 H         1 UNK         0.2989 
     87 H87        24.4478  -43.8082  -59.3923 H         1 UNK         0.0559 
     88 H88        25.3250  -43.3097  -61.6451 H         1 UNK         0.0848 
     89 H89        24.1040  -44.5637  -61.7617 H         1 UNK         0.0848 
     90 H90        25.8131  -44.9821  -61.8729 H         1 UNK         0.0848 
     91 H91        23.7795  -45.8664  -58.9444 H         1 UNK         0.3144 
     92 H92        23.6707  -47.9656  -58.5545 H         1 UNK         0.0727 
     93 H93        24.9602  -49.5842  -60.8208 H         1 UNK         0.0790 
     94 H94        23.4439  -48.7030  -60.9351 H         1 UNK         0.0790 
     95 H95        23.5708  -50.0792  -59.8522 H         1 UNK         0.0790 
     96 H96        25.7341  -49.9172  -58.4824 H         1 UNK         0.3215 
     97 H97        26.5389  -50.4572  -56.4141 H         1 UNK         0.0863 
     98 H98        28.9656  -49.9023  -56.1282 H         1 UNK         0.0808 
     99 H99        28.6438  -48.2102  -56.4858 H         1 UNK         0.0808 
    100 H100       28.4228  -49.4307  -57.7337 H         1 UNK         0.0808 
    101 H101       26.5628  -48.1228  -54.6050 H         1 UNK         0.3118 
    102 H102       25.7063  -48.7429  -52.4054 H         1 UNK         0.0546 
    103 H103       27.1608  -51.1858  -51.2553 H         1 UNK         0.0828 
    104 H104       25.4377  -51.0847  -51.5886 H         1 UNK         0.0828 
    105 H105       26.1473  -50.0590  -50.3536 H         1 UNK         0.0828 
    106 H106       28.4448  -49.1225  -51.4506 H         1 UNK         0.3005 
    107 H107       29.8037  -46.2636  -52.8807 H         1 UNK         0.1257 
    108 H108       28.4577  -45.0731  -51.1285 H         1 UNK         0.0775 
    109 H109       28.8225  -46.3262  -49.9748 H         1 UNK         0.0775 
    110 H110       29.3276  -42.9845  -50.1848 H         1 UNK         0.0840 
    111 H111       31.0182  -42.5654  -50.1179 H         1 UNK         0.0840 
    112 H112       30.7616  -47.8320  -50.7317 H         1 UNK         0.2987 
    113 H113       32.5187  -49.2354  -51.1939 H         1 UNK         0.0785 
    114 H114       30.4977  -50.6232  -50.5673 H         1 UNK         0.0798 
    115 H115       31.8877  -51.6459  -50.8673 H         1 UNK         0.0798 
    116 H116       30.6253  -51.4977  -52.0878 H         1 UNK         0.0798 
    117 H117       32.5546  -49.9910  -53.9668 H         1 UNK         0.3079 
    118 H118       35.7320  -51.7701  -53.6522 H         1 UNK         0.0794 
    119 H119       34.6686  -52.6438  -55.7062 H         1 UNK         0.0786 
    120 H120       33.1430  -51.8686  -55.2936 H         1 UNK         0.0786 
    121 H121       33.7750  -53.1627  -54.2863 H         1 UNK         0.0786 
    122 H122       34.4404  -49.7120  -55.3778 H         1 UNK         0.3032 
    123 H123       37.1546  -47.4828  -54.9956 H         1 UNK         0.1094 
    124 H124       36.4980  -49.0708  -57.5418 H         1 UNK         0.0794 
    125 H125       37.2810  -47.4904  -57.4840 H         1 UNK         0.0794 
    126 H126       38.0953  -48.9003  -56.8273 H         1 UNK         0.0794 
    127 H127       34.7652  -47.5605  -56.6403 H         1 UNK         0.3016 
@<TRIPOS>BOND
     1    1    2 1    
     2    1   67 1    
     3    1   68 1    
     4    1   69 1    
     5    2    3 2    
     6    2    4 am   BACKBONE|DICT|INTERRES
     7    4    5 1    
     8    4   70 1    
     9    5    6 1    
    10    5   65 1    
    11    5   71 1    
    12    6    7 1    
    13    6   72 1    
    14    6   73 1    
    15    7    8 1    
    16    8    9 1    
    17    8   74 1    
    18    8   75 1    
    19    9   10 ar   
    20    9   14 ar   
    21   10   11 ar   
    22   10   76 1    
    23   11   12 ar   
    24   11   48 1    
    25   12   13 ar   
    26   12   77 1    
    27   13   14 ar   
    28   13   15 1    
    29   14   78 1    
    30   15   16 1    
    31   15   79 1    
    32   15   80 1    
    33   16   17 1    
    34   17   18 1    
    35   17   81 1    
    36   17   82 1    
    37   18   19 1    
    38   18   22 1    
    39   18   83 1    
    40   19   20 am   BACKBONE|DICT|INTERRES
    41   19   21 2    
    42   20   84 1    
    43   20   85 1    
    44   22   23 am   BACKBONE|DICT|INTERRES
    45   22   86 1    
    46   23   24 2    
    47   23   25 1    
    48   25   26 1    
    49   25   27 1    
    50   25   87 1    
    51   26   88 1    
    52   26   89 1    
    53   26   90 1    
    54   27   28 am   BACKBONE|DICT|INTERRES
    55   27   91 1    
    56   28   29 2    
    57   28   30 1    
    58   30   31 1    
    59   30   32 1    
    60   30   92 1    
    61   31   93 1    
    62   31   94 1    
    63   31   95 1    
    64   32   33 am   BACKBONE|DICT|INTERRES
    65   32   96 1    
    66   33   34 2    
    67   33   35 1    
    68   35   36 1    
    69   35   37 1    
    70   35   97 1    
    71   36   98 1    
    72   36   99 1    
    73   36  100 1    
    74   37   38 am   BACKBONE|DICT|INTERRES
    75   37  101 1    
    76   38   39 2    
    77   38   40 1    
    78   40   41 1    
    79   40   42 1    
    80   40  102 1    
    81   41  103 1    
    82   41  104 1    
    83   41  105 1    
    84   42   43 am   BACKBONE|DICT|INTERRES
    85   42  106 1    
    86   43   44 2    
    87   43   45 1    
    88   45   46 1    
    89   45   49 1    
    90   45  107 1    
    91   46   47 1    
    92   46  108 1    
    93   46  109 1    
    94   47   48 1    
    95   48  110 1    
    96   48  111 1    
    97   49   50 am   BACKBONE|DICT|INTERRES
    98   49  112 1    
    99   50   51 2    
   100   50   52 1    
   101   52   53 1    
   102   52   54 1    
   103   52  113 1    
   104   53  114 1    
   105   53  115 1    
   106   53  116 1    
   107   54   55 am   BACKBONE|DICT|INTERRES
   108   54  117 1    
   109   55   56 2    
   110   55   57 1    
   111   57   58 1    
   112   57   59 1    
   113   57  118 1    
   114   58  119 1    
   115   58  120 1    
   116   58  121 1    
   117   59   60 am   BACKBONE|DICT|INTERRES
   118   59  122 1    
   119   60   61 2    
   120   60   62 1    
   121   62   63 1    
   122   62   64 1    
   123   62  123 1    
   124   63  124 1    
   125   63  125 1    
   126   63  126 1    
   127   64   65 am   BACKBONE|DICT|INTERRES
   128   64  127 1    
   129   65   66 2    
@<TRIPOS>SUBSTRUCTURE
     1 UNK         1 GROUP             0       ****    0 ROOT    
