@<TRIPOS>MOLECULE
3R134
127   129    1
SMALL
USER_CHARGES


@<TRIPOS>ATOM
      1 CA         31.2943  -44.4225  -47.6685 C.3       0 UNK        -0.1968 
      2 C          32.5978  -45.0963  -48.0709 C.2       0 UNK         0.4852 
      3 O          33.2463  -45.7230  -47.2318 O.2       0 UNK        -0.5359 
      4 N          32.9859  -44.9708  -49.3472 N.am      1 UNK        -0.4300 
      5 CA         34.1997  -45.5668  -49.9201 C.3       1 UNK         0.0863 
      6 C6         34.5931  -44.8845  -51.2556 C.3       11 UNK        -0.0953 
      7 S7         33.3191  -45.0283  -52.5556 S.3       11 UNK        -0.2369 
      8 C8         33.6769  -43.5654  -53.5705 C.3       11 UNK         0.0226 
      9 C9         32.8720  -43.6088  -54.8589 C.ar      11 UNK        -0.0699 
     10 C10        33.4246  -44.1694  -56.0123 C.ar      11 UNK        -0.0804 
     11 C11        32.6772  -44.2472  -57.1900 C.ar      11 UNK        -0.0871 
     12 C12        31.3650  -43.7676  -57.2072 C.ar      11 UNK        -0.1008 
     13 C13        30.7936  -43.2028  -56.0568 C.ar      11 UNK        -0.0735 
     14 C14        31.5644  -43.1165  -54.8923 C.ar      11 UNK        -0.0945 
     15 C15        29.3555  -42.6821  -56.0022 C.3       11 UNK         0.0169 
     16 S16        28.3459  -42.9829  -57.4922 S.3       11 UNK        -0.2669 
     17 C17        26.7070  -42.4184  -56.9202 C.3       11 UNK        -0.0850 
     18 CA         25.7536  -43.5918  -56.5702 C.3       10 UNK         0.0855 
     19 C          24.4027  -43.0462  -56.0201 C.2       10 UNK         0.5543 
     20 N          23.2829  -43.2166  -56.7122 N.am      10 UNK        -0.7343 
     21 O          24.3749  -42.4535  -54.9445 O.2       10 UNK        -0.5027 
     22 N          25.6451  -44.5431  -57.6891 N.am      10 UNK        -0.4495 
     23 C          25.1330  -45.7772  -57.6202 C.2       10 UNK         0.4903 
     24 O          24.6162  -46.2500  -56.6077 O.2       10 UNK        -0.4860 
     25 CA         25.1840  -46.6294  -58.8977 C.3       9 UNK         0.0227 
     26 CB         25.9040  -45.9609  -60.0891 C.3       9 UNK        -0.1964 
     27 N          25.8497  -47.8918  -58.5874 N.am      9 UNK        -0.4231 
     28 C          25.3282  -49.1079  -58.7867 C.2       9 UNK         0.5014 
     29 O          24.2125  -49.3099  -59.2698 O.2       9 UNK        -0.5270 
     30 CA         26.2023  -50.3146  -58.4098 C.3       8 UNK         0.0284 
     31 CB         27.1482  -50.6682  -59.5691 C.3       8 UNK        -0.1977 
     32 N          26.9786  -50.1214  -57.1822 N.am      8 UNK        -0.4342 
     33 C          26.4563  -50.1061  -55.9473 C.2       8 UNK         0.5039 
     34 O          25.2540  -50.2301  -55.7102 O.2       8 UNK        -0.5547 
     35 CA         27.4397  -49.9499  -54.7745 C.3       7 UNK         0.0281 
     36 CB         28.1620  -51.2750  -54.4801 C.3       7 UNK        -0.1963 
     37 N          28.4268  -48.8978  -55.0100 N.am      7 UNK        -0.4444 
     38 C          28.1628  -47.5849  -54.9669 C.2       7 UNK         0.5104 
     39 O          27.0748  -47.1111  -54.6436 O.2       7 UNK        -0.5100 
     40 CA         29.3126  -46.6389  -55.3478 C.3       6 UNK         0.0396 
     41 CB         30.1779  -46.3315  -54.1166 C.3       6 UNK        -0.1801 
     42 N          30.1532  -47.1790  -56.4194 N.am      6 UNK        -0.4747 
     43 C          29.7451  -47.3539  -57.6843 C.2       6 UNK         0.5012 
     44 O          28.6175  -47.0633  -58.0850 O.2       6 UNK        -0.5003 
     45 CA         30.7354  -48.0285  -58.6546 C.3       5 UNK         0.0782 
     46 C46        31.6783  -47.0073  -59.3477 C.3       11 UNK        -0.0868 
     47 S47        33.2271  -46.6549  -58.4364 S.3       11 UNK        -0.2515 
     48 C48        33.3016  -44.8379  -58.4436 C.3       11 UNK         0.0199 
     49 N          31.4677  -49.1355  -58.0314 N.am      5 UNK        -0.4607 
     50 C          30.9196  -50.2646  -57.5681 C.2       4 UNK         0.5031 
     51 O          29.7248  -50.5341  -57.6666 O.2       4 UNK        -0.5119 
     52 CA         31.8539  -51.2262  -56.8151 C.3       4 UNK         0.0263 
     53 CB         32.6114  -52.1286  -57.8016 C.3       4 UNK        -0.1967 
     54 N          32.8082  -50.5335  -55.9407 N.am      4 UNK        -0.4237 
     55 C          32.4565  -49.7499  -54.9120 C.2       3 UNK         0.4908 
     56 O          31.2859  -49.5245  -54.5961 O.2       3 UNK        -0.5102 
     57 CA         33.6015  -49.0564  -54.1561 C.3       3 UNK         0.0241 
     58 CB         34.0256  -47.7741  -54.8915 C.3       3 UNK        -0.1971 
     59 N          33.2110  -48.7096  -52.7889 N.am      3 UNK        -0.4139 
     60 C          33.0527  -49.5903  -51.7906 C.2       2 UNK         0.5016 
     61 O          33.2995  -50.7934  -51.9001 O.2       2 UNK        -0.5319 
     62 CA         32.5245  -49.0341  -50.4501 C.3       2 UNK         0.0286 
     63 CB         32.9145  -49.9118  -49.2410 C.3       2 UNK        -0.1963 
     64 N          32.8782  -47.6266  -50.2122 N.am      2 UNK        -0.4790 
     65 C          34.1090  -47.1024  -50.0782 C.2       1 UNK         0.5024 
     66 O          35.1467  -47.7656  -50.0973 O.2       1 UNK        -0.4888 
     67 H67        30.5890  -45.1637  -47.2936 H         1 UNK         0.0892 
     68 H68        31.4767  -43.6951  -46.8779 H         1 UNK         0.0892 
     69 H69        30.8275  -43.9031  -48.5053 H         1 UNK         0.0892 
     70 H70        32.4198  -44.4387  -49.9933 H         1 UNK         0.3107 
     71 H71        35.0129  -45.3821  -49.2145 H         1 UNK         0.0773 
     72 H72        34.7919  -43.8270  -51.0742 H         1 UNK         0.0680 
     73 H73        35.5274  -45.2993  -51.6392 H         1 UNK         0.0680 
     74 H74        34.7446  -43.5286  -53.7929 H         1 UNK         0.0650 
     75 H75        33.4420  -42.6618  -53.0061 H         1 UNK         0.0650 
     76 H76        34.4344  -44.5561  -55.9912 H         1 UNK         0.1397 
     77 H77        30.7995  -43.8445  -58.1240 H         1 UNK         0.1363 
     78 H78        31.1349  -42.6910  -53.9954 H         1 UNK         0.1355 
     79 H79        28.8523  -43.1442  -55.1511 H         1 UNK         0.0707 
     80 H80        29.3795  -41.6086  -55.8091 H         1 UNK         0.0707 
     81 H81        26.8345  -41.7563  -56.0613 H         1 UNK         0.1034 
     82 H82        26.2709  -41.8009  -57.7077 H         1 UNK         0.1034 
     83 H83        26.2074  -44.1425  -55.7434 H         1 UNK         0.0482 
     84 H84        23.2982  -43.7076  -57.5915 H         1 UNK         0.3460 
     85 H85        22.4143  -42.8605  -56.3456 H         1 UNK         0.3460 
     86 H86        26.0607  -44.2420  -58.5577 H         1 UNK         0.2989 
     87 H87        24.1461  -46.8029  -59.1879 H         1 UNK         0.0559 
     88 H88        25.4073  -45.0373  -60.3893 H         1 UNK         0.0848 
     89 H89        25.9016  -46.6158  -60.9606 H         1 UNK         0.0848 
     90 H90        26.9451  -45.7274  -59.8604 H         1 UNK         0.0848 
     91 H91        26.7780  -47.8071  -58.1818 H         1 UNK         0.3144 
     92 H92        25.5358  -51.1653  -58.2514 H         1 UNK         0.0727 
     93 H93        27.7100  -51.5785  -59.3586 H         1 UNK         0.0790 
     94 H94        27.8655  -49.8695  -59.7619 H         1 UNK         0.0790 
     95 H95        26.5911  -50.8377  -60.4916 H         1 UNK         0.0790 
     96 H96        27.9921  -50.0934  -57.2861 H         1 UNK         0.3215 
     97 H97        26.8604  -49.6791  -53.8889 H         1 UNK         0.0863 
     98 H98        28.8197  -51.1836  -53.6154 H         1 UNK         0.0808 
     99 H99        28.7674  -51.6049  -55.3246 H         1 UNK         0.0808 
    100 H100       27.4460  -52.0685  -54.2622 H         1 UNK         0.0808 
    101 H101       29.3823  -49.1873  -55.1964 H         1 UNK         0.3118 
    102 H102       28.8795  -45.7030  -55.7070 H         1 UNK         0.0546 
    103 H103       29.6205  -45.7411  -53.3889 H         1 UNK         0.0828 
    104 H104       31.0628  -45.7621  -54.3902 H         1 UNK         0.0828 
    105 H105       30.5126  -47.2371  -53.6112 H         1 UNK         0.0828 
    106 H106       31.0817  -47.4817  -56.1652 H         1 UNK         0.3005 
    107 H107       30.1145  -48.4704  -59.4378 H         1 UNK         0.1257 
    108 H108       31.9760  -47.4088  -60.3175 H         1 UNK         0.0775 
    109 H109       31.1504  -46.0789  -59.5747 H         1 UNK         0.0775 
    110 H110       34.3485  -44.5356  -58.4998 H         1 UNK         0.0840 
    111 H111       32.8300  -44.4390  -59.3429 H         1 UNK         0.0840 
    112 H112       32.4577  -48.9830  -57.9032 H         1 UNK         0.2987 
    113 H113       31.2288  -51.8608  -56.1832 H         1 UNK         0.0785 
    114 H114       33.2055  -52.8780  -57.2783 H         1 UNK         0.0798 
    115 H115       33.2817  -51.5560  -58.4440 H         1 UNK         0.0798 
    116 H116       31.9170  -52.6645  -58.4505 H         1 UNK         0.0798 
    117 H117       33.7891  -50.6632  -56.1444 H         1 UNK         0.3079 
    118 H118       34.4550  -49.7360  -54.1078 H         1 UNK         0.0794 
    119 H119       34.3960  -47.9982  -55.8923 H         1 UNK         0.0786 
    120 H120       34.8275  -47.2589  -54.3620 H         1 UNK         0.0786 
    121 H121       33.1960  -47.0743  -55.0003 H         1 UNK         0.0786 
    122 H122       32.9789  -47.7426  -52.6149 H         1 UNK         0.3032 
    123 H123       31.4367  -49.0631  -50.5340 H         1 UNK         0.1094 
    124 H124       33.9960  -50.0033  -49.1377 H         1 UNK         0.0794 
    125 H125       32.5216  -49.5025  -48.3103 H         1 UNK         0.0794 
    126 H126       32.5130  -50.9208  -49.3439 H         1 UNK         0.0794 
    127 H127       32.1018  -46.9802  -50.1854 H         1 UNK         0.3016 
@<TRIPOS>BOND
     1    1    2 1    
     2    1   67 1    
     3    1   68 1    
     4    1   69 1    
     5    2    3 2    
     6    2    4 am   BACKBONE|DICT|INTERRES
     7    4    5 1    
     8    4   70 1    
     9    5    6 1    
    10    5   65 1    
    11    5   71 1    
    12    6    7 1    
    13    6   72 1    
    14    6   73 1    
    15    7    8 1    
    16    8    9 1    
    17    8   74 1    
    18    8   75 1    
    19    9   10 ar   
    20    9   14 ar   
    21   10   11 ar   
    22   10   76 1    
    23   11   12 ar   
    24   11   48 1    
    25   12   13 ar   
    26   12   77 1    
    27   13   14 ar   
    28   13   15 1    
    29   14   78 1    
    30   15   16 1    
    31   15   79 1    
    32   15   80 1    
    33   16   17 1    
    34   17   18 1    
    35   17   81 1    
    36   17   82 1    
    37   18   19 1    
    38   18   22 1    
    39   18   83 1    
    40   19   20 am   BACKBONE|DICT|INTERRES
    41   19   21 2    
    42   20   84 1    
    43   20   85 1    
    44   22   23 am   BACKBONE|DICT|INTERRES
    45   22   86 1    
    46   23   24 2    
    47   23   25 1    
    48   25   26 1    
    49   25   27 1    
    50   25   87 1    
    51   26   88 1    
    52   26   89 1    
    53   26   90 1    
    54   27   28 am   BACKBONE|DICT|INTERRES
    55   27   91 1    
    56   28   29 2    
    57   28   30 1    
    58   30   31 1    
    59   30   32 1    
    60   30   92 1    
    61   31   93 1    
    62   31   94 1    
    63   31   95 1    
    64   32   33 am   BACKBONE|DICT|INTERRES
    65   32   96 1    
    66   33   34 2    
    67   33   35 1    
    68   35   36 1    
    69   35   37 1    
    70   35   97 1    
    71   36   98 1    
    72   36   99 1    
    73   36  100 1    
    74   37   38 am   BACKBONE|DICT|INTERRES
    75   37  101 1    
    76   38   39 2    
    77   38   40 1    
    78   40   41 1    
    79   40   42 1    
    80   40  102 1    
    81   41  103 1    
    82   41  104 1    
    83   41  105 1    
    84   42   43 am   BACKBONE|DICT|INTERRES
    85   42  106 1    
    86   43   44 2    
    87   43   45 1    
    88   45   46 1    
    89   45   49 1    
    90   45  107 1    
    91   46   47 1    
    92   46  108 1    
    93   46  109 1    
    94   47   48 1    
    95   48  110 1    
    96   48  111 1    
    97   49   50 am   BACKBONE|DICT|INTERRES
    98   49  112 1    
    99   50   51 2    
   100   50   52 1    
   101   52   53 1    
   102   52   54 1    
   103   52  113 1    
   104   53  114 1    
   105   53  115 1    
   106   53  116 1    
   107   54   55 am   BACKBONE|DICT|INTERRES
   108   54  117 1    
   109   55   56 2    
   110   55   57 1    
   111   57   58 1    
   112   57   59 1    
   113   57  118 1    
   114   58  119 1    
   115   58  120 1    
   116   58  121 1    
   117   59   60 am   BACKBONE|DICT|INTERRES
   118   59  122 1    
   119   60   61 2    
   120   60   62 1    
   121   62   63 1    
   122   62   64 1    
   123   62  123 1    
   124   63  124 1    
   125   63  125 1    
   126   63  126 1    
   127   64   65 am   BACKBONE|DICT|INTERRES
   128   64  127 1    
   129   65   66 2    
@<TRIPOS>SUBSTRUCTURE
     1 UNK         1 GROUP             0       ****    0 ROOT    
