@<TRIPOS>MOLECULE
3R134
127   129    1
SMALL
USER_CHARGES


@<TRIPOS>ATOM
      1 CA         36.2664  -47.3394  -55.9782 C.3       0 UNK        -0.1968 
      2 C          35.2233  -46.7812  -55.0234 C.2       0 UNK         0.4852 
      3 O          34.0770  -47.2366  -55.0454 O.2       0 UNK        -0.5359 
      4 N          35.6153  -45.8200  -54.1729 N.am      1 UNK        -0.4300 
      5 CA         34.7806  -45.0850  -53.2063 C.3       1 UNK         0.0863 
      6 C6         35.4637  -43.7672  -52.7510 C.3       11 UNK        -0.0953 
      7 S7         35.6852  -42.5924  -54.1276 S.3       11 UNK        -0.2369 
      8 C8         34.2565  -41.4871  -53.8818 C.3       11 UNK         0.0226 
      9 C9         32.9356  -42.2277  -54.0390 C.ar      11 UNK        -0.0699 
     10 C10        32.1691  -42.5647  -52.9177 C.ar      11 UNK        -0.0804 
     11 C11        30.9660  -43.2677  -53.0515 C.ar      11 UNK        -0.0871 
     12 C12        30.5312  -43.6184  -54.3369 C.ar      11 UNK        -0.1008 
     13 C13        31.2906  -43.2903  -55.4635 C.ar      11 UNK        -0.0735 
     14 C14        32.4897  -42.5928  -55.3107 C.ar      11 UNK        -0.0945 
     15 C15        30.8156  -43.6998  -56.8448 C.3       11 UNK         0.0169 
     16 S16        29.7868  -42.4034  -57.5951 S.3       11 UNK        -0.2669 
     17 C17        28.8992  -43.4085  -58.8272 C.3       11 UNK        -0.0850 
     18 CA         27.6683  -44.1273  -58.1958 C.3       10 UNK         0.0855 
     19 C          26.3204  -43.3654  -58.3963 C.2       10 UNK         0.5543 
     20 N          25.1911  -44.0444  -58.5681 N.am      10 UNK        -0.7343 
     21 O          26.2873  -42.1379  -58.3664 O.2       10 UNK        -0.5027 
     22 N          27.6306  -45.5581  -58.5235 N.am      10 UNK        -0.4495 
     23 C          27.4340  -46.0913  -59.7367 C.2       10 UNK         0.4903 
     24 O          27.3925  -45.4428  -60.7821 O.2       10 UNK        -0.4860 
     25 CA         27.2036  -47.6115  -59.7794 C.3       9 UNK         0.0227 
     26 CB         28.5189  -48.3508  -60.0711 C.3       9 UNK        -0.1964 
     27 N          26.6264  -48.1219  -58.5324 N.am      9 UNK        -0.4231 
     28 C          25.3995  -47.8411  -58.0682 C.2       9 UNK         0.5014 
     29 O          24.5858  -47.1486  -58.6825 O.2       9 UNK        -0.5270 
     30 CA         25.0456  -48.3633  -56.6605 C.3       8 UNK         0.0284 
     31 CB         23.5531  -48.7296  -56.5190 C.3       8 UNK        -0.1977 
     32 N          25.9122  -49.4555  -56.1981 N.am      8 UNK        -0.4342 
     33 C          26.0247  -50.6890  -56.7167 C.2       8 UNK         0.5039 
     34 O          25.3475  -51.1012  -57.6590 O.2       8 UNK        -0.5547 
     35 CA         27.1036  -51.6147  -56.1232 C.3       7 UNK         0.0281 
     36 CB         28.2267  -51.8414  -57.1498 C.3       7 UNK        -0.1963 
     37 N          27.6901  -51.1164  -54.8749 N.am      7 UNK        -0.4444 
     38 C          27.0671  -51.1245  -53.6883 C.2       7 UNK         0.5104 
     39 O          25.9447  -51.5975  -53.5079 O.2       7 UNK        -0.5100 
     40 CA         27.8042  -50.4665  -52.5105 C.3       6 UNK         0.0396 
     41 CB         28.7883  -51.4594  -51.8727 C.3       6 UNK        -0.1801 
     42 N          28.5178  -49.2379  -52.8724 N.am      6 UNK        -0.4747 
     43 C          27.9527  -48.1107  -53.3327 C.2       6 UNK         0.5012 
     44 O          26.7477  -47.9903  -53.5537 O.2       6 UNK        -0.5003 
     45 CA         28.9086  -46.9446  -53.6548 C.3       5 UNK         0.0782 
     46 C46        29.5210  -46.3014  -52.3770 C.3       11 UNK        -0.0868 
     47 S47        28.7326  -44.7093  -51.9695 S.3       11 UNK        -0.2515 
     48 C48        30.1797  -43.6031  -51.7788 C.3       11 UNK         0.0199 
     49 N          29.9437  -47.3884  -54.5836 N.am      5 UNK        -0.4607 
     50 C          29.7484  -47.6795  -55.8749 C.2       4 UNK         0.5031 
     51 O          28.6834  -47.5044  -56.4689 O.2       4 UNK        -0.5119 
     52 CA         30.9443  -48.2874  -56.6250 C.3       4 UNK         0.0263 
     53 CB         31.6940  -47.2009  -57.4107 C.3       4 UNK        -0.1967 
     54 N          31.8787  -48.9865  -55.7342 N.am      4 UNK        -0.4237 
     55 C          31.5944  -50.1448  -55.1184 C.2       3 UNK         0.4908 
     56 O          30.5213  -50.7349  -55.2373 O.2       3 UNK        -0.5102 
     57 CA         32.6618  -50.7207  -54.1761 C.3       3 UNK         0.0241 
     58 CB         33.8313  -51.3161  -54.9769 C.3       3 UNK        -0.1971 
     59 N          33.1724  -49.7437  -53.2132 N.am      3 UNK        -0.4139 
     60 C          32.4409  -49.1178  -52.2790 C.2       2 UNK         0.5016 
     61 O          31.2290  -49.2630  -52.1355 O.2       2 UNK        -0.5319 
     62 CA         33.1828  -48.1005  -51.4130 C.3       2 UNK         0.0286 
     63 CB         34.2261  -48.7762  -50.5017 C.3       2 UNK        -0.1963 
     64 N          33.7965  -47.1334  -52.3123 N.am      2 UNK        -0.4790 
     65 C          34.3136  -45.9447  -52.0061 C.2       1 UNK         0.5024 
     66 O          34.4107  -45.5252  -50.8517 O.2       1 UNK        -0.4888 
     67 H67        37.2328  -46.8497  -55.8600 H         1 UNK         0.0892 
     68 H68        36.4012  -48.4064  -55.8036 H         1 UNK         0.0892 
     69 H69        35.9394  -47.2013  -57.0084 H         1 UNK         0.0892 
     70 H70        36.5782  -45.5172  -54.2037 H         1 UNK         0.3107 
     71 H71        33.8615  -44.8178  -53.7307 H         1 UNK         0.0773 
     72 H72        36.4410  -43.9764  -52.3127 H         1 UNK         0.0680 
     73 H73        34.8878  -43.2682  -51.9698 H         1 UNK         0.0680 
     74 H74        34.3256  -41.0177  -52.8991 H         1 UNK         0.0650 
     75 H75        34.3070  -40.6775  -54.6112 H         1 UNK         0.0650 
     76 H76        32.5157  -42.2842  -51.9321 H         1 UNK         0.1397 
     77 H77        29.5997  -44.1450  -54.4784 H         1 UNK         0.1363 
     78 H78        33.0809  -42.3400  -56.1803 H         1 UNK         0.1355 
     79 H79        31.6655  -43.9122  -57.4953 H         1 UNK         0.0707 
     80 H80        30.2445  -44.6264  -56.7703 H         1 UNK         0.0707 
     81 H81        29.6056  -44.1267  -59.2470 H         1 UNK         0.1034 
     82 H82        28.6081  -42.7754  -59.6676 H         1 UNK         0.1034 
     83 H83        27.7934  -44.1357  -57.1124 H         1 UNK         0.0482 
     84 H84        24.3289  -43.5365  -58.6853 H         1 UNK         0.3460 
     85 H85        25.1859  -45.0554  -58.6063 H         1 UNK         0.3460 
     86 H86        27.7035  -46.1927  -57.7354 H         1 UNK         0.2989 
     87 H87        26.5005  -47.8217  -60.5878 H         1 UNK         0.0559 
     88 H88        29.2633  -48.1720  -59.2952 H         1 UNK         0.0848 
     89 H89        28.9497  -48.0195  -61.0170 H         1 UNK         0.0848 
     90 H90        28.3626  -49.4271  -60.1465 H         1 UNK         0.0848 
     91 H91        27.2529  -48.6173  -57.9129 H         1 UNK         0.3144 
     92 H92        25.2409  -47.5307  -55.9830 H         1 UNK         0.0727 
     93 H93        23.2560  -49.5050  -57.2255 H         1 UNK         0.0790 
     94 H94        22.9182  -47.8627  -56.7054 H         1 UNK         0.0790 
     95 H95        23.3262  -49.0851  -55.5139 H         1 UNK         0.0790 
     96 H96        26.5049  -49.2205  -55.4103 H         1 UNK         0.3215 
     97 H97        26.6281  -52.5766  -55.9194 H         1 UNK         0.0863 
     98 H98        28.7389  -50.9113  -57.3990 H         1 UNK         0.0808 
     99 H99        27.8331  -52.2562  -58.0788 H         1 UNK         0.0808 
    100 H100       28.9716  -52.5430  -56.7741 H         1 UNK         0.0808 
    101 H101       28.6498  -50.7786  -54.9235 H         1 UNK         0.3118 
    102 H102       27.0563  -50.2009  -51.7607 H         1 UNK         0.0546 
    103 H103       29.2468  -51.0417  -50.9762 H         1 UNK         0.0828 
    104 H104       29.5903  -51.7292  -52.5614 H         1 UNK         0.0828 
    105 H105       28.2829  -52.3805  -51.5798 H         1 UNK         0.0828 
    106 H106       29.5250  -49.2458  -52.7099 H         1 UNK         0.3005 
    107 H107       28.3146  -46.1966  -54.1854 H         1 UNK         0.1257 
    108 H108       30.5899  -46.1258  -52.5105 H         1 UNK         0.0775 
    109 H109       29.4533  -46.9549  -51.5047 H         1 UNK         0.0775 
    110 H110       29.8278  -42.6674  -51.3422 H         1 UNK         0.0840 
    111 H111       30.8554  -44.0461  -51.0451 H         1 UNK         0.0840 
    112 H112       30.8467  -47.5963  -54.1858 H         1 UNK         0.2987 
    113 H113       30.5488  -49.0140  -57.3373 H         1 UNK         0.0785 
    114 H114       32.5094  -47.6268  -57.9953 H         1 UNK         0.0798 
    115 H115       31.0278  -46.6902  -58.1075 H         1 UNK         0.0798 
    116 H116       32.1182  -46.4454  -56.7483 H         1 UNK         0.0798 
    117 H117       32.7659  -48.5226  -55.5498 H         1 UNK         0.3079 
    118 H118       32.1938  -51.5271  -53.6071 H         1 UNK         0.0794 
    119 H119       34.5407  -51.8245  -54.3236 H         1 UNK         0.0786 
    120 H120       34.3754  -50.5506  -55.5321 H         1 UNK         0.0786 
    121 H121       33.4749  -52.0520  -55.6992 H         1 UNK         0.0786 
    122 H122       34.1610  -49.5445  -53.2580 H         1 UNK         0.3032 
    123 H123       32.4472  -47.5848  -50.7914 H         1 UNK         0.1094 
    124 H124       35.0332  -49.2359  -51.0727 H         1 UNK         0.0794 
    125 H125       34.6744  -48.0607  -49.8124 H         1 UNK         0.0794 
    126 H126       33.7654  -49.5578  -49.8959 H         1 UNK         0.0794 
    127 H127       33.7514  -47.3515  -53.3081 H         1 UNK         0.3016 
@<TRIPOS>BOND
     1    1    2 1    
     2    1   67 1    
     3    1   68 1    
     4    1   69 1    
     5    2    3 2    
     6    2    4 am   BACKBONE|DICT|INTERRES
     7    4    5 1    
     8    4   70 1    
     9    5    6 1    
    10    5   65 1    
    11    5   71 1    
    12    6    7 1    
    13    6   72 1    
    14    6   73 1    
    15    7    8 1    
    16    8    9 1    
    17    8   74 1    
    18    8   75 1    
    19    9   10 ar   
    20    9   14 ar   
    21   10   11 ar   
    22   10   76 1    
    23   11   12 ar   
    24   11   48 1    
    25   12   13 ar   
    26   12   77 1    
    27   13   14 ar   
    28   13   15 1    
    29   14   78 1    
    30   15   16 1    
    31   15   79 1    
    32   15   80 1    
    33   16   17 1    
    34   17   18 1    
    35   17   81 1    
    36   17   82 1    
    37   18   19 1    
    38   18   22 1    
    39   18   83 1    
    40   19   20 am   BACKBONE|DICT|INTERRES
    41   19   21 2    
    42   20   84 1    
    43   20   85 1    
    44   22   23 am   BACKBONE|DICT|INTERRES
    45   22   86 1    
    46   23   24 2    
    47   23   25 1    
    48   25   26 1    
    49   25   27 1    
    50   25   87 1    
    51   26   88 1    
    52   26   89 1    
    53   26   90 1    
    54   27   28 am   BACKBONE|DICT|INTERRES
    55   27   91 1    
    56   28   29 2    
    57   28   30 1    
    58   30   31 1    
    59   30   32 1    
    60   30   92 1    
    61   31   93 1    
    62   31   94 1    
    63   31   95 1    
    64   32   33 am   BACKBONE|DICT|INTERRES
    65   32   96 1    
    66   33   34 2    
    67   33   35 1    
    68   35   36 1    
    69   35   37 1    
    70   35   97 1    
    71   36   98 1    
    72   36   99 1    
    73   36  100 1    
    74   37   38 am   BACKBONE|DICT|INTERRES
    75   37  101 1    
    76   38   39 2    
    77   38   40 1    
    78   40   41 1    
    79   40   42 1    
    80   40  102 1    
    81   41  103 1    
    82   41  104 1    
    83   41  105 1    
    84   42   43 am   BACKBONE|DICT|INTERRES
    85   42  106 1    
    86   43   44 2    
    87   43   45 1    
    88   45   46 1    
    89   45   49 1    
    90   45  107 1    
    91   46   47 1    
    92   46  108 1    
    93   46  109 1    
    94   47   48 1    
    95   48  110 1    
    96   48  111 1    
    97   49   50 am   BACKBONE|DICT|INTERRES
    98   49  112 1    
    99   50   51 2    
   100   50   52 1    
   101   52   53 1    
   102   52   54 1    
   103   52  113 1    
   104   53  114 1    
   105   53  115 1    
   106   53  116 1    
   107   54   55 am   BACKBONE|DICT|INTERRES
   108   54  117 1    
   109   55   56 2    
   110   55   57 1    
   111   57   58 1    
   112   57   59 1    
   113   57  118 1    
   114   58  119 1    
   115   58  120 1    
   116   58  121 1    
   117   59   60 am   BACKBONE|DICT|INTERRES
   118   59  122 1    
   119   60   61 2    
   120   60   62 1    
   121   62   63 1    
   122   62   64 1    
   123   62  123 1    
   124   63  124 1    
   125   63  125 1    
   126   63  126 1    
   127   64   65 am   BACKBONE|DICT|INTERRES
   128   64  127 1    
   129   65   66 2    
@<TRIPOS>SUBSTRUCTURE
     1 UNK         1 GROUP             0       ****    0 ROOT    
