@<TRIPOS>MOLECULE
3R134
127   129    1
SMALL
USER_CHARGES


@<TRIPOS>ATOM
      1 CA         28.6984  -44.8382  -49.4620 C.3       0 UNK        -0.1968 
      2 C          30.2179  -44.8983  -49.5157 C.2       0 UNK         0.4852 
      3 O          30.8263  -45.6602  -48.7628 O.2       0 UNK        -0.5359 
      4 N          30.8327  -44.1008  -50.3980 N.am      1 UNK        -0.4300 
      5 CA         32.2777  -44.0912  -50.6527 C.3       1 UNK         0.0863 
      6 C6         32.7610  -42.7006  -51.1433 C.3       11 UNK        -0.0953 
      7 S7         32.0412  -42.1787  -52.7424 S.3       11 UNK        -0.2369 
      8 C8         33.4394  -42.4533  -53.8841 C.3       11 UNK         0.0226 
      9 C9         32.9930  -42.9836  -55.2424 C.ar      11 UNK        -0.0699 
     10 C10        33.5945  -44.1257  -55.7834 C.ar      11 UNK        -0.0804 
     11 C11        33.2103  -44.6081  -57.0390 C.ar      11 UNK        -0.0871 
     12 C12        32.2058  -43.9444  -57.7508 C.ar      11 UNK        -0.1008 
     13 C13        31.6008  -42.7988  -57.2253 C.ar      11 UNK        -0.0735 
     14 C14        32.0078  -42.3171  -55.9779 C.ar      11 UNK        -0.0945 
     15 C15        30.5244  -42.0686  -58.0164 C.3       11 UNK         0.0169 
     16 S16        28.8860  -42.8404  -57.8218 S.3       11 UNK        -0.2669 
     17 C17        28.4989  -42.4772  -56.0726 C.3       11 UNK        -0.0850 
     18 CA         28.6972  -43.7224  -55.1587 C.3       10 UNK         0.0855 
     19 C          28.6121  -43.4412  -53.6305 C.2       10 UNK         0.5543 
     20 N          28.1425  -42.2776  -53.1979 N.am      10 UNK        -0.7343 
     21 O          29.0298  -44.2713  -52.8257 O.2       10 UNK        -0.5027 
     22 N          27.8612  -44.8669  -55.5584 N.am      10 UNK        -0.4495 
     23 C          26.5231  -44.9229  -55.5013 C.2       10 UNK         0.4903 
     24 O          25.8082  -44.0243  -55.0570 O.2       10 UNK        -0.4860 
     25 CA         25.8605  -46.1871  -56.0708 C.3       9 UNK         0.0227 
     26 CB         25.6491  -46.0299  -57.5843 C.3       9 UNK        -0.1964 
     27 N          26.6359  -47.4015  -55.8107 N.am      9 UNK        -0.4231 
     28 C          26.6555  -48.0491  -54.6387 C.2       9 UNK         0.5014 
     29 O          26.0112  -47.6924  -53.6501 O.2       9 UNK        -0.5270 
     30 CA         27.5436  -49.3072  -54.5715 C.3       8 UNK         0.0284 
     31 CB         27.4158  -50.0710  -53.2359 C.3       8 UNK        -0.1977 
     32 N          27.3490  -50.2075  -55.7141 N.am      8 UNK        -0.4342 
     33 C          26.2350  -50.8576  -56.0793 C.2       8 UNK         0.5039 
     34 O          25.1634  -50.8017  -55.4736 O.2       8 UNK        -0.5547 
     35 CA         26.3724  -51.7310  -57.3423 C.3       7 UNK         0.0281 
     36 CB         25.0266  -52.2859  -57.8586 C.3       7 UNK        -0.1963 
     37 N          27.1269  -51.0492  -58.4035 N.am      7 UNK        -0.4444 
     38 C          26.7557  -49.9579  -59.0911 C.2       7 UNK         0.5104 
     39 O          25.6571  -49.4126  -58.9823 O.2       7 UNK        -0.5100 
     40 CA         27.8186  -49.3698  -60.0449 C.3       6 UNK         0.0396 
     41 CB         27.4204  -47.9943  -60.6189 C.3       6 UNK        -0.1801 
     42 N          29.1616  -49.3058  -59.4496 N.am      6 UNK        -0.4747 
     43 C          29.5051  -48.6938  -58.3054 C.2       6 UNK         0.5012 
     44 O          28.7143  -48.0866  -57.5795 O.2       6 UNK        -0.5003 
     45 CA         30.9778  -48.8144  -57.8648 C.3       5 UNK         0.0782 
     46 C46        31.5718  -47.3943  -57.6598 C.3       11 UNK        -0.0868 
     47 S47        33.2705  -47.3944  -56.9960 S.3       11 UNK        -0.2515 
     48 C48        33.9110  -45.8186  -57.6451 C.3       11 UNK         0.0199 
     49 N          31.1354  -49.6600  -56.6715 N.am      5 UNK        -0.4607 
     50 C          30.6242  -50.8793  -56.4413 C.2       4 UNK         0.5031 
     51 O          29.8620  -51.4567  -57.2175 O.2       4 UNK        -0.5119 
     52 CA         30.9635  -51.5569  -55.0951 C.3       4 UNK         0.0263 
     53 CB         31.2610  -53.0615  -55.2628 C.3       4 UNK        -0.1967 
     54 N          32.0132  -50.8842  -54.3142 N.am      4 UNK        -0.4237 
     55 C          33.3149  -50.7580  -54.6151 C.2       3 UNK         0.4908 
     56 O          33.8461  -51.2572  -55.6075 O.2       3 UNK        -0.5102 
     57 CA         34.1267  -49.8397  -53.6823 C.3       3 UNK         0.0241 
     58 CB         35.6223  -49.7897  -54.0470 C.3       3 UNK        -0.1971 
     59 N          33.5762  -48.4853  -53.7515 N.am      3 UNK        -0.4139 
     60 C          32.5539  -48.0330  -53.0156 C.2       2 UNK         0.5016 
     61 O          32.0319  -48.6703  -52.0984 O.2       2 UNK        -0.5319 
     62 CA         31.9294  -46.7076  -53.4733 C.3       2 UNK         0.0286 
     63 CB         30.5668  -46.9814  -54.1234 C.3       2 UNK        -0.1963 
     64 N          31.7401  -45.7328  -52.4043 N.am      2 UNK        -0.4790 
     65 C          32.7006  -45.2153  -51.6247 C.2       1 UNK         0.5024 
     66 O          33.8842  -45.5532  -51.6774 O.2       1 UNK        -0.4888 
     67 H67        28.3644  -44.6327  -48.4453 H         1 UNK         0.0892 
     68 H68        28.2984  -44.0611  -50.1132 H         1 UNK         0.0892 
     69 H69        28.2754  -45.7921  -49.7759 H         1 UNK         0.0892 
     70 H70        30.2771  -43.5425  -51.0341 H         1 UNK         0.3107 
     71 H71        32.7906  -44.2916  -49.7094 H         1 UNK         0.0773 
     72 H72        33.8506  -42.6738  -51.1988 H         1 UNK         0.0680 
     73 H73        32.4961  -41.9455  -50.4017 H         1 UNK         0.0680 
     74 H74        33.9732  -41.5125  -54.0231 H         1 UNK         0.0650 
     75 H75        34.1503  -43.1472  -53.4337 H         1 UNK         0.0650 
     76 H76        34.3737  -44.6356  -55.2334 H         1 UNK         0.1397 
     77 H77        31.9006  -44.3101  -58.7217 H         1 UNK         0.1363 
     78 H78        31.5541  -41.4235  -55.5721 H         1 UNK         0.1355 
     79 H79        30.7882  -42.0710  -59.0751 H         1 UNK         0.0707 
     80 H80        30.4721  -41.0193  -57.7217 H         1 UNK         0.0707 
     81 H81        27.4698  -42.1191  -56.0197 H         1 UNK         0.1034 
     82 H82        29.1223  -41.6481  -55.7354 H         1 UNK         0.1034 
     83 H83        29.7267  -44.0428  -55.3147 H         1 UNK         0.0482 
     84 H84        27.7844  -41.5897  -53.8398 H         1 UNK         0.3460 
     85 H85        28.1033  -42.1004  -52.2078 H         1 UNK         0.3460 
     86 H86        28.3534  -45.6589  -55.9427 H         1 UNK         0.2989 
     87 H87        24.8795  -46.2954  -55.6031 H         1 UNK         0.0559 
     88 H88        25.0160  -45.1686  -57.8015 H         1 UNK         0.0848 
     89 H89        25.1630  -46.9062  -58.0131 H         1 UNK         0.0848 
     90 H90        26.5941  -45.8767  -58.1061 H         1 UNK         0.0848 
     91 H91        27.2378  -47.7374  -56.5615 H         1 UNK         0.3144 
     92 H92        28.5713  -48.9558  -54.6462 H         1 UNK         0.0727 
     93 H93        28.0686  -50.9426  -53.2070 H         1 UNK         0.0790 
     94 H94        26.3949  -50.4130  -53.0624 H         1 UNK         0.0790 
     95 H95        27.6911  -49.4328  -52.3952 H         1 UNK         0.0790 
     96 H96        28.1440  -50.3083  -56.3321 H         1 UNK         0.3215 
     97 H97        26.9809  -52.5874  -57.0463 H         1 UNK         0.0863 
     98 H98        25.1641  -52.8960  -58.7511 H         1 UNK         0.0808 
     99 H99        24.3210  -51.4904  -58.0994 H         1 UNK         0.0808 
    100 H100       24.5534  -52.9165  -57.1050 H         1 UNK         0.0808 
    101 H101       28.0798  -51.3743  -58.5270 H         1 UNK         0.3118 
    102 H102       27.8856  -50.0655  -60.8826 H         1 UNK         0.0546 
    103 H103       27.3343  -47.2407  -59.8377 H         1 UNK         0.0828 
    104 H104       26.4588  -48.0445  -61.1311 H         1 UNK         0.0828 
    105 H105       28.1532  -47.6406  -61.3438 H         1 UNK         0.0828 
    106 H106       29.8768  -49.8150  -59.9514 H         1 UNK         0.3005 
    107 H107       31.5415  -49.3000  -58.6638 H         1 UNK         0.1257 
    108 H108       31.5708  -46.8600  -58.6118 H         1 UNK         0.0775 
    109 H109       30.9569  -46.7967  -56.9851 H         1 UNK         0.0775 
    110 H110       34.9796  -45.7620  -57.4326 H         1 UNK         0.0840 
    111 H111       33.8226  -45.8107  -58.7327 H         1 UNK         0.0840 
    112 H112       31.7771  -49.2947  -55.9857 H         1 UNK         0.2987 
    113 H113       30.0574  -51.4759  -54.4943 H         1 UNK         0.0785 
    114 H114       31.4779  -53.5329  -54.3044 H         1 UNK         0.0798 
    115 H115       32.1097  -53.2378  -55.9242 H         1 UNK         0.0798 
    116 H116       30.4053  -53.5845  -55.6919 H         1 UNK         0.0798 
    117 H117       31.6955  -50.4129  -53.4737 H         1 UNK         0.3079 
    118 H118       34.0389  -50.2290  -52.6654 H         1 UNK         0.0794 
    119 H119       36.0687  -50.7839  -53.9997 H         1 UNK         0.0786 
    120 H120       36.1762  -49.1535  -53.3564 H         1 UNK         0.0786 
    121 H121       35.7820  -49.4070  -55.0561 H         1 UNK         0.0786 
    122 H122       33.9133  -47.9151  -54.5157 H         1 UNK         0.3032 
    123 H123       32.5824  -46.2504  -54.2179 H         1 UNK         0.1094 
    124 H124       29.8095  -47.2371  -53.3809 H         1 UNK         0.0794 
    125 H125       30.2193  -46.1131  -54.6739 H         1 UNK         0.0794 
    126 H126       30.6213  -47.8044  -54.8313 H         1 UNK         0.0794 
    127 H127       30.8017  -45.3637  -52.3017 H         1 UNK         0.3016 
@<TRIPOS>BOND
     1    1    2 1    
     2    1   67 1    
     3    1   68 1    
     4    1   69 1    
     5    2    3 2    
     6    2    4 am   BACKBONE|DICT|INTERRES
     7    4    5 1    
     8    4   70 1    
     9    5    6 1    
    10    5   65 1    
    11    5   71 1    
    12    6    7 1    
    13    6   72 1    
    14    6   73 1    
    15    7    8 1    
    16    8    9 1    
    17    8   74 1    
    18    8   75 1    
    19    9   10 ar   
    20    9   14 ar   
    21   10   11 ar   
    22   10   76 1    
    23   11   12 ar   
    24   11   48 1    
    25   12   13 ar   
    26   12   77 1    
    27   13   14 ar   
    28   13   15 1    
    29   14   78 1    
    30   15   16 1    
    31   15   79 1    
    32   15   80 1    
    33   16   17 1    
    34   17   18 1    
    35   17   81 1    
    36   17   82 1    
    37   18   19 1    
    38   18   22 1    
    39   18   83 1    
    40   19   20 am   BACKBONE|DICT|INTERRES
    41   19   21 2    
    42   20   84 1    
    43   20   85 1    
    44   22   23 am   BACKBONE|DICT|INTERRES
    45   22   86 1    
    46   23   24 2    
    47   23   25 1    
    48   25   26 1    
    49   25   27 1    
    50   25   87 1    
    51   26   88 1    
    52   26   89 1    
    53   26   90 1    
    54   27   28 am   BACKBONE|DICT|INTERRES
    55   27   91 1    
    56   28   29 2    
    57   28   30 1    
    58   30   31 1    
    59   30   32 1    
    60   30   92 1    
    61   31   93 1    
    62   31   94 1    
    63   31   95 1    
    64   32   33 am   BACKBONE|DICT|INTERRES
    65   32   96 1    
    66   33   34 2    
    67   33   35 1    
    68   35   36 1    
    69   35   37 1    
    70   35   97 1    
    71   36   98 1    
    72   36   99 1    
    73   36  100 1    
    74   37   38 am   BACKBONE|DICT|INTERRES
    75   37  101 1    
    76   38   39 2    
    77   38   40 1    
    78   40   41 1    
    79   40   42 1    
    80   40  102 1    
    81   41  103 1    
    82   41  104 1    
    83   41  105 1    
    84   42   43 am   BACKBONE|DICT|INTERRES
    85   42  106 1    
    86   43   44 2    
    87   43   45 1    
    88   45   46 1    
    89   45   49 1    
    90   45  107 1    
    91   46   47 1    
    92   46  108 1    
    93   46  109 1    
    94   47   48 1    
    95   48  110 1    
    96   48  111 1    
    97   49   50 am   BACKBONE|DICT|INTERRES
    98   49  112 1    
    99   50   51 2    
   100   50   52 1    
   101   52   53 1    
   102   52   54 1    
   103   52  113 1    
   104   53  114 1    
   105   53  115 1    
   106   53  116 1    
   107   54   55 am   BACKBONE|DICT|INTERRES
   108   54  117 1    
   109   55   56 2    
   110   55   57 1    
   111   57   58 1    
   112   57   59 1    
   113   57  118 1    
   114   58  119 1    
   115   58  120 1    
   116   58  121 1    
   117   59   60 am   BACKBONE|DICT|INTERRES
   118   59  122 1    
   119   60   61 2    
   120   60   62 1    
   121   62   63 1    
   122   62   64 1    
   123   62  123 1    
   124   63  124 1    
   125   63  125 1    
   126   63  126 1    
   127   64   65 am   BACKBONE|DICT|INTERRES
   128   64  127 1    
   129   65   66 2    
@<TRIPOS>SUBSTRUCTURE
     1 UNK         1 GROUP             0       ****    0 ROOT    
