@<TRIPOS>MOLECULE
3R134
127   129    1
SMALL
USER_CHARGES


@<TRIPOS>ATOM
      1 CA         28.7662  -44.6745  -49.7958 C.3       0 UNK        -0.1968 
      2 C          30.1235  -45.3412  -49.6237 C.2       0 UNK         0.4852 
      3 O          30.4001  -45.9025  -48.5620 O.2       0 UNK        -0.5359 
      4 N          30.9717  -45.2720  -50.6571 N.am      1 UNK        -0.4300 
      5 CA         32.3003  -45.8926  -50.7091 C.3       1 UNK         0.0863 
      6 C6         33.1617  -45.3154  -51.8651 C.3       11 UNK        -0.0953 
      7 S7         33.2899  -43.4988  -51.8008 S.3       11 UNK        -0.2369 
      8 C8         34.1000  -43.1324  -53.3920 C.3       11 UNK         0.0226 
      9 C9         33.1907  -43.2998  -54.6073 C.ar      11 UNK        -0.0699 
     10 C10        33.6518  -43.9973  -55.7289 C.ar      11 UNK        -0.0804 
     11 C11        32.8703  -44.0882  -56.8857 C.ar      11 UNK        -0.0871 
     12 C12        31.6012  -43.5048  -56.9060 C.ar      11 UNK        -0.1008 
     13 C13        31.1301  -42.7977  -55.7956 C.ar      11 UNK        -0.0735 
     14 C14        31.9285  -42.6954  -54.6515 C.ar      11 UNK        -0.0945 
     15 C15        29.7792  -42.1041  -55.8570 C.3       11 UNK         0.0169 
     16 S16        28.4723  -43.1263  -55.1175 S.3       11 UNK        -0.2669 
     17 C17        26.9867  -42.3930  -55.8873 C.3       11 UNK        -0.0850 
     18 CA         26.3648  -43.2690  -57.0085 C.3       10 UNK         0.0855 
     19 C          27.2102  -43.2595  -58.3147 C.2       10 UNK         0.5543 
     20 N          27.7518  -44.3771  -58.7785 N.am      10 UNK        -0.7343 
     21 O          27.3636  -42.2076  -58.9306 O.2       10 UNK        -0.5027 
     22 N          25.9680  -44.5919  -56.5005 N.am      10 UNK        -0.4495 
     23 C          24.9929  -45.3483  -57.0175 C.2       10 UNK         0.4903 
     24 O          24.3853  -45.0787  -58.0550 O.2       10 UNK        -0.4860 
     25 CA         24.5968  -46.5758  -56.1833 C.3       9 UNK         0.0227 
     26 CB         23.0701  -46.8024  -56.1430 C.3       9 UNK        -0.1964 
     27 N          25.3273  -47.7810  -56.5804 N.am      9 UNK        -0.4231 
     28 C          25.1761  -48.5409  -57.6768 C.2       9 UNK         0.5014 
     29 O          24.3570  -48.3085  -58.5668 O.2       9 UNK        -0.5270 
     30 CA         26.0663  -49.7981  -57.8124 C.3       8 UNK         0.0284 
     31 CB         26.8009  -49.8145  -59.1649 C.3       8 UNK        -0.1977 
     32 N          27.0492  -49.9614  -56.7368 N.am      8 UNK        -0.4342 
     33 C          26.7891  -50.3721  -55.4876 C.2       8 UNK         0.5039 
     34 O          25.6843  -50.7650  -55.1130 O.2       8 UNK        -0.5547 
     35 CA         27.9396  -50.2608  -54.4676 C.3       7 UNK         0.0281 
     36 CB         28.7688  -51.5533  -54.4370 C.3       7 UNK        -0.1963 
     37 N          28.8170  -49.1103  -54.7193 N.am      7 UNK        -0.4444 
     38 C          28.4172  -47.8301  -54.6859 C.2       7 UNK         0.5104 
     39 O          27.2803  -47.4780  -54.3725 O.2       7 UNK        -0.5100 
     40 CA         29.4210  -46.7661  -55.1469 C.3       6 UNK         0.0396 
     41 CB         30.3227  -46.3091  -53.9999 C.3       6 UNK        -0.1801 
     42 N          30.2390  -47.2230  -56.2661 N.am      6 UNK        -0.4747 
     43 C          29.7934  -47.3053  -57.5250 C.2       6 UNK         0.5012 
     44 O          28.6562  -46.9792  -57.8676 O.2       6 UNK        -0.5003 
     45 CA         30.7647  -47.8911  -58.5680 C.3       5 UNK         0.0782 
     46 C46        31.7312  -46.8128  -59.1275 C.3       11 UNK        -0.0868 
     47 S47        33.2291  -46.5537  -58.1060 S.3       11 UNK        -0.2515 
     48 C48        33.4346  -44.7501  -58.1338 C.3       11 UNK         0.0199 
     49 N          31.4850  -49.0662  -58.0674 N.am      5 UNK        -0.4607 
     50 C          30.9303  -50.2156  -57.6688 C.2       4 UNK         0.5031 
     51 O          29.7277  -50.4572  -57.7478 O.2       4 UNK        -0.5119 
     52 CA         31.8739  -51.2533  -57.0357 C.3       4 UNK         0.0263 
     53 CB         32.4685  -52.1662  -58.1195 C.3       4 UNK        -0.1967 
     54 N          32.9589  -50.6688  -56.2362 N.am      4 UNK        -0.4237 
     55 C          32.7902  -49.8814  -55.1638 C.2       3 UNK         0.4908 
     56 O          31.6898  -49.4998  -54.7591 O.2       3 UNK        -0.5102 
     57 CA         34.0745  -49.3969  -54.4686 C.3       3 UNK         0.0241 
     58 CB         34.5848  -48.1054  -55.1276 C.3       3 UNK        -0.1971 
     59 N          33.8807  -49.1426  -53.0407 N.am      3 UNK        -0.4139 
     60 C          33.6152  -50.0683  -52.1085 C.2       2 UNK         0.5016 
     61 O          33.5380  -51.2749  -52.3458 O.2       2 UNK        -0.5319 
     62 CA         33.4428  -49.5770  -50.6556 C.3       2 UNK         0.0286 
     63 CB         34.6213  -50.0458  -49.7851 C.3       2 UNK        -0.1963 
     64 N          33.3163  -48.1183  -50.5321 N.am      2 UNK        -0.4790 
     65 C          32.2026  -47.4310  -50.8198 C.2       1 UNK         0.5024 
     66 O          31.1582  -47.9678  -51.1957 O.2       1 UNK        -0.4888 
     67 H67        28.6289  -43.9014  -49.0403 H         1 UNK         0.0892 
     68 H68        28.6595  -44.2124  -50.7773 H         1 UNK         0.0892 
     69 H69        27.9706  -45.4102  -49.6803 H         1 UNK         0.0892 
     70 H70        30.6950  -44.7814  -51.4939 H         1 UNK         0.3107 
     71 H71        32.8027  -45.6657  -49.7661 H         1 UNK         0.0773 
     72 H72        32.7593  -45.6005  -52.8368 H         1 UNK         0.0680 
     73 H73        34.1756  -45.7174  -51.8265 H         1 UNK         0.0680 
     74 H74        34.4511  -42.1001  -53.3686 H         1 UNK         0.0650 
     75 H75        34.9905  -43.7565  -53.4817 H         1 UNK         0.0650 
     76 H76        34.6376  -44.4421  -55.7181 H         1 UNK         0.1397 
     77 H77        30.9921  -43.5719  -57.7972 H         1 UNK         0.1363 
     78 H78        31.5715  -42.1332  -53.7995 H         1 UNK         0.1355 
     79 H79        29.8237  -41.1453  -55.3382 H         1 UNK         0.0707 
     80 H80        29.5301  -41.8794  -56.8952 H         1 UNK         0.0707 
     81 H81        26.2482  -42.2447  -55.0979 H         1 UNK         0.1034 
     82 H82        27.2092  -41.3901  -56.2572 H         1 UNK         0.1034 
     83 H83        25.4369  -42.7661  -57.2890 H         1 UNK         0.0482 
     84 H84        27.6901  -45.2502  -58.2679 H         1 UNK         0.3460 
     85 H85        28.2767  -44.3419  -59.6364 H         1 UNK         0.3460 
     86 H86        26.4472  -44.9020  -55.6671 H         1 UNK         0.2989 
     87 H87        24.9008  -46.3798  -55.1539 H         1 UNK         0.0559 
     88 H88        22.6495  -46.9734  -57.1341 H         1 UNK         0.0848 
     89 H89        22.5627  -45.9306  -55.7283 H         1 UNK         0.0848 
     90 H90        22.8120  -47.6565  -55.5171 H         1 UNK         0.0848 
     91 H91        26.0602  -48.0446  -55.9309 H         1 UNK         0.3144 
     92 H92        25.3959  -50.6594  -57.7871 H         1 UNK         0.0727 
     93 H93        26.0975  -49.7680  -59.9972 H         1 UNK         0.0790 
     94 H94        27.3842  -50.7272  -59.2886 H         1 UNK         0.0790 
     95 H95        27.4795  -48.9673  -59.2643 H         1 UNK         0.0790 
     96 H96        28.0137  -49.7509  -56.9769 H         1 UNK         0.3215 
     97 H97        27.4943  -50.1185  -53.4806 H         1 UNK         0.0863 
     98 H98        29.6087  -51.4749  -53.7459 H         1 UNK         0.0808 
     99 H99        29.1628  -51.8008  -55.4217 H         1 UNK         0.0808 
    100 H100       28.1575  -52.3967  -54.1136 H         1 UNK         0.0808 
    101 H101       29.7963  -49.3024  -54.9197 H         1 UNK         0.3118 
    102 H102       28.8429  -45.9045  -55.4807 H         1 UNK         0.0546 
    103 H103       30.9181  -45.4466  -54.2978 H         1 UNK         0.0828 
    104 H104       31.0015  -47.1016  -53.6868 H         1 UNK         0.0828 
    105 H105       29.7292  -46.0162  -53.1338 H         1 UNK         0.0828 
    106 H106       31.1673  -47.5606  -56.0525 H         1 UNK         0.3005 
    107 H107       30.1391  -48.2339  -59.3957 H         1 UNK         0.1257 
    108 H108       32.0732  -47.1222  -60.1162 H         1 UNK         0.0775 
    109 H109       31.2107  -45.8659  -59.2856 H         1 UNK         0.0775 
    110 H110       34.5004  -44.5283  -58.2064 H         1 UNK         0.0840 
    111 H111       32.9861  -44.3288  -59.0348 H         1 UNK         0.0840 
    112 H112       32.4814  -48.9459  -57.9559 H         1 UNK         0.2987 
    113 H113       31.2773  -51.8725  -56.3644 H         1 UNK         0.0785 
    114 H114       33.1115  -51.6144  -58.8063 H         1 UNK         0.0798 
    115 H115       31.6798  -52.6304  -58.7136 H         1 UNK         0.0798 
    116 H116       33.0569  -52.9727  -57.6814 H         1 UNK         0.0798 
    117 H117       33.8993  -50.9164  -56.5096 H         1 UNK         0.3079 
    118 H118       34.8388  -50.1706  -54.5676 H         1 UNK         0.0794 
    119 H119       33.8459  -47.3039  -55.0743 H         1 UNK         0.0786 
    120 H120       34.8157  -48.2689  -56.1807 H         1 UNK         0.0786 
    121 H121       35.4995  -47.7495  -54.6531 H         1 UNK         0.0786 
    122 H122       33.9052  -48.1796  -52.7461 H         1 UNK         0.3032 
    123 H123       32.5303  -50.0396  -50.2714 H         1 UNK         0.1094 
    124 H124       34.4787  -49.7687  -48.7404 H         1 UNK         0.0794 
    125 H125       34.7243  -51.1315  -49.8174 H         1 UNK         0.0794 
    126 H126       35.5674  -49.6195  -50.1213 H         1 UNK         0.0794 
    127 H127       34.1377  -47.6180  -50.2208 H         1 UNK         0.3016 
@<TRIPOS>BOND
     1    1    2 1    
     2    1   67 1    
     3    1   68 1    
     4    1   69 1    
     5    2    3 2    
     6    2    4 am   BACKBONE|DICT|INTERRES
     7    4    5 1    
     8    4   70 1    
     9    5    6 1    
    10    5   65 1    
    11    5   71 1    
    12    6    7 1    
    13    6   72 1    
    14    6   73 1    
    15    7    8 1    
    16    8    9 1    
    17    8   74 1    
    18    8   75 1    
    19    9   10 ar   
    20    9   14 ar   
    21   10   11 ar   
    22   10   76 1    
    23   11   12 ar   
    24   11   48 1    
    25   12   13 ar   
    26   12   77 1    
    27   13   14 ar   
    28   13   15 1    
    29   14   78 1    
    30   15   16 1    
    31   15   79 1    
    32   15   80 1    
    33   16   17 1    
    34   17   18 1    
    35   17   81 1    
    36   17   82 1    
    37   18   19 1    
    38   18   22 1    
    39   18   83 1    
    40   19   20 am   BACKBONE|DICT|INTERRES
    41   19   21 2    
    42   20   84 1    
    43   20   85 1    
    44   22   23 am   BACKBONE|DICT|INTERRES
    45   22   86 1    
    46   23   24 2    
    47   23   25 1    
    48   25   26 1    
    49   25   27 1    
    50   25   87 1    
    51   26   88 1    
    52   26   89 1    
    53   26   90 1    
    54   27   28 am   BACKBONE|DICT|INTERRES
    55   27   91 1    
    56   28   29 2    
    57   28   30 1    
    58   30   31 1    
    59   30   32 1    
    60   30   92 1    
    61   31   93 1    
    62   31   94 1    
    63   31   95 1    
    64   32   33 am   BACKBONE|DICT|INTERRES
    65   32   96 1    
    66   33   34 2    
    67   33   35 1    
    68   35   36 1    
    69   35   37 1    
    70   35   97 1    
    71   36   98 1    
    72   36   99 1    
    73   36  100 1    
    74   37   38 am   BACKBONE|DICT|INTERRES
    75   37  101 1    
    76   38   39 2    
    77   38   40 1    
    78   40   41 1    
    79   40   42 1    
    80   40  102 1    
    81   41  103 1    
    82   41  104 1    
    83   41  105 1    
    84   42   43 am   BACKBONE|DICT|INTERRES
    85   42  106 1    
    86   43   44 2    
    87   43   45 1    
    88   45   46 1    
    89   45   49 1    
    90   45  107 1    
    91   46   47 1    
    92   46  108 1    
    93   46  109 1    
    94   47   48 1    
    95   48  110 1    
    96   48  111 1    
    97   49   50 am   BACKBONE|DICT|INTERRES
    98   49  112 1    
    99   50   51 2    
   100   50   52 1    
   101   52   53 1    
   102   52   54 1    
   103   52  113 1    
   104   53  114 1    
   105   53  115 1    
   106   53  116 1    
   107   54   55 am   BACKBONE|DICT|INTERRES
   108   54  117 1    
   109   55   56 2    
   110   55   57 1    
   111   57   58 1    
   112   57   59 1    
   113   57  118 1    
   114   58  119 1    
   115   58  120 1    
   116   58  121 1    
   117   59   60 am   BACKBONE|DICT|INTERRES
   118   59  122 1    
   119   60   61 2    
   120   60   62 1    
   121   62   63 1    
   122   62   64 1    
   123   62  123 1    
   124   63  124 1    
   125   63  125 1    
   126   63  126 1    
   127   64   65 am   BACKBONE|DICT|INTERRES
   128   64  127 1    
   129   65   66 2    
@<TRIPOS>SUBSTRUCTURE
     1 UNK         1 GROUP             0       ****    0 ROOT    
