@<TRIPOS>MOLECULE
3R134
127   129    1
SMALL
USER_CHARGES


@<TRIPOS>ATOM
      1 CA         28.0683  -43.9685  -52.4227 C.3       0 UNK        -0.1968 
      2 C          29.2412  -44.3757  -51.5459 C.2       0 UNK         0.4852 
      3 O          29.0954  -44.4707  -50.3257 O.2       0 UNK        -0.5359 
      4 N          30.4045  -44.6126  -52.1645 N.am      1 UNK        -0.4300 
      5 CA         31.6192  -45.1005  -51.5018 C.3       1 UNK         0.0863 
      6 C6         32.8824  -44.8593  -52.3668 C.3       11 UNK        -0.0953 
      7 S7         33.2035  -43.0812  -52.6076 S.3       11 UNK        -0.2369 
      8 C8         34.2186  -43.0873  -54.1230 C.3       11 UNK         0.0226 
      9 C9         33.4693  -43.6000  -55.3478 C.ar      11 UNK        -0.0699 
     10 C10        34.0560  -44.5626  -56.1756 C.ar      11 UNK        -0.0804 
     11 C11        33.3777  -45.0445  -57.3003 C.ar      11 UNK        -0.0871 
     12 C12        32.0968  -44.5608  -57.5886 C.ar      11 UNK        -0.1008 
     13 C13        31.5078  -43.5844  -56.7801 C.ar      11 UNK        -0.0735 
     14 C14        32.2027  -43.1017  -55.6688 C.ar      11 UNK        -0.0945 
     15 C15        30.1279  -43.0366  -57.1074 C.3       11 UNK         0.0169 
     16 S16        28.8899  -43.6600  -55.9353 S.3       11 UNK        -0.2669 
     17 C17        27.3754  -42.8840  -56.5919 C.3       11 UNK        -0.0850 
     18 CA         26.1264  -43.1614  -55.7128 C.3       10 UNK         0.0855 
     19 C          24.8728  -42.4453  -56.2989 C.2       10 UNK         0.5543 
     20 N          23.8408  -43.1526  -56.7468 N.am      10 UNK        -0.7343 
     21 O          24.8389  -41.2183  -56.3465 O.2       10 UNK        -0.5027 
     22 N          25.9512  -44.6004  -55.4740 N.am      10 UNK        -0.4495 
     23 C          25.1715  -45.1536  -54.5375 C.2       10 UNK         0.4903 
     24 O          24.5658  -44.5098  -53.6798 O.2       10 UNK        -0.4860 
     25 CA         25.0538  -46.6908  -54.5837 C.3       9 UNK         0.0227 
     26 CB         23.7592  -47.2114  -53.9243 C.3       9 UNK        -0.1964 
     27 N          25.2109  -47.2372  -55.9408 N.am      9 UNK        -0.4231 
     28 C          24.4467  -46.9717  -57.0158 C.2       9 UNK         0.5014 
     29 O          23.4644  -46.2285  -56.9803 O.2       9 UNK        -0.5270 
     30 CA         24.8667  -47.5677  -58.3761 C.3       8 UNK         0.0284 
     31 CB         25.1422  -46.4442  -59.3919 C.3       8 UNK        -0.1977 
     32 N          26.0497  -48.4278  -58.3040 N.am      8 UNK        -0.4342 
     33 C          26.0658  -49.6915  -57.8612 C.2       8 UNK         0.5039 
     34 O          25.0554  -50.3167  -57.5389 O.2       8 UNK        -0.5547 
     35 CA         27.4466  -50.3589  -57.7209 C.3       7 UNK         0.0281 
     36 CB         27.7383  -51.2600  -58.9313 C.3       7 UNK        -0.1963 
     37 N          28.5591  -49.4163  -57.5470 N.am      7 UNK        -0.4444 
     38 C          28.7211  -48.5673  -56.5226 C.2       7 UNK         0.5104 
     39 O          27.8858  -48.4296  -55.6276 O.2       7 UNK        -0.5100 
     40 CA         30.0153  -47.7266  -56.5141 C.3       6 UNK         0.0396 
     41 CB         30.2512  -47.0230  -55.1656 C.3       6 UNK        -0.1801 
     42 N          31.2018  -48.5215  -56.8455 N.am      6 UNK        -0.4747 
     43 C          31.5919  -48.8726  -58.0813 C.2       6 UNK         0.5012 
     44 O          30.9540  -48.5830  -59.0942 O.2       6 UNK        -0.5003 
     45 CA         32.8829  -49.7125  -58.2175 C.3       5 UNK         0.0782 
     46 C46        34.1021  -48.8468  -58.6226 C.3       11 UNK        -0.0868 
     47 S47        34.5497  -47.5776  -57.3821 S.3       11 UNK        -0.2515 
     48 C48        34.0409  -46.0479  -58.2353 C.3       11 UNK         0.0199 
     49 N          33.1711  -50.5109  -57.0249 N.am      5 UNK        -0.4607 
     50 C          32.4408  -51.5470  -56.5936 C.2       4 UNK         0.5031 
     51 O          31.4756  -52.0012  -57.2083 O.2       4 UNK        -0.5119 
     52 CA         32.8444  -52.1837  -55.2494 C.3       4 UNK         0.0263 
     53 CB         33.5385  -53.5353  -55.4854 C.3       4 UNK        -0.1967 
     54 N          33.7035  -51.3462  -54.4004 N.am      4 UNK        -0.4237 
     55 C          33.3554  -50.1624  -53.8775 C.2       3 UNK         0.4908 
     56 O          32.2908  -49.5916  -54.1209 O.2       3 UNK        -0.5102 
     57 CA         34.4006  -49.4782  -52.9810 C.3       3 UNK         0.0241 
     58 CB         35.2197  -48.4635  -53.7960 C.3       3 UNK        -0.1971 
     59 N          33.7794  -48.7852  -51.8526 N.am      3 UNK        -0.4139 
     60 C          33.1199  -49.3731  -50.8442 C.2       2 UNK         0.5016 
     61 O          33.0301  -50.5942  -50.7060 O.2       2 UNK        -0.5319 
     62 CA         32.4670  -48.4499  -49.7949 C.3       2 UNK         0.0286 
     63 CB         33.2413  -48.5110  -48.4673 C.3       2 UNK        -0.1963 
     64 N          32.3646  -47.0480  -50.2203 N.am      2 UNK        -0.4790 
     65 C          31.4928  -46.5934  -51.1315 C.2       1 UNK         0.5024 
     66 O          30.6561  -47.3097  -51.6847 O.2       1 UNK        -0.4888 
     67 H67        27.1434  -43.9319  -51.8474 H         1 UNK         0.0892 
     68 H68        28.2387  -42.9841  -52.8578 H         1 UNK         0.0892 
     69 H69        27.9321  -44.6866  -53.2305 H         1 UNK         0.0892 
     70 H70        30.4615  -44.5211  -53.1684 H         1 UNK         0.3107 
     71 H71        31.7350  -44.5467  -50.5672 H         1 UNK         0.0773 
     72 H72        33.7719  -45.2835  -51.8977 H         1 UNK         0.0680 
     73 H73        32.7799  -45.3534  -53.3349 H         1 UNK         0.0680 
     74 H74        35.1146  -43.6819  -53.9379 H         1 UNK         0.0650 
     75 H75        34.5567  -42.0697  -54.3216 H         1 UNK         0.0650 
     76 H76        35.0452  -44.9373  -55.9503 H         1 UNK         0.1397 
     77 H77        31.5629  -44.9305  -58.4535 H         1 UNK         0.1363 
     78 H78        31.7474  -42.3457  -55.0435 H         1 UNK         0.1355 
     79 H79        30.1491  -41.9464  -57.0704 H         1 UNK         0.0707 
     80 H80        29.8349  -43.3100  -58.1224 H         1 UNK         0.0707 
     81 H81        27.5496  -41.8090  -56.6719 H         1 UNK         0.1034 
     82 H82        27.2139  -43.2451  -57.6095 H         1 UNK         0.1034 
     83 H83        26.3040  -42.7003  -54.7394 H         1 UNK         0.0482 
     84 H84        23.0397  -42.6686  -57.1195 H         1 UNK         0.3460 
     85 H85        23.8415  -44.1648  -56.7070 H         1 UNK         0.3460 
     86 H86        26.4270  -45.2116  -56.1191 H         1 UNK         0.2989 
     87 H87        25.8957  -47.0742  -54.0054 H         1 UNK         0.0559 
     88 H88        22.8680  -46.8111  -54.4085 H         1 UNK         0.0848 
     89 H89        23.7128  -46.9249  -52.8730 H         1 UNK         0.0848 
     90 H90        23.7034  -48.2991  -53.9647 H         1 UNK         0.0848 
     91 H91        26.0252  -47.8330  -56.0609 H         1 UNK         0.3144 
     92 H92        24.0257  -48.1609  -58.7412 H         1 UNK         0.0727 
     93 H93        25.9622  -45.8000  -59.0718 H         1 UNK         0.0790 
     94 H94        24.2644  -45.8101  -59.5247 H         1 UNK         0.0790 
     95 H95        25.3944  -46.8484  -60.3726 H         1 UNK         0.0790 
     96 H96        26.9326  -48.0091  -58.5589 H         1 UNK         0.3215 
     97 H97        27.4098  -50.9865  -56.8279 H         1 UNK         0.0863 
     98 H98        28.6690  -51.8127  -58.7982 H         1 UNK         0.0808 
     99 H99        27.8179  -50.6840  -59.8542 H         1 UNK         0.0808 
    100 H100       26.9443  -51.9949  -59.0721 H         1 UNK         0.0808 
    101 H101       29.2884  -49.4276  -58.2518 H         1 UNK         0.3118 
    102 H102       29.8938  -46.9483  -57.2703 H         1 UNK         0.0546 
    103 H103       29.4071  -46.3880  -54.8973 H         1 UNK         0.0828 
    104 H104       31.1369  -46.3880  -55.1983 H         1 UNK         0.0828 
    105 H105       30.3811  -47.7418  -54.3565 H         1 UNK         0.0828 
    106 H106       31.7461  -48.8511  -56.0549 H         1 UNK         0.3005 
    107 H107       32.6988  -50.4165  -59.0327 H         1 UNK         0.1257 
    108 H108       33.9320  -48.3860  -59.5970 H         1 UNK         0.0775 
    109 H109       34.9719  -49.4902  -58.7647 H         1 UNK         0.0775 
    110 H110       34.9191  -45.5881  -58.6904 H         1 UNK         0.0840 
    111 H111       33.3632  -46.2853  -59.0561 H         1 UNK         0.0840 
    112 H112       33.9440  -50.1959  -56.4579 H         1 UNK         0.2987 
    113 H113       31.9199  -52.3662  -54.6974 H         1 UNK         0.0785 
    114 H114       32.9125  -54.1973  -56.0857 H         1 UNK         0.0798 
    115 H115       33.7387  -54.0497  -54.5453 H         1 UNK         0.0798 
    116 H116       34.4855  -53.4159  -56.0135 H         1 UNK         0.0798 
    117 H117       34.6086  -51.7296  -54.1671 H         1 UNK         0.3079 
    118 H118       35.0762  -50.2360  -52.5785 H         1 UNK         0.0794 
    119 H119       34.5889  -47.6737  -54.2076 H         1 UNK         0.0786 
    120 H120       35.7228  -48.9471  -54.6344 H         1 UNK         0.0786 
    121 H121       35.9912  -47.9928  -53.1864 H         1 UNK         0.0786 
    122 H122       33.7759  -47.7783  -51.8878 H         1 UNK         0.3032 
    123 H123       31.4580  -48.8313  -49.6205 H         1 UNK         0.1094 
    124 H124       34.2611  -48.1395  -48.5761 H         1 UNK         0.0794 
    125 H125       32.7489  -47.9231  -47.6924 H         1 UNK         0.0794 
    126 H126       33.3062  -49.5361  -48.0994 H         1 UNK         0.0794 
    127 H127       33.0166  -46.4004  -49.7993 H         1 UNK         0.3016 
@<TRIPOS>BOND
     1    1    2 1    
     2    1   67 1    
     3    1   68 1    
     4    1   69 1    
     5    2    3 2    
     6    2    4 am   BACKBONE|DICT|INTERRES
     7    4    5 1    
     8    4   70 1    
     9    5    6 1    
    10    5   65 1    
    11    5   71 1    
    12    6    7 1    
    13    6   72 1    
    14    6   73 1    
    15    7    8 1    
    16    8    9 1    
    17    8   74 1    
    18    8   75 1    
    19    9   10 ar   
    20    9   14 ar   
    21   10   11 ar   
    22   10   76 1    
    23   11   12 ar   
    24   11   48 1    
    25   12   13 ar   
    26   12   77 1    
    27   13   14 ar   
    28   13   15 1    
    29   14   78 1    
    30   15   16 1    
    31   15   79 1    
    32   15   80 1    
    33   16   17 1    
    34   17   18 1    
    35   17   81 1    
    36   17   82 1    
    37   18   19 1    
    38   18   22 1    
    39   18   83 1    
    40   19   20 am   BACKBONE|DICT|INTERRES
    41   19   21 2    
    42   20   84 1    
    43   20   85 1    
    44   22   23 am   BACKBONE|DICT|INTERRES
    45   22   86 1    
    46   23   24 2    
    47   23   25 1    
    48   25   26 1    
    49   25   27 1    
    50   25   87 1    
    51   26   88 1    
    52   26   89 1    
    53   26   90 1    
    54   27   28 am   BACKBONE|DICT|INTERRES
    55   27   91 1    
    56   28   29 2    
    57   28   30 1    
    58   30   31 1    
    59   30   32 1    
    60   30   92 1    
    61   31   93 1    
    62   31   94 1    
    63   31   95 1    
    64   32   33 am   BACKBONE|DICT|INTERRES
    65   32   96 1    
    66   33   34 2    
    67   33   35 1    
    68   35   36 1    
    69   35   37 1    
    70   35   97 1    
    71   36   98 1    
    72   36   99 1    
    73   36  100 1    
    74   37   38 am   BACKBONE|DICT|INTERRES
    75   37  101 1    
    76   38   39 2    
    77   38   40 1    
    78   40   41 1    
    79   40   42 1    
    80   40  102 1    
    81   41  103 1    
    82   41  104 1    
    83   41  105 1    
    84   42   43 am   BACKBONE|DICT|INTERRES
    85   42  106 1    
    86   43   44 2    
    87   43   45 1    
    88   45   46 1    
    89   45   49 1    
    90   45  107 1    
    91   46   47 1    
    92   46  108 1    
    93   46  109 1    
    94   47   48 1    
    95   48  110 1    
    96   48  111 1    
    97   49   50 am   BACKBONE|DICT|INTERRES
    98   49  112 1    
    99   50   51 2    
   100   50   52 1    
   101   52   53 1    
   102   52   54 1    
   103   52  113 1    
   104   53  114 1    
   105   53  115 1    
   106   53  116 1    
   107   54   55 am   BACKBONE|DICT|INTERRES
   108   54  117 1    
   109   55   56 2    
   110   55   57 1    
   111   57   58 1    
   112   57   59 1    
   113   57  118 1    
   114   58  119 1    
   115   58  120 1    
   116   58  121 1    
   117   59   60 am   BACKBONE|DICT|INTERRES
   118   59  122 1    
   119   60   61 2    
   120   60   62 1    
   121   62   63 1    
   122   62   64 1    
   123   62  123 1    
   124   63  124 1    
   125   63  125 1    
   126   63  126 1    
   127   64   65 am   BACKBONE|DICT|INTERRES
   128   64  127 1    
   129   65   66 2    
@<TRIPOS>SUBSTRUCTURE
     1 UNK         1 GROUP             0       ****    0 ROOT    
