@<TRIPOS>MOLECULE
3R134
127   129    1
SMALL
USER_CHARGES


@<TRIPOS>ATOM
      1 CA         37.7302  -45.9099  -50.2490 C.3       0 UNK        -0.1968 
      2 C          37.0092  -46.2761  -51.5380 C.2       0 UNK         0.4852 
      3 O          37.4466  -47.1865  -52.2432 O.2       0 UNK        -0.5359 
      4 N          35.9134  -45.5701  -51.8499 N.am      1 UNK        -0.4300 
      5 CA         35.0771  -45.7861  -53.0377 C.3       1 UNK         0.0863 
      6 C6         34.0800  -44.6233  -53.2482 C.3       11 UNK        -0.0953 
      7 S7         34.9268  -43.1054  -53.8013 S.3       11 UNK        -0.2369 
      8 C8         33.6912  -41.8156  -53.4302 C.3       11 UNK         0.0226 
      9 C9         32.2915  -42.1813  -53.9093 C.ar      11 UNK        -0.0699 
     10 C10        31.2456  -42.2865  -52.9891 C.ar      11 UNK        -0.0804 
     11 C11        29.9652  -42.6655  -53.4020 C.ar      11 UNK        -0.0871 
     12 C12        29.7367  -42.9369  -54.7560 C.ar      11 UNK        -0.1008 
     13 C13        30.7759  -42.8393  -55.6879 C.ar      11 UNK        -0.0735 
     14 C14        32.0468  -42.4450  -55.2601 C.ar      11 UNK        -0.0945 
     15 C15        30.5570  -43.2405  -57.1394 C.3       11 UNK         0.0169 
     16 S16        29.1465  -42.3984  -57.9180 S.3       11 UNK        -0.2669 
     17 C17        28.9845  -43.3949  -59.4400 C.3       11 UNK        -0.0850 
     18 CA         27.5825  -44.0383  -59.5872 C.3       10 UNK         0.0855 
     19 C          27.4462  -44.7354  -60.9668 C.2       10 UNK         0.5543 
     20 N          26.7952  -44.0948  -61.9278 N.am      10 UNK        -0.7343 
     21 O          27.9687  -45.8267  -61.1839 O.2       10 UNK        -0.5027 
     22 N          27.2679  -44.9703  -58.4930 N.am      10 UNK        -0.4495 
     23 C          26.0213  -45.3448  -58.1774 C.2       10 UNK         0.4903 
     24 O          25.0094  -44.8609  -58.6892 O.2       10 UNK        -0.4860 
     25 CA         25.8952  -46.4566  -57.1205 C.3       9 UNK         0.0227 
     26 CB         24.4334  -46.8031  -56.7674 C.3       9 UNK        -0.1964 
     27 N          26.6401  -47.6629  -57.4977 N.am      9 UNK        -0.4231 
     28 C          26.4760  -48.4183  -58.5946 C.2       9 UNK         0.5014 
     29 O          25.6128  -48.2292  -59.4527 O.2       9 UNK        -0.5270 
     30 CA         27.4402  -49.6053  -58.7527 C.3       8 UNK         0.0284 
     31 CB         28.7884  -49.1437  -59.3265 C.3       8 UNK        -0.1977 
     32 N          27.6488  -50.3377  -57.4984 N.am      8 UNK        -0.4342 
     33 C          26.7330  -51.1570  -56.9611 C.2       8 UNK         0.5039 
     34 O          25.6185  -51.3514  -57.4484 O.2       8 UNK        -0.5547 
     35 CA         27.1177  -51.8964  -55.6750 C.3       7 UNK         0.0281 
     36 CB         28.2025  -52.9561  -55.9410 C.3       7 UNK        -0.1963 
     37 N          27.5713  -50.9626  -54.6422 N.am      7 UNK        -0.4444 
     38 C          26.9413  -50.7709  -53.4757 C.2       7 UNK         0.5104 
     39 O          25.8957  -51.3402  -53.1589 O.2       7 UNK        -0.5100 
     40 CA         27.5811  -49.8057  -52.4642 C.3       6 UNK         0.0396 
     41 CB         28.4803  -50.5728  -51.4815 C.3       6 UNK        -0.1801 
     42 N          28.3410  -48.7030  -53.0561 N.am      6 UNK        -0.4747 
     43 C          27.7843  -47.6465  -53.6665 C.2       6 UNK         0.5012 
     44 O          26.5898  -47.5744  -53.9522 O.2       6 UNK        -0.5003 
     45 CA         28.7175  -46.4647  -53.9856 C.3       5 UNK         0.0782 
     46 C46        29.0218  -45.6321  -52.7109 C.3       11 UNK        -0.0868 
     47 S47        27.8094  -44.2780  -52.5264 S.3       11 UNK        -0.2515 
     48 C48        28.8536  -42.7878  -52.3617 C.3       11 UNK         0.0199 
     49 N          29.9339  -46.9428  -54.6389 N.am      5 UNK        -0.4607 
     50 C          30.1056  -46.9889  -55.9667 C.2       4 UNK         0.5031 
     51 O          29.2863  -46.5589  -56.7791 O.2       4 UNK        -0.5119 
     52 CA         31.3816  -47.6785  -56.4845 C.3       4 UNK         0.0263 
     53 CB         32.5159  -46.6618  -56.6726 C.3       4 UNK        -0.1967 
     54 N          31.8246  -48.7748  -55.6179 N.am      4 UNK        -0.4237 
     55 C          31.0878  -49.8716  -55.3821 C.2       3 UNK         0.4908 
     56 O          30.0041  -50.0881  -55.9273 O.2       3 UNK        -0.5102 
     57 CA         31.5926  -50.8743  -54.3313 C.3       3 UNK         0.0241 
     58 CB         32.3171  -52.0420  -55.0181 C.3       3 UNK        -0.1971 
     59 N          32.4623  -50.3052  -53.2970 N.am      3 UNK        -0.4139 
     60 C          32.1753  -49.2791  -52.4816 C.2       2 UNK         0.5016 
     61 O          31.1160  -48.6493  -52.5159 O.2       2 UNK        -0.5319 
     62 CA         33.2718  -48.8498  -51.4861 C.3       2 UNK         0.0286 
     63 CB         34.3920  -49.8982  -51.2994 C.3       2 UNK        -0.1963 
     64 N          33.8718  -47.5497  -51.8168 N.am      2 UNK        -0.4790 
     65 C          34.3472  -47.1455  -53.0075 C.2       1 UNK         0.5024 
     66 O          34.2562  -47.8000  -54.0484 O.2       1 UNK        -0.4888 
     67 H67        37.7546  -46.7672  -49.5768 H         1 UNK         0.0892 
     68 H68        38.7572  -45.6160  -50.4643 H         1 UNK         0.0892 
     69 H69        37.2440  -45.0849  -49.7287 H         1 UNK         0.0892 
     70 H70        35.6238  -44.8155  -51.2442 H         1 UNK         0.3107 
     71 H71        35.7436  -45.8214  -53.9028 H         1 UNK         0.0773 
     72 H72        33.5215  -44.4198  -52.3326 H         1 UNK         0.0680 
     73 H73        33.3371  -44.8714  -54.0062 H         1 UNK         0.0680 
     74 H74        33.6973  -41.6315  -52.3548 H         1 UNK         0.0650 
     75 H75        33.9998  -40.8829  -53.9039 H         1 UNK         0.0650 
     76 H76        31.4337  -42.0856  -51.9432 H         1 UNK         0.1397 
     77 H77        28.7549  -43.2490  -55.0843 H         1 UNK         0.1363 
     78 H78        32.8611  -42.3818  -55.9690 H         1 UNK         0.1355 
     79 H79        31.4498  -43.0468  -57.7360 H         1 UNK         0.0707 
     80 H80        30.3925  -44.3143  -57.1723 H         1 UNK         0.0707 
     81 H81        29.7594  -44.1630  -59.4780 H         1 UNK         0.1034 
     82 H82        29.1842  -42.7308  -60.2834 H         1 UNK         0.1034 
     83 H83        26.8541  -43.2252  -59.5473 H         1 UNK         0.0482 
     84 H84        26.7129  -44.5259  -62.8353 H         1 UNK         0.3460 
     85 H85        26.3703  -43.1958  -61.7602 H         1 UNK         0.3460 
     86 H86        28.0493  -45.4373  -58.0452 H         1 UNK         0.2989 
     87 H87        26.3656  -46.0695  -56.2171 H         1 UNK         0.0559 
     88 H88        23.8837  -47.1816  -57.6297 H         1 UNK         0.0848 
     89 H89        23.9019  -45.9234  -56.4029 H         1 UNK         0.0848 
     90 H90        24.3872  -47.5575  -55.9817 H         1 UNK         0.0848 
     91 H91        27.4345  -47.8731  -56.9090 H         1 UNK         0.3144 
     92 H92        26.9975  -50.2959  -59.4741 H         1 UNK         0.0727 
     93 H93        29.2662  -48.4044  -58.6875 H         1 UNK         0.0790 
     94 H94        28.6527  -48.6798  -60.3046 H         1 UNK         0.0790 
     95 H95        29.4775  -49.9787  -59.4536 H         1 UNK         0.0790 
     96 H96        28.5518  -50.2386  -57.0372 H         1 UNK         0.3215 
     97 H97        26.2256  -52.4305  -55.3406 H         1 UNK         0.0863 
     98 H98        29.1286  -52.5192  -56.3133 H         1 UNK         0.0808 
     99 H99        27.8640  -53.6778  -56.6855 H         1 UNK         0.0808 
    100 H100       28.4388  -53.5137  -55.0348 H         1 UNK         0.0808 
    101 H101       28.4160  -50.4384  -54.8450 H         1 UNK         0.3118 
    102 H102       26.7663  -49.3659  -51.8847 H         1 UNK         0.0546 
    103 H103       28.8707  -49.9150  -50.7047 H         1 UNK         0.0828 
    104 H104       29.3288  -51.0367  -51.9826 H         1 UNK         0.0828 
    105 H105       27.9240  -51.3672  -50.9821 H         1 UNK         0.0828 
    106 H106       29.3398  -48.6800  -52.8539 H         1 UNK         0.3005 
    107 H107       28.1866  -45.8224  -54.6915 H         1 UNK         0.1257 
    108 H108       30.0267  -45.2129  -52.7649 H         1 UNK         0.0775 
    109 H109       29.0224  -46.2396  -51.8034 H         1 UNK         0.0775 
    110 H110       28.2158  -41.9055  -52.4274 H         1 UNK         0.0840 
    111 H111       29.2733  -42.7861  -51.3545 H         1 UNK         0.0840 
    112 H112       30.6232  -47.3781  -54.0357 H         1 UNK         0.2987 
    113 H113       31.1576  -48.1085  -57.4614 H         1 UNK         0.0785 
    114 H114       33.4252  -47.1413  -57.0354 H         1 UNK         0.0798 
    115 H115       32.2398  -45.8994  -57.4014 H         1 UNK         0.0798 
    116 H116       32.7552  -46.1518  -55.7419 H         1 UNK         0.0798 
    117 H117       32.6958  -48.6422  -55.1131 H         1 UNK         0.3079 
    118 H118       30.7118  -51.2759  -53.8293 H         1 UNK         0.0794 
    119 H119       32.5786  -52.8231  -54.3040 H         1 UNK         0.0786 
    120 H120       33.2338  -51.7145  -55.5104 H         1 UNK         0.0786 
    121 H121       31.6852  -52.5023  -55.7792 H         1 UNK         0.0786 
    122 H122       33.3769  -50.7233  -53.2074 H         1 UNK         0.3032 
    123 H123       32.7673  -48.7300  -50.5257 H         1 UNK         0.1094 
    124 H124       33.9851  -50.8735  -51.0278 H         1 UNK         0.0794 
    125 H125       34.9972  -50.0220  -52.1985 H         1 UNK         0.0794 
    126 H126       35.0668  -49.6039  -50.4953 H         1 UNK         0.0794 
    127 H127       33.9738  -46.9122  -51.0397 H         1 UNK         0.3016 
@<TRIPOS>BOND
     1    1    2 1    
     2    1   67 1    
     3    1   68 1    
     4    1   69 1    
     5    2    3 2    
     6    2    4 am   BACKBONE|DICT|INTERRES
     7    4    5 1    
     8    4   70 1    
     9    5    6 1    
    10    5   65 1    
    11    5   71 1    
    12    6    7 1    
    13    6   72 1    
    14    6   73 1    
    15    7    8 1    
    16    8    9 1    
    17    8   74 1    
    18    8   75 1    
    19    9   10 ar   
    20    9   14 ar   
    21   10   11 ar   
    22   10   76 1    
    23   11   12 ar   
    24   11   48 1    
    25   12   13 ar   
    26   12   77 1    
    27   13   14 ar   
    28   13   15 1    
    29   14   78 1    
    30   15   16 1    
    31   15   79 1    
    32   15   80 1    
    33   16   17 1    
    34   17   18 1    
    35   17   81 1    
    36   17   82 1    
    37   18   19 1    
    38   18   22 1    
    39   18   83 1    
    40   19   20 am   BACKBONE|DICT|INTERRES
    41   19   21 2    
    42   20   84 1    
    43   20   85 1    
    44   22   23 am   BACKBONE|DICT|INTERRES
    45   22   86 1    
    46   23   24 2    
    47   23   25 1    
    48   25   26 1    
    49   25   27 1    
    50   25   87 1    
    51   26   88 1    
    52   26   89 1    
    53   26   90 1    
    54   27   28 am   BACKBONE|DICT|INTERRES
    55   27   91 1    
    56   28   29 2    
    57   28   30 1    
    58   30   31 1    
    59   30   32 1    
    60   30   92 1    
    61   31   93 1    
    62   31   94 1    
    63   31   95 1    
    64   32   33 am   BACKBONE|DICT|INTERRES
    65   32   96 1    
    66   33   34 2    
    67   33   35 1    
    68   35   36 1    
    69   35   37 1    
    70   35   97 1    
    71   36   98 1    
    72   36   99 1    
    73   36  100 1    
    74   37   38 am   BACKBONE|DICT|INTERRES
    75   37  101 1    
    76   38   39 2    
    77   38   40 1    
    78   40   41 1    
    79   40   42 1    
    80   40  102 1    
    81   41  103 1    
    82   41  104 1    
    83   41  105 1    
    84   42   43 am   BACKBONE|DICT|INTERRES
    85   42  106 1    
    86   43   44 2    
    87   43   45 1    
    88   45   46 1    
    89   45   49 1    
    90   45  107 1    
    91   46   47 1    
    92   46  108 1    
    93   46  109 1    
    94   47   48 1    
    95   48  110 1    
    96   48  111 1    
    97   49   50 am   BACKBONE|DICT|INTERRES
    98   49  112 1    
    99   50   51 2    
   100   50   52 1    
   101   52   53 1    
   102   52   54 1    
   103   52  113 1    
   104   53  114 1    
   105   53  115 1    
   106   53  116 1    
   107   54   55 am   BACKBONE|DICT|INTERRES
   108   54  117 1    
   109   55   56 2    
   110   55   57 1    
   111   57   58 1    
   112   57   59 1    
   113   57  118 1    
   114   58  119 1    
   115   58  120 1    
   116   58  121 1    
   117   59   60 am   BACKBONE|DICT|INTERRES
   118   59  122 1    
   119   60   61 2    
   120   60   62 1    
   121   62   63 1    
   122   62   64 1    
   123   62  123 1    
   124   63  124 1    
   125   63  125 1    
   126   63  126 1    
   127   64   65 am   BACKBONE|DICT|INTERRES
   128   64  127 1    
   129   65   66 2    
@<TRIPOS>SUBSTRUCTURE
     1 UNK         1 GROUP             0       ****    0 ROOT    
