@<TRIPOS>MOLECULE
3R134
127   129    1
SMALL
USER_CHARGES


@<TRIPOS>ATOM
      1 CA         35.5511  -45.5551  -47.5271 C.3       0 UNK        -0.1968 
      2 C          35.5903  -45.7388  -49.0370 C.2       0 UNK         0.4852 
      3 O          36.6734  -45.8799  -49.6067 O.2       0 UNK        -0.5359 
      4 N          34.4180  -45.7367  -49.6868 N.am      1 UNK        -0.4300 
      5 CA         34.2607  -45.8949  -51.1400 C.3       1 UNK         0.0863 
      6 C6         32.8630  -45.4354  -51.6209 C.3       11 UNK        -0.0953 
      7 S7         32.5953  -43.6589  -51.2959 S.3       11 UNK        -0.2369 
      8 C8         30.8886  -43.4113  -51.9003 C.3       11 UNK         0.0226 
      9 C9         30.6998  -43.3513  -53.4201 C.ar      11 UNK        -0.0699 
     10 C10        31.7535  -43.4970  -54.3335 C.ar      11 UNK        -0.0804 
     11 C11        31.5153  -43.4500  -55.7087 C.ar      11 UNK        -0.0871 
     12 C12        30.2232  -43.2172  -56.1753 C.ar      11 UNK        -0.1008 
     13 C13        29.1506  -43.0967  -55.2885 C.ar      11 UNK        -0.0735 
     14 C14        29.4036  -43.1601  -53.9135 C.ar      11 UNK        -0.0945 
     15 C15        27.7077  -42.9784  -55.7798 C.3       11 UNK         0.0169 
     16 S16        27.4689  -41.9688  -57.2856 S.3       11 UNK        -0.2669 
     17 C17        27.7300  -43.1582  -58.6532 C.3       11 UNK        -0.0850 
     18 CA         26.4219  -43.8490  -59.1081 C.3       10 UNK         0.0855 
     19 C          26.6100  -44.5432  -60.4805 C.2       10 UNK         0.5543 
     20 N          26.0123  -44.0094  -61.5363 N.am      10 UNK        -0.7343 
     21 O          27.3282  -45.5336  -60.6012 O.2       10 UNK        -0.5027 
     22 N          25.9953  -44.8388  -58.1174 N.am      10 UNK        -0.4495 
     23 C          24.7264  -45.1275  -57.8156 C.2       10 UNK         0.4903 
     24 O          23.7526  -44.5359  -58.2854 O.2       10 UNK        -0.4860 
     25 CA         24.5302  -46.2818  -56.8167 C.3       9 UNK         0.0227 
     26 CB         23.0495  -46.6594  -56.5993 C.3       9 UNK        -0.1964 
     27 N          25.3296  -47.4587  -57.1736 N.am      9 UNK        -0.4231 
     28 C          25.2459  -48.2015  -58.2902 C.2       9 UNK         0.5014 
     29 O          24.4240  -48.0073  -59.1869 O.2       9 UNK        -0.5270 
     30 CA         26.2507  -49.3613  -58.4504 C.3       8 UNK         0.0284 
     31 CB         27.2765  -49.0277  -59.5459 C.3       8 UNK        -0.1977 
     32 N          26.9691  -49.6985  -57.2188 N.am      8 UNK        -0.4342 
     33 C          26.4244  -50.2644  -56.1335 C.2       8 UNK         0.5039 
     34 O          25.2622  -50.6669  -56.0781 O.2       8 UNK        -0.5547 
     35 CA         27.3131  -50.3419  -54.8822 C.3       7 UNK         0.0281 
     36 CB         28.1363  -51.6386  -54.8670 C.3       7 UNK        -0.1963 
     37 N          28.2035  -49.1827  -54.7597 N.am      7 UNK        -0.4444 
     38 C          27.7984  -47.9469  -54.4327 C.2       7 UNK         0.5104 
     39 O          26.6298  -47.6522  -54.1857 O.2       7 UNK        -0.5100 
     40 CA         28.8730  -46.8500  -54.4094 C.3       6 UNK         0.0396 
     41 CB         29.6158  -46.8570  -53.0660 C.3       6 UNK        -0.1801 
     42 N          29.8298  -46.9904  -55.5090 N.am      6 UNK        -0.4747 
     43 C          29.5421  -46.7091  -56.7896 C.2       6 UNK         0.5012 
     44 O          28.4501  -46.2691  -57.1571 O.2       6 UNK        -0.5003 
     45 CA         30.6174  -47.0353  -57.8517 C.3       5 UNK         0.0782 
     46 C46        31.4935  -45.8095  -58.2271 C.3       11 UNK        -0.0868 
     47 S47        32.8579  -45.4545  -57.0544 S.3       11 UNK        -0.2515 
     48 C48        32.6477  -43.6803  -56.6953 C.3       11 UNK         0.0199 
     49 N          31.4407  -48.2003  -57.5150 N.am      5 UNK        -0.4607 
     50 C          31.0003  -49.4422  -57.2872 C.2       4 UNK         0.5031 
     51 O          29.8162  -49.7692  -57.3638 O.2       4 UNK        -0.5119 
     52 CA         32.0418  -50.4902  -56.8518 C.3       4 UNK         0.0263 
     53 CB         33.5073  -50.0588  -57.0923 C.3       4 UNK        -0.1967 
     54 N          31.8570  -50.8933  -55.4520 N.am      4 UNK        -0.4237 
     55 C          31.8320  -50.0921  -54.3751 C.2       3 UNK         0.4908 
     56 O          31.9142  -48.8638  -54.4311 O.2       3 UNK        -0.5102 
     57 CA         31.6393  -50.7538  -52.9962 C.3       3 UNK         0.0241 
     58 CB         31.6199  -52.3019  -53.0169 C.3       3 UNK        -0.1971 
     59 N          32.6175  -50.2525  -52.0228 N.am      3 UNK        -0.4139 
     60 C          33.9505  -50.4020  -52.0698 C.2       2 UNK         0.5016 
     61 O          34.5487  -51.0249  -52.9501 O.2       2 UNK        -0.5319 
     62 CA         34.7367  -49.7457  -50.9173 C.3       2 UNK         0.0286 
     63 CB         36.2641  -49.9398  -51.0404 C.3       2 UNK        -0.1963 
     64 N          34.4134  -48.3236  -50.7328 N.am      2 UNK        -0.4790 
     65 C          34.5710  -47.3291  -51.6242 C.2       1 UNK         0.5024 
     66 O          34.9703  -47.4932  -52.7772 O.2       1 UNK        -0.4888 
     67 H67        36.1190  -44.6698  -47.2424 H         1 UNK         0.0892 
     68 H68        34.5331  -45.4379  -47.1559 H         1 UNK         0.0892 
     69 H69        35.9950  -46.4186  -47.0324 H         1 UNK         0.0892 
     70 H70        33.5636  -45.5853  -49.1696 H         1 UNK         0.3107 
     71 H71        35.0011  -45.2494  -51.6185 H         1 UNK         0.0773 
     72 H72        32.7530  -45.6125  -52.6921 H         1 UNK         0.0680 
     73 H73        32.0764  -46.0105  -51.1291 H         1 UNK         0.0680 
     74 H74        30.5259  -42.4732  -51.4782 H         1 UNK         0.0650 
     75 H75        30.2537  -44.1963  -51.4874 H         1 UNK         0.0650 
     76 H76        32.7643  -43.6630  -53.9924 H         1 UNK         0.1397 
     77 H77        30.0639  -43.1567  -57.2375 H         1 UNK         0.1363 
     78 H78        28.5805  -43.0753  -53.2169 H         1 UNK         0.1355 
     79 H79        27.3109  -43.9807  -55.9357 H         1 UNK         0.0707 
     80 H80        27.0943  -42.5318  -54.9958 H         1 UNK         0.0707 
     81 H81        28.1687  -42.5937  -59.4785 H         1 UNK         0.1034 
     82 H82        28.4660  -43.9142  -58.3847 H         1 UNK         0.1034 
     83 H83        25.6526  -43.0804  -59.2109 H         1 UNK         0.0482 
     84 H84        25.4276  -43.1927  -61.4472 H         1 UNK         0.3460 
     85 H85        26.1376  -44.4397  -62.4393 H         1 UNK         0.3460 
     86 H86        26.7387  -45.4169  -57.7362 H         1 UNK         0.2989 
     87 H87        24.9217  -45.9288  -55.8613 H         1 UNK         0.0559 
     88 H88        22.5704  -46.9803  -57.5247 H         1 UNK         0.0848 
     89 H89        22.4825  -45.8085  -56.2197 H         1 UNK         0.0848 
     90 H90        22.9492  -47.4655  -55.8725 H         1 UNK         0.0848 
     91 H91        26.0466  -47.7076  -56.5053 H         1 UNK         0.3144 
     92 H92        25.6866  -50.2423  -58.7630 H         1 UNK         0.0727 
     93 H93        27.9831  -49.8444  -59.6957 H         1 UNK         0.0790 
     94 H94        27.8443  -48.1299  -59.3007 H         1 UNK         0.0790 
     95 H95        26.7827  -48.8449  -60.5013 H         1 UNK         0.0790 
     96 H96        27.9679  -49.5007  -57.2047 H         1 UNK         0.3215 
     97 H97        26.6509  -50.3539  -54.0134 H         1 UNK         0.0863 
     98 H98        28.6665  -51.7514  -53.9224 H         1 UNK         0.0808 
     99 H99        28.8662  -51.6706  -55.6762 H         1 UNK         0.0808 
    100 H100       27.4902  -52.5107  -54.9775 H         1 UNK         0.0808 
    101 H101       29.1685  -49.3110  -55.0281 H         1 UNK         0.3118 
    102 H102       28.3740  -45.8848  -54.5136 H         1 UNK         0.0546 
    103 H103       30.0433  -47.8327  -52.8361 H         1 UNK         0.0828 
    104 H104       30.4272  -46.1330  -53.0672 H         1 UNK         0.0828 
    105 H105       28.9431  -46.5949  -52.2486 H         1 UNK         0.0828 
    106 H106       30.7377  -47.3865  -55.2834 H         1 UNK         0.3005 
    107 H107       30.0571  -47.3099  -58.7480 H         1 UNK         0.1257 
    108 H108       30.8770  -44.9248  -58.3834 H         1 UNK         0.0775 
    109 H109       31.9591  -45.9978  -59.1956 H         1 UNK         0.0775 
    110 H110       33.5801  -43.2926  -56.2820 H         1 UNK         0.0840 
    111 H111       32.4761  -43.1303  -57.6220 H         1 UNK         0.0840 
    112 H112       32.4213  -48.0062  -57.3702 H         1 UNK         0.2987 
    113 H113       31.8526  -51.3749  -57.4616 H         1 UNK         0.0785 
    114 H114       33.6741  -49.7835  -58.1347 H         1 UNK         0.0798 
    115 H115       34.1932  -50.8752  -56.8661 H         1 UNK         0.0798 
    116 H116       33.7983  -49.2109  -56.4705 H         1 UNK         0.0798 
    117 H117       31.7538  -51.8863  -55.2975 H         1 UNK         0.3079 
    118 H118       30.6620  -50.4215  -52.6428 H         1 UNK         0.0794 
    119 H119       32.5549  -52.7233  -53.3877 H         1 UNK         0.0786 
    120 H120       30.8148  -52.6885  -53.6416 H         1 UNK         0.0786 
    121 H121       31.4577  -52.7010  -52.0155 H         1 UNK         0.0786 
    122 H122       32.2390  -49.6828  -51.2794 H         1 UNK         0.3032 
    123 H123       34.4196  -50.2588  -50.0075 H         1 UNK         0.1094 
    124 H124       36.5222  -50.9992  -51.0662 H         1 UNK         0.0794 
    125 H125       36.6592  -49.4878  -51.9508 H         1 UNK         0.0794 
    126 H126       36.7895  -49.4991  -50.1931 H         1 UNK         0.0794 
    127 H127       34.0766  -48.0679  -49.8148 H         1 UNK         0.3016 
@<TRIPOS>BOND
     1    1    2 1    
     2    1   67 1    
     3    1   68 1    
     4    1   69 1    
     5    2    3 2    
     6    2    4 am   BACKBONE|DICT|INTERRES
     7    4    5 1    
     8    4   70 1    
     9    5    6 1    
    10    5   65 1    
    11    5   71 1    
    12    6    7 1    
    13    6   72 1    
    14    6   73 1    
    15    7    8 1    
    16    8    9 1    
    17    8   74 1    
    18    8   75 1    
    19    9   10 ar   
    20    9   14 ar   
    21   10   11 ar   
    22   10   76 1    
    23   11   12 ar   
    24   11   48 1    
    25   12   13 ar   
    26   12   77 1    
    27   13   14 ar   
    28   13   15 1    
    29   14   78 1    
    30   15   16 1    
    31   15   79 1    
    32   15   80 1    
    33   16   17 1    
    34   17   18 1    
    35   17   81 1    
    36   17   82 1    
    37   18   19 1    
    38   18   22 1    
    39   18   83 1    
    40   19   20 am   BACKBONE|DICT|INTERRES
    41   19   21 2    
    42   20   84 1    
    43   20   85 1    
    44   22   23 am   BACKBONE|DICT|INTERRES
    45   22   86 1    
    46   23   24 2    
    47   23   25 1    
    48   25   26 1    
    49   25   27 1    
    50   25   87 1    
    51   26   88 1    
    52   26   89 1    
    53   26   90 1    
    54   27   28 am   BACKBONE|DICT|INTERRES
    55   27   91 1    
    56   28   29 2    
    57   28   30 1    
    58   30   31 1    
    59   30   32 1    
    60   30   92 1    
    61   31   93 1    
    62   31   94 1    
    63   31   95 1    
    64   32   33 am   BACKBONE|DICT|INTERRES
    65   32   96 1    
    66   33   34 2    
    67   33   35 1    
    68   35   36 1    
    69   35   37 1    
    70   35   97 1    
    71   36   98 1    
    72   36   99 1    
    73   36  100 1    
    74   37   38 am   BACKBONE|DICT|INTERRES
    75   37  101 1    
    76   38   39 2    
    77   38   40 1    
    78   40   41 1    
    79   40   42 1    
    80   40  102 1    
    81   41  103 1    
    82   41  104 1    
    83   41  105 1    
    84   42   43 am   BACKBONE|DICT|INTERRES
    85   42  106 1    
    86   43   44 2    
    87   43   45 1    
    88   45   46 1    
    89   45   49 1    
    90   45  107 1    
    91   46   47 1    
    92   46  108 1    
    93   46  109 1    
    94   47   48 1    
    95   48  110 1    
    96   48  111 1    
    97   49   50 am   BACKBONE|DICT|INTERRES
    98   49  112 1    
    99   50   51 2    
   100   50   52 1    
   101   52   53 1    
   102   52   54 1    
   103   52  113 1    
   104   53  114 1    
   105   53  115 1    
   106   53  116 1    
   107   54   55 am   BACKBONE|DICT|INTERRES
   108   54  117 1    
   109   55   56 2    
   110   55   57 1    
   111   57   58 1    
   112   57   59 1    
   113   57  118 1    
   114   58  119 1    
   115   58  120 1    
   116   58  121 1    
   117   59   60 am   BACKBONE|DICT|INTERRES
   118   59  122 1    
   119   60   61 2    
   120   60   62 1    
   121   62   63 1    
   122   62   64 1    
   123   62  123 1    
   124   63  124 1    
   125   63  125 1    
   126   63  126 1    
   127   64   65 am   BACKBONE|DICT|INTERRES
   128   64  127 1    
   129   65   66 2    
@<TRIPOS>SUBSTRUCTURE
     1 UNK         1 GROUP             0       ****    0 ROOT    
