@<TRIPOS>MOLECULE
3R134
127   129    1
SMALL
USER_CHARGES


@<TRIPOS>ATOM
      1 CA         32.5339  -46.1884  -58.7620 C.3       0 UNK        -0.1968 
      2 C          32.4457  -46.1833  -57.2436 C.2       0 UNK         0.4852 
      3 O          31.4063  -46.5363  -56.6880 O.2       0 UNK        -0.5359 
      4 N          33.5390  -45.7973  -56.5738 N.am      1 UNK        -0.4300 
      5 CA         33.6423  -45.7282  -55.1098 C.3       1 UNK         0.0863 
      6 C6         34.7855  -44.7826  -54.6425 C.3       11 UNK        -0.0953 
      7 S7         34.8434  -43.1700  -55.5006 S.3       11 UNK        -0.2369 
      8 C8         33.8084  -42.1183  -54.4305 C.3       11 UNK         0.0226 
      9 C9         32.3564  -42.5741  -54.4139 C.ar      11 UNK        -0.0699 
     10 C10        31.7433  -42.9359  -53.2104 C.ar      11 UNK        -0.0804 
     11 C11        30.4239  -43.3981  -53.1982 C.ar      11 UNK        -0.0871 
     12 C12        29.7200  -43.5008  -54.4014 C.ar      11 UNK        -0.1008 
     13 C13        30.3236  -43.1465  -55.6102 C.ar      11 UNK        -0.0735 
     14 C14        31.6339  -42.6637  -55.6080 C.ar      11 UNK        -0.0945 
     15 C15        29.5960  -43.3660  -56.9260 C.3       11 UNK         0.0169 
     16 S16        28.6799  -41.9062  -57.5117 S.3       11 UNK        -0.2669 
     17 C17        27.3156  -41.7242  -56.3051 C.3       11 UNK        -0.0850 
     18 CA         26.0450  -42.5700  -56.5965 C.3       10 UNK         0.0855 
     19 C          25.3701  -42.2151  -57.9561 C.2       10 UNK         0.5543 
     20 N          25.1855  -43.1518  -58.8803 N.am      10 UNK        -0.7343 
     21 O          24.9900  -41.0660  -58.1673 O.2       10 UNK        -0.5027 
     22 N          26.2852  -44.0044  -56.3815 N.am      10 UNK        -0.4495 
     23 C          25.3423  -44.9008  -56.0657 C.2       10 UNK         0.4903 
     24 O          24.1730  -44.6007  -55.8193 O.2       10 UNK        -0.4860 
     25 CA         25.7826  -46.3793  -56.0105 C.3       9 UNK         0.0227 
     26 CB         24.6062  -47.3565  -56.2170 C.3       9 UNK        -0.1964 
     27 N          26.8934  -46.7253  -56.9113 N.am      9 UNK        -0.4231 
     28 C          26.9267  -46.5819  -58.2466 C.2       9 UNK         0.5014 
     29 O          26.0297  -46.0305  -58.8865 O.2       9 UNK        -0.5270 
     30 CA         28.1398  -47.1250  -59.0206 C.3       8 UNK         0.0284 
     31 CB         29.0595  -45.9882  -59.4935 C.3       8 UNK        -0.1977 
     32 N          28.9172  -48.1406  -58.2983 N.am      8 UNK        -0.4342 
     33 C          29.5245  -49.1781  -58.8947 C.2       8 UNK         0.5039 
     34 O          29.5525  -49.3403  -60.1160 O.2       8 UNK        -0.5547 
     35 CA         30.1976  -50.2399  -58.0007 C.3       7 UNK         0.0281 
     36 CB         31.7148  -50.0229  -57.9202 C.3       7 UNK        -0.1963 
     37 N          29.6496  -50.3132  -56.6459 N.am      7 UNK        -0.4444 
     38 C          28.3956  -50.6858  -56.3539 C.2       7 UNK         0.5104 
     39 O          27.5962  -51.1034  -57.1922 O.2       7 UNK        -0.5100 
     40 CA         27.9340  -50.5550  -54.8920 C.3       6 UNK         0.0396 
     41 CB         27.7441  -51.9415  -54.2555 C.3       6 UNK        -0.1801 
     42 N          28.8065  -49.7504  -54.0320 N.am      6 UNK        -0.4747 
     43 C          29.0666  -48.4403  -54.1576 C.2       6 UNK         0.5012 
     44 O          28.6993  -47.7808  -55.1313 O.2       6 UNK        -0.5003 
     45 CA         29.8757  -47.7509  -53.0323 C.3       5 UNK         0.0782 
     46 C46        29.1479  -46.4809  -52.5149 C.3       11 UNK        -0.0868 
     47 S47        30.1871  -45.4900  -51.3881 S.3       11 UNK        -0.2515 
     48 C48        29.7641  -43.7893  -51.8840 C.3       11 UNK         0.0199 
     49 N          30.2830  -48.6758  -51.9593 N.am      5 UNK        -0.4607 
     50 C          29.5069  -49.2809  -51.0459 C.2       4 UNK         0.5031 
     51 O          28.2977  -49.0795  -50.9333 O.2       4 UNK        -0.5119 
     52 CA         30.1843  -50.3656  -50.1828 C.3       4 UNK         0.0263 
     53 CB         29.1773  -51.1739  -49.3423 C.3       4 UNK        -0.1967 
     54 N          30.9448  -51.2894  -51.0322 N.am      4 UNK        -0.4237 
     55 C          32.2068  -51.0857  -51.4282 C.2       3 UNK         0.4908 
     56 O          32.9041  -50.1666  -50.9935 O.2       3 UNK        -0.5102 
     57 CA         32.7824  -52.0190  -52.5122 C.3       3 UNK         0.0241 
     58 CB         31.7180  -52.8099  -53.3085 C.3       3 UNK        -0.1971 
     59 N          33.6669  -51.2660  -53.4102 N.am      3 UNK        -0.4139 
     60 C          33.3268  -50.2525  -54.2226 C.2       2 UNK         0.5016 
     61 O          32.1658  -49.9220  -54.4861 O.2       2 UNK        -0.5319 
     62 CA         34.5140  -49.4938  -54.8439 C.3       2 UNK         0.0286 
     63 CB         35.0962  -50.2602  -56.0435 C.3       2 UNK        -0.1963 
     64 N          34.1930  -48.1282  -55.2653 N.am      2 UNK        -0.4790 
     65 C          33.8194  -47.1203  -54.4607 C.2       1 UNK         0.5024 
     66 O          33.6642  -47.2394  -53.2449 O.2       1 UNK        -0.4888 
     67 H67        32.0246  -47.0625  -59.1671 H         1 UNK         0.0892 
     68 H68        33.5674  -46.2123  -59.1068 H         1 UNK         0.0892 
     69 H69        32.0595  -45.2959  -59.1683 H         1 UNK         0.0892 
     70 H70        34.3560  -45.4878  -57.0810 H         1 UNK         0.3107 
     71 H71        32.6987  -45.3319  -54.7296 H         1 UNK         0.0773 
     72 H72        35.7563  -45.2560  -54.8030 H         1 UNK         0.0680 
     73 H73        34.7137  -44.6059  -53.5675 H         1 UNK         0.0680 
     74 H74        34.2309  -42.1067  -53.4246 H         1 UNK         0.0650 
     75 H75        33.8519  -41.0919  -54.7970 H         1 UNK         0.0650 
     76 H76        32.2955  -42.8727  -52.2826 H         1 UNK         0.1397 
     77 H77        28.7056  -43.8733  -54.4017 H         1 UNK         0.1363 
     78 H78        32.1100  -42.4003  -56.5425 H         1 UNK         0.1355 
     79 H79        30.3288  -43.6251  -57.6912 H         1 UNK         0.0707 
     80 H80        28.9344  -44.2272  -56.8488 H         1 UNK         0.0707 
     81 H81        27.0441  -40.6671  -56.2882 H         1 UNK         0.1034 
     82 H82        27.6799  -41.9267  -55.2991 H         1 UNK         0.1034 
     83 H83        25.3144  -42.2668  -55.8439 H         1 UNK         0.0482 
     84 H84        25.4841  -44.1093  -58.7272 H         1 UNK         0.3460 
     85 H85        24.7413  -42.9020  -59.7490 H         1 UNK         0.3460 
     86 H86        27.2069  -44.3396  -56.6101 H         1 UNK         0.2989 
     87 H87        26.1610  -46.5355  -54.9993 H         1 UNK         0.0559 
     88 H88        24.9342  -48.3931  -56.1397 H         1 UNK         0.0848 
     89 H89        24.1395  -47.2239  -57.1937 H         1 UNK         0.0848 
     90 H90        23.8323  -47.2075  -55.4631 H         1 UNK         0.0848 
     91 H91        27.6887  -47.1352  -56.4242 H         1 UNK         0.3144 
     92 H92        27.7087  -47.5898  -59.9101 H         1 UNK         0.0727 
     93 H93        29.7499  -46.3366  -60.2615 H         1 UNK         0.0790 
     94 H94        29.6500  -45.5968  -58.6694 H         1 UNK         0.0790 
     95 H95        28.4913  -45.1605  -59.9207 H         1 UNK         0.0790 
     96 H96        28.9878  -48.0590  -57.2907 H         1 UNK         0.3215 
     97 H97        30.0238  -51.2068  -58.4780 H         1 UNK         0.0863 
     98 H98        32.1996  -50.8769  -57.4478 H         1 UNK         0.0808 
     99 H99        31.9644  -49.1351  -57.3399 H         1 UNK         0.0808 
    100 H100       32.1533  -49.9067  -58.9122 H         1 UNK         0.0808 
    101 H101       30.2481  -49.9999  -55.8901 H         1 UNK         0.3118 
    102 H102       26.9619  -50.0580  -54.9134 H         1 UNK         0.0546 
    103 H103       27.0337  -52.5388  -54.8288 H         1 UNK         0.0828 
    104 H104       27.3520  -51.8649  -53.2411 H         1 UNK         0.0828 
    105 H105       28.6778  -52.5021  -54.2165 H         1 UNK         0.0828 
    106 H106       29.1748  -50.2079  -53.2127 H         1 UNK         0.3005 
    107 H107       30.8003  -47.4287  -53.5153 H         1 UNK         0.1257 
    108 H108       28.2212  -46.7356  -51.9997 H         1 UNK         0.0775 
    109 H109       28.8479  -45.8585  -53.3557 H         1 UNK         0.0775 
    110 H110       28.6798  -43.6841  -51.9480 H         1 UNK         0.0840 
    111 H111       30.0866  -43.1050  -51.0977 H         1 UNK         0.0840 
    112 H112       31.2663  -48.9203  -51.9683 H         1 UNK         0.2987 
    113 H113       30.8578  -49.8545  -49.4913 H         1 UNK         0.0785 
    114 H114       28.4493  -51.6915  -49.9684 H         1 UNK         0.0798 
    115 H115       28.6219  -50.5230  -48.6656 H         1 UNK         0.0798 
    116 H116       29.6824  -51.9196  -48.7282 H         1 UNK         0.0798 
    117 H117       30.4345  -52.0652  -51.4290 H         1 UNK         0.3079 
    118 H118       33.4129  -52.7402  -51.9902 H         1 UNK         0.0794 
    119 H119       31.1709  -53.5022  -52.6678 H         1 UNK         0.0786 
    120 H120       32.1834  -53.4082  -54.0919 H         1 UNK         0.0786 
    121 H121       30.9929  -52.1529  -53.7883 H         1 UNK         0.0786 
    122 H122       34.6523  -51.4415  -53.2717 H         1 UNK         0.3032 
    123 H123       35.2879  -49.4149  -54.0768 H         1 UNK         0.1094 
    124 H124       34.3995  -50.2967  -56.8797 H         1 UNK         0.0794 
    125 H125       36.0167  -49.7962  -56.3987 H         1 UNK         0.0794 
    126 H126       35.3400  -51.2898  -55.7782 H         1 UNK         0.0794 
    127 H127       34.2648  -47.9330  -56.2520 H         1 UNK         0.3016 
@<TRIPOS>BOND
     1    1    2 1    
     2    1   67 1    
     3    1   68 1    
     4    1   69 1    
     5    2    3 2    
     6    2    4 am   BACKBONE|DICT|INTERRES
     7    4    5 1    
     8    4   70 1    
     9    5    6 1    
    10    5   65 1    
    11    5   71 1    
    12    6    7 1    
    13    6   72 1    
    14    6   73 1    
    15    7    8 1    
    16    8    9 1    
    17    8   74 1    
    18    8   75 1    
    19    9   10 ar   
    20    9   14 ar   
    21   10   11 ar   
    22   10   76 1    
    23   11   12 ar   
    24   11   48 1    
    25   12   13 ar   
    26   12   77 1    
    27   13   14 ar   
    28   13   15 1    
    29   14   78 1    
    30   15   16 1    
    31   15   79 1    
    32   15   80 1    
    33   16   17 1    
    34   17   18 1    
    35   17   81 1    
    36   17   82 1    
    37   18   19 1    
    38   18   22 1    
    39   18   83 1    
    40   19   20 am   BACKBONE|DICT|INTERRES
    41   19   21 2    
    42   20   84 1    
    43   20   85 1    
    44   22   23 am   BACKBONE|DICT|INTERRES
    45   22   86 1    
    46   23   24 2    
    47   23   25 1    
    48   25   26 1    
    49   25   27 1    
    50   25   87 1    
    51   26   88 1    
    52   26   89 1    
    53   26   90 1    
    54   27   28 am   BACKBONE|DICT|INTERRES
    55   27   91 1    
    56   28   29 2    
    57   28   30 1    
    58   30   31 1    
    59   30   32 1    
    60   30   92 1    
    61   31   93 1    
    62   31   94 1    
    63   31   95 1    
    64   32   33 am   BACKBONE|DICT|INTERRES
    65   32   96 1    
    66   33   34 2    
    67   33   35 1    
    68   35   36 1    
    69   35   37 1    
    70   35   97 1    
    71   36   98 1    
    72   36   99 1    
    73   36  100 1    
    74   37   38 am   BACKBONE|DICT|INTERRES
    75   37  101 1    
    76   38   39 2    
    77   38   40 1    
    78   40   41 1    
    79   40   42 1    
    80   40  102 1    
    81   41  103 1    
    82   41  104 1    
    83   41  105 1    
    84   42   43 am   BACKBONE|DICT|INTERRES
    85   42  106 1    
    86   43   44 2    
    87   43   45 1    
    88   45   46 1    
    89   45   49 1    
    90   45  107 1    
    91   46   47 1    
    92   46  108 1    
    93   46  109 1    
    94   47   48 1    
    95   48  110 1    
    96   48  111 1    
    97   49   50 am   BACKBONE|DICT|INTERRES
    98   49  112 1    
    99   50   51 2    
   100   50   52 1    
   101   52   53 1    
   102   52   54 1    
   103   52  113 1    
   104   53  114 1    
   105   53  115 1    
   106   53  116 1    
   107   54   55 am   BACKBONE|DICT|INTERRES
   108   54  117 1    
   109   55   56 2    
   110   55   57 1    
   111   57   58 1    
   112   57   59 1    
   113   57  118 1    
   114   58  119 1    
   115   58  120 1    
   116   58  121 1    
   117   59   60 am   BACKBONE|DICT|INTERRES
   118   59  122 1    
   119   60   61 2    
   120   60   62 1    
   121   62   63 1    
   122   62   64 1    
   123   62  123 1    
   124   63  124 1    
   125   63  125 1    
   126   63  126 1    
   127   64   65 am   BACKBONE|DICT|INTERRES
   128   64  127 1    
   129   65   66 2    
@<TRIPOS>SUBSTRUCTURE
     1 UNK         1 GROUP             0       ****    0 ROOT    
