@<TRIPOS>MOLECULE
3R134
127   129    1
SMALL
USER_CHARGES


@<TRIPOS>ATOM
      1 CA         34.6689  -44.9854  -50.5219 C.3       0 UNK        -0.1968 
      2 C          34.9356  -45.2827  -51.9900 C.2       0 UNK         0.4852 
      3 O          36.0172  -44.9687  -52.4901 O.2       0 UNK        -0.5359 
      4 N          33.9563  -45.8787  -52.6823 N.am      1 UNK        -0.4300 
      5 CA         34.0633  -46.3060  -54.0811 C.3       1 UNK         0.0863 
      6 C6         32.6643  -46.4184  -54.7492 C.3       11 UNK        -0.0953 
      7 S7         32.6320  -45.7115  -56.4317 S.3       11 UNK        -0.2369 
      8 C8         32.6665  -43.9138  -56.1062 C.3       11 UNK         0.0226 
      9 C9         31.5195  -43.4699  -55.2115 C.ar      11 UNK        -0.0699 
     10 C10        31.7287  -43.2720  -53.8443 C.ar      11 UNK        -0.0804 
     11 C11        30.6600  -42.9593  -53.0007 C.ar      11 UNK        -0.0871 
     12 C12        29.3803  -42.7916  -53.5413 C.ar      11 UNK        -0.1008 
     13 C13        29.1646  -42.9743  -54.9111 C.ar      11 UNK        -0.0735 
     14 C14        30.2384  -43.3044  -55.7399 C.ar      11 UNK        -0.0945 
     15 C15        27.7675  -42.8746  -55.4985 C.3       11 UNK         0.0169 
     16 S16        26.8512  -44.4112  -55.1823 S.3       11 UNK        -0.2669 
     17 C17        25.6560  -44.4462  -56.5576 C.3       11 UNK        -0.0850 
     18 CA         25.8556  -45.7068  -57.4461 C.3       10 UNK         0.0855 
     19 C          24.6504  -45.9898  -58.3967 C.2       10 UNK         0.5543 
     20 N          24.8451  -46.6292  -59.5449 N.am      10 UNK        -0.7343 
     21 O          23.5114  -45.6569  -58.0786 O.2       10 UNK        -0.5027 
     22 N          27.1751  -45.7623  -58.1009 N.am      10 UNK        -0.4495 
     23 C          27.6016  -44.9778  -59.1017 C.2       10 UNK         0.4903 
     24 O          27.0116  -43.9656  -59.4795 O.2       10 UNK        -0.4860 
     25 CA         28.8725  -45.4213  -59.8589 C.3       9 UNK         0.0227 
     26 CB         30.0911  -44.5803  -59.4520 C.3       9 UNK        -0.1964 
     27 N          29.2006  -46.8408  -59.6975 N.am      9 UNK        -0.4231 
     28 C          28.4361  -47.8704  -60.0856 C.2       9 UNK         0.5014 
     29 O          27.3830  -47.7464  -60.7130 O.2       9 UNK        -0.5270 
     30 CA         28.8792  -49.2746  -59.6343 C.3       8 UNK         0.0284 
     31 CB         30.3974  -49.3943  -59.3684 C.3       8 UNK        -0.1977 
     32 N          28.1080  -49.7299  -58.4684 N.am      8 UNK        -0.4342 
     33 C          27.9937  -49.1062  -57.2866 C.2       8 UNK         0.5039 
     34 O          28.5589  -48.0459  -57.0090 O.2       8 UNK        -0.5547 
     35 CA         27.0903  -49.7703  -56.2425 C.3       7 UNK         0.0281 
     36 CB         27.7462  -51.0325  -55.6534 C.3       7 UNK        -0.1963 
     37 N          26.8387  -48.8162  -55.1661 N.am      7 UNK        -0.4444 
     38 C          25.7404  -48.7812  -54.3997 C.2       7 UNK         0.5104 
     39 O          24.7829  -49.5381  -54.5670 O.2       7 UNK        -0.5100 
     40 CA         25.7038  -47.7650  -53.2401 C.3       6 UNK         0.0396 
     41 CB         24.9595  -48.3254  -52.0087 C.3       6 UNK        -0.1801 
     42 N          27.0559  -47.3456  -52.8736 N.am      6 UNK        -0.4747 
     43 C          27.4091  -46.2921  -52.1299 C.2       6 UNK         0.5012 
     44 O          26.5902  -45.5452  -51.5911 O.2       6 UNK        -0.5003 
     45 CA         28.9308  -46.0369  -51.9559 C.3       5 UNK         0.0782 
     46 C46        29.2230  -45.0339  -50.8070 C.3       11 UNK        -0.0868 
     47 S47        30.9702  -44.5130  -50.7377 S.3       11 UNK        -0.2515 
     48 C48        30.8918  -42.8582  -51.5015 C.3       11 UNK         0.0199 
     49 N          29.7108  -47.2807  -51.8116 N.am      5 UNK        -0.4607 
     50 C          29.9993  -48.1315  -52.8032 C.2       4 UNK         0.5031 
     51 O          29.6150  -47.9713  -53.9635 O.2       4 UNK        -0.5119 
     52 CA         30.7759  -49.4020  -52.4445 C.3       4 UNK         0.0263 
     53 CB         29.8516  -50.4175  -51.7438 C.3       4 UNK        -0.1967 
     54 N          31.2909  -49.9568  -53.6928 N.am      4 UNK        -0.4237 
     55 C          32.2142  -50.9141  -53.8313 C.2       3 UNK         0.4908 
     56 O          32.7481  -51.4974  -52.8877 O.2       3 UNK        -0.5102 
     57 CA         32.6365  -51.2557  -55.2695 C.3       3 UNK         0.0241 
     58 CB         31.4659  -51.2303  -56.2721 C.3       3 UNK        -0.1971 
     59 N          33.6604  -50.3039  -55.6906 N.am      3 UNK        -0.4139 
     60 C          34.9801  -50.4758  -55.5356 C.2       2 UNK         0.5016 
     61 O          35.5059  -51.5309  -55.1790 O.2       2 UNK        -0.5319 
     62 CA         35.8656  -49.2440  -55.8033 C.3       2 UNK         0.0286 
     63 CB         36.3037  -49.2018  -57.2761 C.3       2 UNK        -0.1963 
     64 N          35.2120  -47.9765  -55.4524 N.am      2 UNK        -0.4790 
     65 C          34.8547  -47.6236  -54.2087 C.2       1 UNK         0.5024 
     66 O          35.0860  -48.3125  -53.2119 O.2       1 UNK        -0.4888 
     67 H67        33.8082  -45.5382  -50.1462 H         1 UNK         0.0892 
     68 H68        35.5326  -45.2620  -49.9179 H         1 UNK         0.0892 
     69 H69        34.4796  -43.9215  -50.3824 H         1 UNK         0.0892 
     70 H70        33.1014  -46.1296  -52.2081 H         1 UNK         0.3107 
     71 H71        34.6471  -45.5429  -54.5998 H         1 UNK         0.0773 
     72 H72        31.8934  -45.9291  -54.1547 H         1 UNK         0.0680 
     73 H73        32.3248  -47.4531  -54.8161 H         1 UNK         0.0680 
     74 H74        32.6128  -43.3838  -57.0582 H         1 UNK         0.0650 
     75 H75        33.6249  -43.6423  -55.6620 H         1 UNK         0.0650 
     76 H76        32.7158  -43.4135  -53.4266 H         1 UNK         0.1397 
     77 H77        28.5441  -42.5617  -52.8951 H         1 UNK         0.1363 
     78 H78        30.0680  -43.4628  -56.7931 H         1 UNK         0.1355 
     79 H79        27.2303  -42.0308  -55.0631 H         1 UNK         0.0707 
     80 H80        27.8264  -42.6898  -56.5725 H         1 UNK         0.0707 
     81 H81        24.6617  -44.4434  -56.1079 H         1 UNK         0.1034 
     82 H82        25.7162  -43.5349  -57.1538 H         1 UNK         0.1034 
     83 H83        25.8488  -46.5649  -56.7738 H         1 UNK         0.0482 
     84 H84        25.7711  -46.9252  -59.8344 H         1 UNK         0.3460 
     85 H85        24.0547  -46.8129  -60.1419 H         1 UNK         0.3460 
     86 H86        27.7587  -46.5479  -57.8215 H         1 UNK         0.2989 
     87 H87        28.6816  -45.2470  -60.9194 H         1 UNK         0.0559 
     88 H88        30.4503  -44.8548  -58.4616 H         1 UNK         0.0848 
     89 H89        29.8560  -43.5152  -59.4399 H         1 UNK         0.0848 
     90 H90        30.9154  -44.7205  -60.1508 H         1 UNK         0.0848 
     91 H91        30.0033  -47.0539  -59.1229 H         1 UNK         0.3144 
     92 H92        28.6364  -49.9496  -60.4559 H         1 UNK         0.0727 
     93 H93        30.6782  -50.4336  -59.2008 H         1 UNK         0.0790 
     94 H94        30.7182  -48.8250  -58.4960 H         1 UNK         0.0790 
     95 H95        30.9755  -49.0438  -60.2245 H         1 UNK         0.0790 
     96 H96        27.5762  -50.5776  -58.6106 H         1 UNK         0.3215 
     97 H97        26.1497  -50.0337  -56.7310 H         1 UNK         0.0863 
     98 H98        27.0758  -51.5367  -54.9574 H         1 UNK         0.0808 
     99 H99        28.6609  -50.7890  -55.1126 H         1 UNK         0.0808 
    100 H100       28.0029  -51.7524  -56.4312 H         1 UNK         0.0808 
    101 H101       27.5696  -48.1173  -55.0727 H         1 UNK         0.3118 
    102 H102       25.1655  -46.8894  -53.6080 H         1 UNK         0.0546 
    103 H103       25.4607  -49.2067  -51.6074 H         1 UNK         0.0828 
    104 H104       23.9392  -48.6156  -52.2619 H         1 UNK         0.0828 
    105 H105       24.8863  -47.5891  -51.2089 H         1 UNK         0.0828 
    106 H106       27.8149  -47.8797  -53.2852 H         1 UNK         0.3005 
    107 H107       29.2447  -45.5625  -52.8892 H         1 UNK         0.1257 
    108 H108       28.9600  -45.4760  -49.8445 H         1 UNK         0.0775 
    109 H109       28.6053  -44.1392  -50.9008 H         1 UNK         0.0775 
    110 H110       30.1135  -42.2612  -51.0235 H         1 UNK         0.0840 
    111 H111       31.8319  -42.3378  -51.3121 H         1 UNK         0.0840 
    112 H112       30.0260  -47.4919  -50.8759 H         1 UNK         0.2987 
    113 H113       31.6137  -49.1378  -51.7961 H         1 UNK         0.0785 
    114 H114       30.3880  -51.3261  -51.4705 H         1 UNK         0.0798 
    115 H115       29.0139  -50.7046  -52.3810 H         1 UNK         0.0798 
    116 H116       29.4356  -50.0050  -50.8239 H         1 UNK         0.0798 
    117 H117       30.8990  -49.5039  -54.5108 H         1 UNK         0.3079 
    118 H118       33.0465  -52.2680  -55.2631 H         1 UNK         0.0794 
    119 H119       30.6726  -51.9091  -55.9584 H         1 UNK         0.0786 
    120 H120       31.7949  -51.5610  -57.2571 H         1 UNK         0.0786 
    121 H121       31.0297  -50.2378  -56.3888 H         1 UNK         0.0786 
    122 H122       33.3414  -49.3934  -55.9857 H         1 UNK         0.3032 
    123 H123       36.7580  -49.3448  -55.1813 H         1 UNK         0.1094 
    124 H124       36.9987  -48.3824  -57.4604 H         1 UNK         0.0794 
    125 H125       36.8128  -50.1248  -57.5572 H         1 UNK         0.0794 
    126 H126       35.4539  -49.0806  -57.9489 H         1 UNK         0.0794 
    127 H127       34.9807  -47.3559  -56.2166 H         1 UNK         0.3016 
@<TRIPOS>BOND
     1    1    2 1    
     2    1   67 1    
     3    1   68 1    
     4    1   69 1    
     5    2    3 2    
     6    2    4 am   BACKBONE|DICT|INTERRES
     7    4    5 1    
     8    4   70 1    
     9    5    6 1    
    10    5   65 1    
    11    5   71 1    
    12    6    7 1    
    13    6   72 1    
    14    6   73 1    
    15    7    8 1    
    16    8    9 1    
    17    8   74 1    
    18    8   75 1    
    19    9   10 ar   
    20    9   14 ar   
    21   10   11 ar   
    22   10   76 1    
    23   11   12 ar   
    24   11   48 1    
    25   12   13 ar   
    26   12   77 1    
    27   13   14 ar   
    28   13   15 1    
    29   14   78 1    
    30   15   16 1    
    31   15   79 1    
    32   15   80 1    
    33   16   17 1    
    34   17   18 1    
    35   17   81 1    
    36   17   82 1    
    37   18   19 1    
    38   18   22 1    
    39   18   83 1    
    40   19   20 am   BACKBONE|DICT|INTERRES
    41   19   21 2    
    42   20   84 1    
    43   20   85 1    
    44   22   23 am   BACKBONE|DICT|INTERRES
    45   22   86 1    
    46   23   24 2    
    47   23   25 1    
    48   25   26 1    
    49   25   27 1    
    50   25   87 1    
    51   26   88 1    
    52   26   89 1    
    53   26   90 1    
    54   27   28 am   BACKBONE|DICT|INTERRES
    55   27   91 1    
    56   28   29 2    
    57   28   30 1    
    58   30   31 1    
    59   30   32 1    
    60   30   92 1    
    61   31   93 1    
    62   31   94 1    
    63   31   95 1    
    64   32   33 am   BACKBONE|DICT|INTERRES
    65   32   96 1    
    66   33   34 2    
    67   33   35 1    
    68   35   36 1    
    69   35   37 1    
    70   35   97 1    
    71   36   98 1    
    72   36   99 1    
    73   36  100 1    
    74   37   38 am   BACKBONE|DICT|INTERRES
    75   37  101 1    
    76   38   39 2    
    77   38   40 1    
    78   40   41 1    
    79   40   42 1    
    80   40  102 1    
    81   41  103 1    
    82   41  104 1    
    83   41  105 1    
    84   42   43 am   BACKBONE|DICT|INTERRES
    85   42  106 1    
    86   43   44 2    
    87   43   45 1    
    88   45   46 1    
    89   45   49 1    
    90   45  107 1    
    91   46   47 1    
    92   46  108 1    
    93   46  109 1    
    94   47   48 1    
    95   48  110 1    
    96   48  111 1    
    97   49   50 am   BACKBONE|DICT|INTERRES
    98   49  112 1    
    99   50   51 2    
   100   50   52 1    
   101   52   53 1    
   102   52   54 1    
   103   52  113 1    
   104   53  114 1    
   105   53  115 1    
   106   53  116 1    
   107   54   55 am   BACKBONE|DICT|INTERRES
   108   54  117 1    
   109   55   56 2    
   110   55   57 1    
   111   57   58 1    
   112   57   59 1    
   113   57  118 1    
   114   58  119 1    
   115   58  120 1    
   116   58  121 1    
   117   59   60 am   BACKBONE|DICT|INTERRES
   118   59  122 1    
   119   60   61 2    
   120   60   62 1    
   121   62   63 1    
   122   62   64 1    
   123   62  123 1    
   124   63  124 1    
   125   63  125 1    
   126   63  126 1    
   127   64   65 am   BACKBONE|DICT|INTERRES
   128   64  127 1    
   129   65   66 2    
@<TRIPOS>SUBSTRUCTURE
     1 UNK         1 GROUP             0       ****    0 ROOT    
