@<TRIPOS>MOLECULE
3R134
127   129    1
SMALL
USER_CHARGES


@<TRIPOS>ATOM
      1 CA         37.6859  -44.9962  -48.7013 C.3       0 UNK        -0.1968 
      2 C          36.6592  -45.4335  -49.7353 C.2       0 UNK         0.4852 
      3 O          37.0181  -46.0846  -50.7188 O.2       0 UNK        -0.5359 
      4 N          35.3810  -45.0920  -49.5219 N.am      1 UNK        -0.4300 
      5 CA         34.2514  -45.4338  -50.3928 C.3       1 UNK         0.0863 
      6 C6         33.1018  -44.4036  -50.2392 C.3       11 UNK        -0.0953 
      7 S7         31.8836  -44.5162  -51.5899 S.3       11 UNK        -0.2369 
      8 C8         32.5129  -43.2821  -52.7658 C.3       11 UNK         0.0226 
      9 C9         31.8425  -43.4369  -54.1232 C.ar      11 UNK        -0.0699 
     10 C10        32.5395  -43.9977  -55.1964 C.ar      11 UNK        -0.0804 
     11 C11        31.9262  -44.1392  -56.4445 C.ar      11 UNK        -0.0871 
     12 C12        30.6001  -43.7299  -56.6113 C.ar      11 UNK        -0.1008 
     13 C13        29.8853  -43.1641  -55.5444 C.ar      11 UNK        -0.0735 
     14 C14        30.5217  -43.0190  -54.3073 C.ar      11 UNK        -0.0945 
     15 C15        28.4248  -42.7181  -55.6513 C.3       11 UNK         0.0169 
     16 S16        27.6760  -42.8325  -57.3127 S.3       11 UNK        -0.2669 
     17 C17        25.9072  -42.9703  -56.8790 C.3       11 UNK        -0.0850 
     18 CA         25.4745  -44.4453  -56.6158 C.3       10 UNK         0.0855 
     19 C          24.0000  -44.5946  -56.1271 C.2       10 UNK         0.5543 
     20 N          23.5123  -43.6879  -55.2895 N.am      10 UNK        -0.7343 
     21 O          23.2972  -45.5478  -56.4579 O.2       10 UNK        -0.5027 
     22 N          25.8306  -45.3407  -57.7283 N.am      10 UNK        -0.4495 
     23 C          25.3113  -45.3247  -58.9628 C.2       10 UNK         0.4903 
     24 O          24.4248  -44.5539  -59.3334 O.2       10 UNK        -0.4860 
     25 CA         25.8883  -46.3302  -59.9686 C.3       9 UNK         0.0227 
     26 CB         27.1497  -45.7530  -60.6345 C.3       9 UNK        -0.1964 
     27 N          26.2168  -47.6086  -59.3302 N.am      9 UNK        -0.4231 
     28 C          25.6060  -48.7709  -59.5949 C.2       9 UNK         0.5014 
     29 O          24.6871  -48.8968  -60.4062 O.2       9 UNK        -0.5270 
     30 CA         26.1123  -50.0202  -58.8546 C.3       8 UNK         0.0284 
     31 CB         27.3114  -50.6377  -59.5929 C.3       8 UNK        -0.1977 
     32 N          26.4701  -49.7860  -57.4540 N.am      8 UNK        -0.4342 
     33 C          25.5835  -49.5706  -56.4712 C.2       8 UNK         0.5039 
     34 O          24.3708  -49.4631  -56.6544 O.2       8 UNK        -0.5547 
     35 CA         26.1338  -49.4921  -55.0394 C.3       7 UNK         0.0281 
     36 CB         26.4383  -50.9002  -54.5004 C.3       7 UNK        -0.1963 
     37 N          27.3478  -48.6799  -54.9848 N.am      7 UNK        -0.4444 
     38 C          27.3965  -47.4103  -54.5605 C.2       7 UNK         0.5104 
     39 O          26.4355  -46.8101  -54.0794 O.2       7 UNK        -0.5100 
     40 CA         28.7401  -46.6703  -54.7020 C.3       6 UNK         0.0396 
     41 CB         29.4974  -46.6718  -53.3689 C.3       6 UNK        -0.1801 
     42 N          29.6158  -47.2139  -55.7412 N.am      6 UNK        -0.4747 
     43 C          29.3332  -47.2224  -57.0514 C.2       6 UNK         0.5012 
     44 O          28.2930  -46.7676  -57.5270 O.2       6 UNK        -0.5003 
     45 CA         30.3222  -47.9491  -57.9839 C.3       5 UNK         0.0782 
     46 C46        31.3198  -46.9687  -58.6512 C.3       11 UNK        -0.0868 
     47 S47        32.7513  -46.5215  -57.6062 S.3       11 UNK        -0.2515 
     48 C48        32.7155  -44.7027  -57.6167 C.3       11 UNK         0.0199 
     49 N          30.9882  -49.0944  -57.3493 N.am      5 UNK        -0.4607 
     50 C          30.3707  -50.1381  -56.7789 C.2       4 UNK         0.5031 
     51 O          29.1469  -50.2770  -56.7667 O.2       4 UNK        -0.5119 
     52 CA         31.2470  -51.1843  -56.0705 C.3       4 UNK         0.0263 
     53 CB         31.4490  -52.4068  -56.9794 C.3       4 UNK        -0.1967 
     54 N          32.5547  -50.6887  -55.6224 N.am      4 UNK        -0.4237 
     55 C          32.7477  -49.7370  -54.6977 C.2       3 UNK         0.4908 
     56 O          31.8379  -49.0930  -54.1702 O.2       3 UNK        -0.5102 
     57 CA         34.2125  -49.4299  -54.3431 C.3       3 UNK         0.0241 
     58 CB         34.7596  -48.2991  -55.2272 C.3       3 UNK        -0.1971 
     59 N          34.3767  -49.0486  -52.9405 N.am      3 UNK        -0.4139 
     60 C          34.2598  -49.8760  -51.8924 C.2       2 UNK         0.5016 
     61 O          33.9997  -51.0758  -51.9982 O.2       2 UNK        -0.5319 
     62 CA         34.5074  -49.2836  -50.4915 C.3       2 UNK         0.0286 
     63 CB         35.7382  -49.9367  -49.8384 C.3       2 UNK        -0.1963 
     64 N          34.7193  -47.8330  -50.5288 N.am      2 UNK        -0.4790 
     65 C          33.8179  -46.9059  -50.1848 C.2       1 UNK         0.5024 
     66 O          32.7141  -47.1767  -49.7089 O.2       1 UNK        -0.4888 
     67 H67        37.2315  -44.4295  -47.8890 H         1 UNK         0.0892 
     68 H68        38.1800  -45.8676  -48.2724 H         1 UNK         0.0892 
     69 H69        38.4448  -44.3695  -49.1689 H         1 UNK         0.0892 
     70 H70        35.1420  -44.5874  -48.6797 H         1 UNK         0.3107 
     71 H71        34.6042  -45.3591  -51.4242 H         1 UNK         0.0773 
     72 H72        32.5855  -44.5299  -49.2858 H         1 UNK         0.0680 
     73 H73        33.5028  -43.3886  -50.2280 H         1 UNK         0.0680 
     74 H74        33.5945  -43.3895  -52.8608 H         1 UNK         0.0650 
     75 H75        32.3314  -42.2806  -52.3732 H         1 UNK         0.0650 
     76 H76        33.5630  -44.3212  -55.0642 H         1 UNK         0.1397 
     77 H77        30.1368  -43.8596  -57.5784 H         1 UNK         0.1363 
     78 H78        29.9813  -42.5919  -53.4731 H         1 UNK         0.1355 
     79 H79        28.3400  -41.6851  -55.3107 H         1 UNK         0.0707 
     80 H80        27.8395  -43.3209  -54.9561 H         1 UNK         0.0707 
     81 H81        25.7203  -42.3380  -56.0102 H         1 UNK         0.1034 
     82 H82        25.3187  -42.5423  -57.6921 H         1 UNK         0.1034 
     83 H83        26.0701  -44.8070  -55.7791 H         1 UNK         0.0482 
     84 H84        22.5655  -43.7934  -54.9597 H         1 UNK         0.3460 
     85 H85        24.0672  -42.9117  -54.9675 H         1 UNK         0.3460 
     86 H86        26.6133  -45.9602  -57.5452 H         1 UNK         0.2989 
     87 H87        25.1381  -46.4737  -60.7489 H         1 UNK         0.0559 
     88 H88        27.9371  -45.5472  -59.9084 H         1 UNK         0.0848 
     89 H89        26.9254  -44.8141  -61.1425 H         1 UNK         0.0848 
     90 H90        27.5522  -46.4374  -61.3812 H         1 UNK         0.0848 
     91 H91        26.9505  -47.5828  -58.6292 H         1 UNK         0.3144 
     92 H92        25.3035  -50.7543  -58.8683 H         1 UNK         0.0727 
     93 H93        28.1666  -49.9630  -59.6148 H         1 UNK         0.0790 
     94 H94        27.0543  -50.8709  -60.6271 H         1 UNK         0.0790 
     95 H95        27.6317  -51.5673  -59.1217 H         1 UNK         0.0790 
     96 H96        27.4494  -49.9224  -57.2074 H         1 UNK         0.3215 
     97 H97        25.3567  -49.0540  -54.4089 H         1 UNK         0.0863 
     98 H98        26.7734  -50.8614  -53.4638 H         1 UNK         0.0808 
     99 H99        27.2118  -51.4028  -55.0825 H         1 UNK         0.0808 
    100 H100       25.5476  -51.5292  -54.5293 H         1 UNK         0.0808 
    101 H101       28.1843  -49.0855  -55.3883 H         1 UNK         0.3118 
    102 H102       28.5179  -45.6372  -54.9702 H         1 UNK         0.0546 
    103 H103       28.9284  -46.1595  -52.5922 H         1 UNK         0.0828 
    104 H104       30.4528  -46.1585  -53.4674 H         1 UNK         0.0828 
    105 H105       29.6993  -47.6846  -53.0179 H         1 UNK         0.0828 
    106 H106       30.4787  -47.6431  -55.4287 H         1 UNK         0.3005 
    107 H107       29.7081  -48.3638  -58.7852 H         1 UNK         0.1257 
    108 H108       30.8064  -46.0700  -58.9990 H         1 UNK         0.0775 
    109 H109       31.7220  -47.4336  -59.5526 H         1 UNK         0.0775 
    110 H110       33.7430  -44.3396  -57.5631 H         1 UNK         0.0840 
    111 H111       32.3231  -44.3343  -58.5657 H         1 UNK         0.0840 
    112 H112       31.9948  -49.0401  -57.2953 H         1 UNK         0.2987 
    113 H113       30.6987  -51.5068  -55.1827 H         1 UNK         0.0785 
    114 H114       30.4904  -52.8128  -57.3065 H         1 UNK         0.0798 
    115 H115       31.9750  -53.2072  -56.4588 H         1 UNK         0.0798 
    116 H116       32.0184  -52.1552  -57.8751 H         1 UNK         0.0798 
    117 H117       33.3637  -51.1479  -56.0166 H         1 UNK         0.3079 
    118 H118       34.8102  -50.3273  -54.5175 H         1 UNK         0.0794 
    119 H119       34.2095  -47.3691  -55.0759 H         1 UNK         0.0786 
    120 H120       34.6858  -48.5560  -56.2846 H         1 UNK         0.0786 
    121 H121       35.8114  -48.1036  -55.0176 H         1 UNK         0.0786 
    122 H122       34.5491  -48.0731  -52.7528 H         1 UNK         0.3032 
    123 H123       33.6308  -49.5235  -49.8853 H         1 UNK         0.1094 
    124 H124       36.6463  -49.7528  -50.4140 H         1 UNK         0.0794 
    125 H125       35.8984  -49.5570  -48.8291 H         1 UNK         0.0794 
    126 H126       35.6142  -51.0178  -49.7596 H         1 UNK         0.0794 
    127 H127       35.6334  -47.5041  -50.8306 H         1 UNK         0.3016 
@<TRIPOS>BOND
     1    1    2 1    
     2    1   67 1    
     3    1   68 1    
     4    1   69 1    
     5    2    3 2    
     6    2    4 am   BACKBONE|DICT|INTERRES
     7    4    5 1    
     8    4   70 1    
     9    5    6 1    
    10    5   65 1    
    11    5   71 1    
    12    6    7 1    
    13    6   72 1    
    14    6   73 1    
    15    7    8 1    
    16    8    9 1    
    17    8   74 1    
    18    8   75 1    
    19    9   10 ar   
    20    9   14 ar   
    21   10   11 ar   
    22   10   76 1    
    23   11   12 ar   
    24   11   48 1    
    25   12   13 ar   
    26   12   77 1    
    27   13   14 ar   
    28   13   15 1    
    29   14   78 1    
    30   15   16 1    
    31   15   79 1    
    32   15   80 1    
    33   16   17 1    
    34   17   18 1    
    35   17   81 1    
    36   17   82 1    
    37   18   19 1    
    38   18   22 1    
    39   18   83 1    
    40   19   20 am   BACKBONE|DICT|INTERRES
    41   19   21 2    
    42   20   84 1    
    43   20   85 1    
    44   22   23 am   BACKBONE|DICT|INTERRES
    45   22   86 1    
    46   23   24 2    
    47   23   25 1    
    48   25   26 1    
    49   25   27 1    
    50   25   87 1    
    51   26   88 1    
    52   26   89 1    
    53   26   90 1    
    54   27   28 am   BACKBONE|DICT|INTERRES
    55   27   91 1    
    56   28   29 2    
    57   28   30 1    
    58   30   31 1    
    59   30   32 1    
    60   30   92 1    
    61   31   93 1    
    62   31   94 1    
    63   31   95 1    
    64   32   33 am   BACKBONE|DICT|INTERRES
    65   32   96 1    
    66   33   34 2    
    67   33   35 1    
    68   35   36 1    
    69   35   37 1    
    70   35   97 1    
    71   36   98 1    
    72   36   99 1    
    73   36  100 1    
    74   37   38 am   BACKBONE|DICT|INTERRES
    75   37  101 1    
    76   38   39 2    
    77   38   40 1    
    78   40   41 1    
    79   40   42 1    
    80   40  102 1    
    81   41  103 1    
    82   41  104 1    
    83   41  105 1    
    84   42   43 am   BACKBONE|DICT|INTERRES
    85   42  106 1    
    86   43   44 2    
    87   43   45 1    
    88   45   46 1    
    89   45   49 1    
    90   45  107 1    
    91   46   47 1    
    92   46  108 1    
    93   46  109 1    
    94   47   48 1    
    95   48  110 1    
    96   48  111 1    
    97   49   50 am   BACKBONE|DICT|INTERRES
    98   49  112 1    
    99   50   51 2    
   100   50   52 1    
   101   52   53 1    
   102   52   54 1    
   103   52  113 1    
   104   53  114 1    
   105   53  115 1    
   106   53  116 1    
   107   54   55 am   BACKBONE|DICT|INTERRES
   108   54  117 1    
   109   55   56 2    
   110   55   57 1    
   111   57   58 1    
   112   57   59 1    
   113   57  118 1    
   114   58  119 1    
   115   58  120 1    
   116   58  121 1    
   117   59   60 am   BACKBONE|DICT|INTERRES
   118   59  122 1    
   119   60   61 2    
   120   60   62 1    
   121   62   63 1    
   122   62   64 1    
   123   62  123 1    
   124   63  124 1    
   125   63  125 1    
   126   63  126 1    
   127   64   65 am   BACKBONE|DICT|INTERRES
   128   64  127 1    
   129   65   66 2    
@<TRIPOS>SUBSTRUCTURE
     1 UNK         1 GROUP             0       ****    0 ROOT    
