@<TRIPOS>MOLECULE
3R134
127   129    1
SMALL
USER_CHARGES


@<TRIPOS>ATOM
      1 CA         38.6690  -48.4210  -54.6125 C.3       0 UNK        -0.1968 
      2 C          37.1843  -48.2455  -54.3352 C.2       0 UNK         0.4852 
      3 O          36.5866  -49.0904  -53.6654 O.2       0 UNK        -0.5359 
      4 N          36.5881  -47.1472  -54.8258 N.am      1 UNK        -0.4300 
      5 CA         35.1578  -46.8225  -54.7082 C.3       1 UNK         0.0863 
      6 C6         34.7934  -45.5495  -55.5164 C.3       11 UNK        -0.0953 
      7 S7         33.0218  -45.4747  -55.9567 S.3       11 UNK        -0.2369 
      8 C8         32.4133  -44.1650  -54.8462 C.3       11 UNK         0.0226 
      9 C9         31.0265  -44.5049  -54.3254 C.ar      11 UNK        -0.0699 
     10 C10        30.8808  -45.1117  -53.0748 C.ar      11 UNK        -0.0804 
     11 C11        29.6204  -45.4943  -52.6110 C.ar      11 UNK        -0.0871 
     12 C12        28.4930  -45.2253  -53.3927 C.ar      11 UNK        -0.1008 
     13 C13        28.6217  -44.5913  -54.6322 C.ar      11 UNK        -0.0735 
     14 C14        29.8917  -44.2351  -55.0965 C.ar      11 UNK        -0.0945 
     15 C15        27.3863  -44.3237  -55.4753 C.3       11 UNK         0.0169 
     16 S16        26.5944  -42.7531  -55.0134 S.3       11 UNK        -0.2669 
     17 C17        24.9081  -42.7653  -55.7420 C.3       11 UNK        -0.0850 
     18 CA         24.3892  -44.0625  -56.4400 C.3       10 UNK         0.0855 
     19 C          22.8465  -44.0581  -56.6681 C.2       10 UNK         0.5543 
     20 N          22.2901  -45.1187  -57.2382 N.am      10 UNK        -0.7343 
     21 O          22.1467  -43.1053  -56.3310 O.2       10 UNK        -0.5027 
     22 N          25.1299  -44.4083  -57.6663 N.am      10 UNK        -0.4495 
     23 C          25.1156  -43.7279  -58.8227 C.2       10 UNK         0.4903 
     24 O          24.5413  -42.6518  -58.9895 O.2       10 UNK        -0.4860 
     25 CA         25.8550  -44.3678  -60.0084 C.3       9 UNK         0.0227 
     26 CB         27.3449  -43.9863  -59.9899 C.3       9 UNK        -0.1964 
     27 N          25.7145  -45.8258  -59.9962 N.am      9 UNK        -0.4231 
     28 C          24.6910  -46.4964  -60.5455 C.2       9 UNK         0.5014 
     29 O          23.8059  -45.9631  -61.2161 O.2       9 UNK        -0.5270 
     30 CA         24.6332  -48.0206  -60.3171 C.3       8 UNK         0.0284 
     31 CB         25.3114  -48.7627  -61.4802 C.3       8 UNK        -0.1977 
     32 N          25.2342  -48.4544  -59.0526 N.am      8 UNK        -0.4342 
     33 C          24.7536  -48.1625  -57.8359 C.2       8 UNK         0.5039 
     34 O          23.7051  -47.5467  -57.6458 O.2       8 UNK        -0.5547 
     35 CA         25.6104  -48.5756  -56.6227 C.3       7 UNK         0.0281 
     36 CB         25.1745  -49.9537  -56.1016 C.3       7 UNK        -0.1963 
     37 N          27.0621  -48.5810  -56.8553 N.am      7 UNK        -0.4444 
     38 C          27.7804  -47.5615  -57.3425 C.2       7 UNK         0.5104 
     39 O          27.2778  -46.5042  -57.7220 O.2       7 UNK        -0.5100 
     40 CA         29.3034  -47.7587  -57.4156 C.3       6 UNK         0.0396 
     41 CB         29.9967  -46.6465  -58.2239 C.3       6 UNK        -0.1801 
     42 N          29.8971  -47.8092  -56.0806 N.am      6 UNK        -0.4747 
     43 C          29.8788  -48.8698  -55.2633 C.2       6 UNK         0.5012 
     44 O          29.3167  -49.9349  -55.5332 O.2       6 UNK        -0.5003 
     45 CA         30.5948  -48.7029  -53.9092 C.3       5 UNK         0.0782 
     46 C46        29.5642  -48.6373  -52.7539 C.3       11 UNK        -0.0868 
     47 S47        30.2850  -47.8572  -51.2714 S.3       11 UNK        -0.2515 
     48 C48        29.4792  -46.2169  -51.2758 C.3       11 UNK         0.0199 
     49 N          31.5988  -49.7492  -53.6801 N.am      5 UNK        -0.4607 
     50 C          32.6209  -50.0470  -54.4933 C.2       4 UNK         0.5031 
     51 O          32.8475  -49.4717  -55.5586 O.2       4 UNK        -0.5119 
     52 CA         33.5671  -51.1571  -54.0120 C.3       4 UNK         0.0263 
     53 CB         34.5034  -51.6586  -55.1278 C.3       4 UNK        -0.1967 
     54 N          34.3847  -50.6651  -52.9060 N.am      4 UNK        -0.4237 
     55 C          34.0813  -50.7883  -51.6076 C.2       3 UNK         0.4908 
     56 O          33.0523  -51.3241  -51.1942 O.2       3 UNK        -0.5102 
     57 CA         35.0921  -50.2155  -50.6045 C.3       3 UNK         0.0241 
     58 CB         36.3845  -51.0504  -50.5884 C.3       3 UNK        -0.1971 
     59 N          35.4103  -48.8289  -50.9410 N.am      3 UNK        -0.4139 
     60 C          34.9604  -47.7561  -50.2750 C.2       2 UNK         0.5016 
     61 O          34.3129  -47.8183  -49.2289 O.2       2 UNK        -0.5319 
     62 CA         35.2809  -46.3679  -50.8680 C.3       2 UNK         0.0286 
     63 CB         36.4781  -45.7351  -50.1403 C.3       2 UNK        -0.1963 
     64 N          35.5492  -46.3781  -52.3103 N.am      2 UNK        -0.4790 
     65 C          34.6598  -46.7390  -53.2477 C.2       1 UNK         0.5024 
     66 O          33.5007  -47.0480  -52.9853 O.2       1 UNK        -0.4888 
     67 H67        38.8390  -49.3486  -55.1581 H         1 UNK         0.0892 
     68 H68        39.0750  -47.6000  -55.2030 H         1 UNK         0.0892 
     69 H69        39.2213  -48.4714  -53.6746 H         1 UNK         0.0892 
     70 H70        37.1410  -46.4885  -55.3560 H         1 UNK         0.3107 
     71 H71        34.6360  -47.6649  -55.1635 H         1 UNK         0.0773 
     72 H72        35.1057  -44.6419  -54.9968 H         1 UNK         0.0680 
     73 H73        35.3376  -45.5469  -56.4621 H         1 UNK         0.0680 
     74 H74        32.3951  -43.2157  -55.3833 H         1 UNK         0.0650 
     75 H75        33.0964  -44.0318  -54.0062 H         1 UNK         0.0650 
     76 H76        31.7525  -45.3211  -52.4711 H         1 UNK         0.1397 
     77 H77        27.5114  -45.5129  -53.0411 H         1 UNK         0.1363 
     78 H78        29.9990  -43.7594  -56.0618 H         1 UNK         0.1355 
     79 H79        27.6583  -44.2774  -56.5297 H         1 UNK         0.0707 
     80 H80        26.6982  -45.1591  -55.3538 H         1 UNK         0.0707 
     81 H81        24.8356  -41.9211  -56.4291 H         1 UNK         0.1034 
     82 H82        24.2429  -42.5104  -54.9149 H         1 UNK         0.1034 
     83 H83        24.5421  -44.8858  -55.7431 H         1 UNK         0.0482 
     84 H84        22.8462  -45.9408  -57.4695 H         1 UNK         0.3460 
     85 H85        21.2953  -45.1293  -57.3943 H         1 UNK         0.3460 
     86 H86        25.6623  -45.2697  -57.6335 H         1 UNK         0.2989 
     87 H87        25.4219  -43.9723  -60.9297 H         1 UNK         0.0559 
     88 H88        27.8428  -44.3178  -59.0787 H         1 UNK         0.0848 
     89 H89        27.4679  -42.9042  -60.0491 H         1 UNK         0.0848 
     90 H90        27.8758  -44.4194  -60.8376 H         1 UNK         0.0848 
     91 H91        26.3673  -46.3279  -59.4021 H         1 UNK         0.3144 
     92 H92        23.5793  -48.3068  -60.2986 H         1 UNK         0.0727 
     93 H93        25.2030  -49.8429  -61.3801 H         1 UNK         0.0790 
     94 H94        26.3764  -48.5343  -61.5401 H         1 UNK         0.0790 
     95 H95        24.8643  -48.4818  -62.4350 H         1 UNK         0.0790 
     96 H96        26.1007  -48.9695  -59.1093 H         1 UNK         0.3215 
     97 H97        25.4199  -47.8405  -55.8380 H         1 UNK         0.0863 
     98 H98        25.3800  -50.7426  -56.8262 H         1 UNK         0.0808 
     99 H99        24.1035  -49.9722  -55.8937 H         1 UNK         0.0808 
    100 H100       25.6868  -50.2079  -55.1734 H         1 UNK         0.0808 
    101 H101       27.5802  -49.3877  -56.5219 H         1 UNK         0.3118 
    102 H102       29.4914  -48.7063  -57.9244 H         1 UNK         0.0546 
    103 H103       31.0681  -46.8286  -58.3105 H         1 UNK         0.0828 
    104 H104       29.8610  -45.6665  -57.7655 H         1 UNK         0.0828 
    105 H105       29.5951  -46.5901  -59.2365 H         1 UNK         0.0828 
    106 H106       30.3538  -46.9625  -55.7686 H         1 UNK         0.3005 
    107 H107       31.1419  -47.7590  -53.9457 H         1 UNK         0.1257 
    108 H108       29.2134  -49.6373  -52.4927 H         1 UNK         0.0775 
    109 H109       28.6700  -48.0818  -53.0428 H         1 UNK         0.0775 
    110 H110       28.4276  -46.3417  -51.0127 H         1 UNK         0.0840 
    111 H111       29.9199  -45.6044  -50.4881 H         1 UNK         0.0840 
    112 H112       31.5243  -50.2497  -52.8052 H         1 UNK         0.2987 
    113 H113       32.9572  -52.0019  -53.6845 H         1 UNK         0.0785 
    114 H114       35.1300  -52.4793  -54.7785 H         1 UNK         0.0798 
    115 H115       33.9320  -52.0263  -55.9810 H         1 UNK         0.0798 
    116 H116       35.1618  -50.8677  -55.4903 H         1 UNK         0.0798 
    117 H117       35.2292  -50.1590  -53.1708 H         1 UNK         0.3079 
    118 H118       34.6431  -50.2751  -49.6107 H         1 UNK         0.0794 
    119 H119       37.0759  -50.6889  -49.8271 H         1 UNK         0.0786 
    120 H120       36.9025  -51.0220  -51.5481 H         1 UNK         0.0786 
    121 H121       36.1710  -52.0959  -50.3620 H         1 UNK         0.0786 
    122 H122       35.9082  -48.6816  -51.8130 H         1 UNK         0.3032 
    123 H123       34.4028  -45.7402  -50.6989 H         1 UNK         0.1094 
    124 H124       37.3924  -46.3104  -50.2914 H         1 UNK         0.0794 
    125 H125       36.6593  -44.7164  -50.4835 H         1 UNK         0.0794 
    126 H126       36.2990  -45.6850  -49.0652 H         1 UNK         0.0794 
    127 H127       36.4872  -46.1459  -52.6038 H         1 UNK         0.3016 
@<TRIPOS>BOND
     1    1    2 1    
     2    1   67 1    
     3    1   68 1    
     4    1   69 1    
     5    2    3 2    
     6    2    4 am   BACKBONE|DICT|INTERRES
     7    4    5 1    
     8    4   70 1    
     9    5    6 1    
    10    5   65 1    
    11    5   71 1    
    12    6    7 1    
    13    6   72 1    
    14    6   73 1    
    15    7    8 1    
    16    8    9 1    
    17    8   74 1    
    18    8   75 1    
    19    9   10 ar   
    20    9   14 ar   
    21   10   11 ar   
    22   10   76 1    
    23   11   12 ar   
    24   11   48 1    
    25   12   13 ar   
    26   12   77 1    
    27   13   14 ar   
    28   13   15 1    
    29   14   78 1    
    30   15   16 1    
    31   15   79 1    
    32   15   80 1    
    33   16   17 1    
    34   17   18 1    
    35   17   81 1    
    36   17   82 1    
    37   18   19 1    
    38   18   22 1    
    39   18   83 1    
    40   19   20 am   BACKBONE|DICT|INTERRES
    41   19   21 2    
    42   20   84 1    
    43   20   85 1    
    44   22   23 am   BACKBONE|DICT|INTERRES
    45   22   86 1    
    46   23   24 2    
    47   23   25 1    
    48   25   26 1    
    49   25   27 1    
    50   25   87 1    
    51   26   88 1    
    52   26   89 1    
    53   26   90 1    
    54   27   28 am   BACKBONE|DICT|INTERRES
    55   27   91 1    
    56   28   29 2    
    57   28   30 1    
    58   30   31 1    
    59   30   32 1    
    60   30   92 1    
    61   31   93 1    
    62   31   94 1    
    63   31   95 1    
    64   32   33 am   BACKBONE|DICT|INTERRES
    65   32   96 1    
    66   33   34 2    
    67   33   35 1    
    68   35   36 1    
    69   35   37 1    
    70   35   97 1    
    71   36   98 1    
    72   36   99 1    
    73   36  100 1    
    74   37   38 am   BACKBONE|DICT|INTERRES
    75   37  101 1    
    76   38   39 2    
    77   38   40 1    
    78   40   41 1    
    79   40   42 1    
    80   40  102 1    
    81   41  103 1    
    82   41  104 1    
    83   41  105 1    
    84   42   43 am   BACKBONE|DICT|INTERRES
    85   42  106 1    
    86   43   44 2    
    87   43   45 1    
    88   45   46 1    
    89   45   49 1    
    90   45  107 1    
    91   46   47 1    
    92   46  108 1    
    93   46  109 1    
    94   47   48 1    
    95   48  110 1    
    96   48  111 1    
    97   49   50 am   BACKBONE|DICT|INTERRES
    98   49  112 1    
    99   50   51 2    
   100   50   52 1    
   101   52   53 1    
   102   52   54 1    
   103   52  113 1    
   104   53  114 1    
   105   53  115 1    
   106   53  116 1    
   107   54   55 am   BACKBONE|DICT|INTERRES
   108   54  117 1    
   109   55   56 2    
   110   55   57 1    
   111   57   58 1    
   112   57   59 1    
   113   57  118 1    
   114   58  119 1    
   115   58  120 1    
   116   58  121 1    
   117   59   60 am   BACKBONE|DICT|INTERRES
   118   59  122 1    
   119   60   61 2    
   120   60   62 1    
   121   62   63 1    
   122   62   64 1    
   123   62  123 1    
   124   63  124 1    
   125   63  125 1    
   126   63  126 1    
   127   64   65 am   BACKBONE|DICT|INTERRES
   128   64  127 1    
   129   65   66 2    
@<TRIPOS>SUBSTRUCTURE
     1 UNK         1 GROUP             0       ****    0 ROOT    
