@<TRIPOS>MOLECULE
3R134
127   129    1
SMALL
USER_CHARGES


@<TRIPOS>ATOM
      1 CA         37.7487  -43.1222  -55.6741 C.3       0 UNK        -0.1968 
      2 C          36.4547  -43.9144  -55.7961 C.2       0 UNK         0.4852 
      3 O          35.9079  -44.0263  -56.8950 O.2       0 UNK        -0.5359 
      4 N          35.9582  -44.4546  -54.6759 N.am      1 UNK        -0.4300 
      5 CA         34.7501  -45.2846  -54.6089 C.3       1 UNK         0.0863 
      6 C6         34.1590  -45.3591  -53.1723 C.3       11 UNK        -0.0953 
      7 S7         34.0859  -43.7743  -52.2671 S.3       11 UNK        -0.2369 
      8 C8         33.0082  -42.7431  -53.3162 C.3       11 UNK         0.0226 
      9 C9         31.5501  -43.1913  -53.3531 C.ar      11 UNK        -0.0699 
     10 C10        30.8654  -43.5320  -52.1806 C.ar      11 UNK        -0.0804 
     11 C11        29.5098  -43.8750  -52.2184 C.ar      11 UNK        -0.0871 
     12 C12        28.8343  -43.8726  -53.4430 C.ar      11 UNK        -0.1008 
     13 C13        29.5042  -43.5246  -54.6197 C.ar      11 UNK        -0.0735 
     14 C14        30.8609  -43.1924  -54.5693 C.ar      11 UNK        -0.0945 
     15 C15        28.7655  -43.5033  -55.9479 C.3       11 UNK         0.0169 
     16 S16        27.8642  -41.9449  -56.1852 S.3       11 UNK        -0.2669 
     17 C17        27.5425  -41.9840  -57.9822 C.3       11 UNK        -0.0850 
     18 CA         26.2530  -42.7640  -58.3436 C.3       10 UNK         0.0855 
     19 C          25.7740  -42.4141  -59.7784 C.2       10 UNK         0.5543 
     20 N          24.9314  -41.4006  -59.9186 N.am      10 UNK        -0.7343 
     21 O          26.1886  -43.0211  -60.7638 O.2       10 UNK        -0.5027 
     22 N          26.4438  -44.2116  -58.1839 N.am      10 UNK        -0.4495 
     23 C          25.4582  -45.0974  -58.0222 C.2       10 UNK         0.4903 
     24 O          24.2760  -44.7792  -57.8866 O.2       10 UNK        -0.4860 
     25 CA         25.8248  -46.5929  -57.9966 C.3       9 UNK         0.0227 
     26 CB         25.5720  -47.2408  -59.3714 C.3       9 UNK        -0.1964 
     27 N          27.1650  -46.9341  -57.4963 N.am      9 UNK        -0.4231 
     28 C          28.3717  -46.7012  -58.0344 C.2       9 UNK         0.5014 
     29 O          28.5633  -45.9646  -59.0019 O.2       9 UNK        -0.5270 
     30 CA         29.5702  -47.4257  -57.3884 C.3       8 UNK         0.0284 
     31 CB         30.1927  -46.5825  -56.2655 C.3       8 UNK        -0.1977 
     32 N          29.2165  -48.7448  -56.8572 N.am      8 UNK        -0.4342 
     33 C          28.8589  -49.8020  -57.6014 C.2       8 UNK         0.5039 
     34 O          28.8595  -49.8111  -58.8327 O.2       8 UNK        -0.5547 
     35 CA         28.3992  -51.0545  -56.8388 C.3       7 UNK         0.0281 
     36 CB         29.6012  -51.9191  -56.4206 C.3       7 UNK        -0.1963 
     37 N          27.6009  -50.7006  -55.6623 N.am      7 UNK        -0.4444 
     38 C          26.3145  -50.3227  -55.7105 C.2       7 UNK         0.5104 
     39 O          25.6403  -50.3144  -56.7401 O.2       7 UNK        -0.5100 
     40 CA         25.6705  -49.8593  -54.3903 C.3       6 UNK         0.0396 
     41 CB         25.0088  -51.0457  -53.6718 C.3       6 UNK        -0.1801 
     42 N          26.6168  -49.2075  -53.4804 N.am      6 UNK        -0.4747 
     43 C          27.2043  -48.0224  -53.7078 C.2       6 UNK         0.5012 
     44 O          26.9723  -47.3271  -54.6952 O.2       6 UNK        -0.5003 
     45 CA         28.2762  -47.5678  -52.6955 C.3       5 UNK         0.0782 
     46 C46        27.6368  -46.7098  -51.5800 C.3       11 UNK        -0.0868 
     47 S47        28.8888  -45.9605  -50.4848 S.3       11 UNK        -0.2515 
     48 C48        28.7716  -44.1972  -50.9262 C.3       11 UNK         0.0199 
     49 N          29.0440  -48.7012  -52.1596 N.am      5 UNK        -0.4607 
     50 C          29.8044  -49.5133  -52.9022 C.2       4 UNK         0.5031 
     51 O          29.9509  -49.3863  -54.1218 O.2       4 UNK        -0.5119 
     52 CA         30.4428  -50.7054  -52.1861 C.3       4 UNK         0.0263 
     53 CB         29.4385  -51.8653  -52.0549 C.3       4 UNK        -0.1967 
     54 N          31.5931  -51.1292  -52.9722 N.am      4 UNK        -0.4237 
     55 C          32.6614  -51.7930  -52.5184 C.2       3 UNK         0.4908 
     56 O          32.7602  -52.2278  -51.3701 O.2       3 UNK        -0.5102 
     57 CA         33.8292  -52.0033  -53.5049 C.3       3 UNK         0.0241 
     58 CB         33.7845  -53.4262  -54.0866 C.3       3 UNK        -0.1971 
     59 N          33.8807  -51.0356  -54.6102 N.am      3 UNK        -0.4139 
     60 C          34.0299  -49.7099  -54.4710 C.2       2 UNK         0.5016 
     61 O          34.1541  -49.1552  -53.3759 O.2       2 UNK        -0.5319 
     62 CA         34.0040  -48.8760  -55.7702 C.3       2 UNK         0.0286 
     63 CB         32.7971  -49.2408  -56.6564 C.3       2 UNK        -0.1963 
     64 N          33.9620  -47.4393  -55.4750 N.am      2 UNK        -0.4790 
     65 C          35.0328  -46.7083  -55.1385 C.2       1 UNK         0.5024 
     66 O          36.1904  -47.1361  -55.1876 O.2       1 UNK        -0.4888 
     67 H67        37.5945  -42.0974  -56.0117 H         1 UNK         0.0892 
     68 H68        38.1118  -43.0897  -54.6467 H         1 UNK         0.0892 
     69 H69        38.5242  -43.5726  -56.2935 H         1 UNK         0.0892 
     70 H70        36.4563  -44.3458  -53.8041 H         1 UNK         0.3107 
     71 H71        33.9985  -44.8357  -55.2624 H         1 UNK         0.0773 
     72 H72        34.7482  -46.0403  -52.5540 H         1 UNK         0.0680 
     73 H73        33.1516  -45.7797  -53.1989 H         1 UNK         0.0680 
     74 H74        33.4299  -42.6972  -54.3210 H         1 UNK         0.0650 
     75 H75        33.0372  -41.7231  -52.9314 H         1 UNK         0.0650 
     76 H76        31.3849  -43.5142  -51.2322 H         1 UNK         0.1397 
     77 H77        27.7827  -44.1216  -53.4823 H         1 UNK         0.1363 
     78 H78        31.3747  -42.9112  -55.4785 H         1 UNK         0.1355 
     79 H79        29.4662  -43.6443  -56.7715 H         1 UNK         0.0707 
     80 H80        28.0610  -44.3346  -55.9860 H         1 UNK         0.0707 
     81 H81        27.4577  -40.9428  -58.3005 H         1 UNK         0.1034 
     82 H82        28.4071  -42.3838  -58.5154 H         1 UNK         0.1034 
     83 H83        25.4678  -42.4508  -57.6519 H         1 UNK         0.0482 
     84 H84        24.6195  -41.1463  -60.8431 H         1 UNK         0.3460 
     85 H85        24.5924  -40.8899  -59.1182 H         1 UNK         0.3460 
     86 H86        27.3623  -44.5809  -58.4073 H         1 UNK         0.2989 
     87 H87        25.1377  -47.0592  -57.2886 H         1 UNK         0.0559 
     88 H88        24.5420  -47.0831  -59.6939 H         1 UNK         0.0848 
     89 H89        25.7400  -48.3176  -59.3370 H         1 UNK         0.0848 
     90 H90        26.2203  -46.8234  -60.1426 H         1 UNK         0.0848 
     91 H91        27.1567  -47.4137  -56.5998 H         1 UNK         0.3144 
     92 H92        30.3255  -47.5740  -58.1629 H         1 UNK         0.0727 
     93 H93        29.4523  -46.3017  -55.5178 H         1 UNK         0.0790 
     94 H94        30.6303  -45.6687  -56.6665 H         1 UNK         0.0790 
     95 H95        30.9872  -47.1158  -55.7481 H         1 UNK         0.0790 
     96 H96        29.2661  -48.8635  -55.8492 H         1 UNK         0.3215 
     97 H97        27.7784  -51.6473  -57.5147 H         1 UNK         0.0863 
     98 H98        29.2794  -52.8208  -55.8994 H         1 UNK         0.0808 
     99 H99        30.2887  -51.3825  -55.7685 H         1 UNK         0.0808 
    100 H100       30.1700  -52.2373  -57.2953 H         1 UNK         0.0808 
    101 H101       28.0906  -50.6344  -54.7821 H         1 UNK         0.3118 
    102 H102       24.8918  -49.1354  -54.6402 H         1 UNK         0.0546 
    103 H103       25.7391  -51.7997  -53.3753 H         1 UNK         0.0828 
    104 H104       24.2801  -51.5358  -54.3192 H         1 UNK         0.0828 
    105 H105       24.4767  -50.7219  -52.7772 H         1 UNK         0.0828 
    106 H106       26.8604  -49.7082  -52.6380 H         1 UNK         0.3005 
    107 H107       28.9768  -46.9354  -53.2454 H         1 UNK         0.1257 
    108 H108       26.9683  -47.3163  -50.9660 H         1 UNK         0.0775 
    109 H109       27.0146  -45.9213  -52.0070 H         1 UNK         0.0775 
    110 H110       27.7251  -43.8959  -50.9945 H         1 UNK         0.0840 
    111 H111       29.1944  -43.6091  -50.1102 H         1 UNK         0.0840 
    112 H112       28.9777  -48.8536  -51.1634 H         1 UNK         0.2987 
    113 H113       30.7774  -50.3835  -51.1975 H         1 UNK         0.0785 
    114 H114       28.5608  -51.5659  -51.4809 H         1 UNK         0.0798 
    115 H115       29.8830  -52.7165  -51.5388 H         1 UNK         0.0798 
    116 H116       29.0928  -52.2126  -53.0294 H         1 UNK         0.0798 
    117 H117       31.6029  -50.7573  -53.9128 H         1 UNK         0.3079 
    118 H118       34.7534  -51.8957  -52.9332 H         1 UNK         0.0794 
    119 H119       34.6562  -53.6298  -54.7089 H         1 UNK         0.0786 
    120 H120       32.8918  -53.5866  -54.6928 H         1 UNK         0.0786 
    121 H121       33.7763  -54.1734  -53.2916 H         1 UNK         0.0786 
    122 H122       33.7925  -51.4164  -55.5413 H         1 UNK         0.3032 
    123 H123       34.9190  -49.0967  -56.3252 H         1 UNK         0.1094 
    124 H124       31.8676  -49.2443  -56.0886 H         1 UNK         0.0794 
    125 H125       32.6828  -48.5420  -57.4854 H         1 UNK         0.0794 
    126 H126       32.9099  -50.2321  -57.0961 H         1 UNK         0.0794 
    127 H127       33.0457  -47.0340  -55.3579 H         1 UNK         0.3016 
@<TRIPOS>BOND
     1    1    2 1    
     2    1   67 1    
     3    1   68 1    
     4    1   69 1    
     5    2    3 2    
     6    2    4 am   BACKBONE|DICT|INTERRES
     7    4    5 1    
     8    4   70 1    
     9    5    6 1    
    10    5   65 1    
    11    5   71 1    
    12    6    7 1    
    13    6   72 1    
    14    6   73 1    
    15    7    8 1    
    16    8    9 1    
    17    8   74 1    
    18    8   75 1    
    19    9   10 ar   
    20    9   14 ar   
    21   10   11 ar   
    22   10   76 1    
    23   11   12 ar   
    24   11   48 1    
    25   12   13 ar   
    26   12   77 1    
    27   13   14 ar   
    28   13   15 1    
    29   14   78 1    
    30   15   16 1    
    31   15   79 1    
    32   15   80 1    
    33   16   17 1    
    34   17   18 1    
    35   17   81 1    
    36   17   82 1    
    37   18   19 1    
    38   18   22 1    
    39   18   83 1    
    40   19   20 am   BACKBONE|DICT|INTERRES
    41   19   21 2    
    42   20   84 1    
    43   20   85 1    
    44   22   23 am   BACKBONE|DICT|INTERRES
    45   22   86 1    
    46   23   24 2    
    47   23   25 1    
    48   25   26 1    
    49   25   27 1    
    50   25   87 1    
    51   26   88 1    
    52   26   89 1    
    53   26   90 1    
    54   27   28 am   BACKBONE|DICT|INTERRES
    55   27   91 1    
    56   28   29 2    
    57   28   30 1    
    58   30   31 1    
    59   30   32 1    
    60   30   92 1    
    61   31   93 1    
    62   31   94 1    
    63   31   95 1    
    64   32   33 am   BACKBONE|DICT|INTERRES
    65   32   96 1    
    66   33   34 2    
    67   33   35 1    
    68   35   36 1    
    69   35   37 1    
    70   35   97 1    
    71   36   98 1    
    72   36   99 1    
    73   36  100 1    
    74   37   38 am   BACKBONE|DICT|INTERRES
    75   37  101 1    
    76   38   39 2    
    77   38   40 1    
    78   40   41 1    
    79   40   42 1    
    80   40  102 1    
    81   41  103 1    
    82   41  104 1    
    83   41  105 1    
    84   42   43 am   BACKBONE|DICT|INTERRES
    85   42  106 1    
    86   43   44 2    
    87   43   45 1    
    88   45   46 1    
    89   45   49 1    
    90   45  107 1    
    91   46   47 1    
    92   46  108 1    
    93   46  109 1    
    94   47   48 1    
    95   48  110 1    
    96   48  111 1    
    97   49   50 am   BACKBONE|DICT|INTERRES
    98   49  112 1    
    99   50   51 2    
   100   50   52 1    
   101   52   53 1    
   102   52   54 1    
   103   52  113 1    
   104   53  114 1    
   105   53  115 1    
   106   53  116 1    
   107   54   55 am   BACKBONE|DICT|INTERRES
   108   54  117 1    
   109   55   56 2    
   110   55   57 1    
   111   57   58 1    
   112   57   59 1    
   113   57  118 1    
   114   58  119 1    
   115   58  120 1    
   116   58  121 1    
   117   59   60 am   BACKBONE|DICT|INTERRES
   118   59  122 1    
   119   60   61 2    
   120   60   62 1    
   121   62   63 1    
   122   62   64 1    
   123   62  123 1    
   124   63  124 1    
   125   63  125 1    
   126   63  126 1    
   127   64   65 am   BACKBONE|DICT|INTERRES
   128   64  127 1    
   129   65   66 2    
@<TRIPOS>SUBSTRUCTURE
     1 UNK         1 GROUP             0       ****    0 ROOT    
