@<TRIPOS>MOLECULE
3R134
127   129    1
SMALL
USER_CHARGES


@<TRIPOS>ATOM
      1 CA         38.2980  -44.8323  -51.2667 C.3       0 UNK        -0.1968 
      2 C          37.3727  -44.5177  -52.4333 C.2       0 UNK         0.4852 
      3 O          37.7985  -43.8746  -53.3945 O.2       0 UNK        -0.5359 
      4 N          36.1105  -44.9574  -52.3516 N.am      1 UNK        -0.4300 
      5 CA         35.0939  -44.7911  -53.3953 C.3       1 UNK         0.0863 
      6 C6         33.6695  -45.0802  -52.8637 C.3       11 UNK        -0.0953 
      7 S7         33.1841  -43.9408  -51.5270 S.3       11 UNK        -0.2369 
      8 C8         32.0417  -42.8231  -52.4001 C.3       11 UNK         0.0226 
      9 C9         30.6989  -43.4806  -52.6907 C.ar      11 UNK        -0.0699 
     10 C10        29.8242  -43.7707  -51.6400 C.ar      11 UNK        -0.0804 
     11 C11        28.5789  -44.3529  -51.8903 C.ar      11 UNK        -0.0871 
     12 C12        28.1997  -44.6204  -53.2082 C.ar      11 UNK        -0.1008 
     13 C13        29.0646  -44.3422  -54.2720 C.ar      11 UNK        -0.0735 
     14 C14        30.3192  -43.7805  -54.0035 C.ar      11 UNK        -0.0945 
     15 C15        28.6272  -44.6838  -55.6933 C.3       11 UNK         0.0169 
     16 S16        28.9791  -43.3734  -56.9105 S.3       11 UNK        -0.2669 
     17 C17        30.4870  -43.9981  -57.7293 C.3       11 UNK        -0.0850 
     18 CA         30.1956  -44.5039  -59.1674 C.3       10 UNK         0.0855 
     19 C          31.5207  -44.7846  -59.9295 C.2       10 UNK         0.5543 
     20 N          32.1214  -43.7604  -60.5193 N.am      10 UNK        -0.7343 
     21 O          32.0283  -45.9032  -59.9526 O.2       10 UNK        -0.5027 
     22 N          29.2837  -45.6588  -59.1606 N.am      10 UNK        -0.4495 
     23 C          28.7295  -46.2121  -60.2469 C.2       10 UNK         0.4903 
     24 O          28.8370  -45.7490  -61.3831 O.2       10 UNK        -0.4860 
     25 CA         27.9210  -47.5076  -60.0465 C.3       9 UNK         0.0227 
     26 CB         28.7367  -48.7251  -60.5126 C.3       9 UNK        -0.1964 
     27 N          27.4743  -47.7334  -58.6679 N.am      9 UNK        -0.4231 
     28 C          26.4592  -47.0877  -58.0763 C.2       9 UNK         0.5014 
     29 O          25.8358  -46.1710  -58.6139 O.2       9 UNK        -0.5270 
     30 CA         26.0809  -47.5313  -56.6461 C.3       8 UNK         0.0284 
     31 CB         24.5846  -47.3146  -56.3372 C.3       8 UNK        -0.1977 
     32 N          26.4895  -48.8993  -56.3022 N.am      8 UNK        -0.4342 
     33 C          26.0898  -50.0464  -56.8734 C.2       8 UNK         0.5039 
     34 O          25.3287  -50.1167  -57.8383 O.2       8 UNK        -0.5547 
     35 CA         26.6361  -51.3372  -56.2477 C.3       7 UNK         0.0281 
     36 CB         28.1022  -51.5691  -56.6543 C.3       7 UNK        -0.1963 
     37 N          26.5258  -51.2939  -54.7886 N.am      7 UNK        -0.4444 
     38 C          25.4263  -51.6380  -54.1026 C.2       7 UNK         0.5104 
     39 O          24.4135  -52.1089  -54.6210 O.2       7 UNK        -0.5100 
     40 CA         25.4568  -51.4293  -52.5766 C.3       6 UNK         0.0396 
     41 CB         25.9099  -52.7168  -51.8699 C.3       6 UNK        -0.1801 
     42 N          26.3230  -50.3224  -52.1636 N.am      6 UNK        -0.4747 
     43 C          26.0468  -49.0226  -52.3519 C.2       6 UNK         0.5012 
     44 O          24.9886  -48.6112  -52.8264 O.2       6 UNK        -0.5003 
     45 CA         27.1481  -48.0115  -51.9660 C.3       5 UNK         0.0782 
     46 C46        26.8610  -47.4220  -50.5620 C.3       11 UNK        -0.0868 
     47 S47        28.1356  -46.2655  -49.9530 S.3       11 UNK        -0.2515 
     48 C48        27.6539  -44.6898  -50.7304 C.3       11 UNK         0.0199 
     49 N          28.5054  -48.5629  -52.0889 N.am      5 UNK        -0.4607 
     50 C          29.0553  -48.9785  -53.2363 C.2       4 UNK         0.5031 
     51 O          28.4535  -49.0005  -54.3135 O.2       4 UNK        -0.5119 
     52 CA         30.4802  -49.5443  -53.1485 C.3       4 UNK         0.0263 
     53 CB         30.4328  -51.0262  -52.7402 C.3       4 UNK        -0.1967 
     54 N          31.1839  -49.4282  -54.4269 N.am      4 UNK        -0.4237 
     55 C          31.6265  -48.2748  -54.9395 C.2       3 UNK         0.4908 
     56 O          31.5487  -47.1861  -54.3659 O.2       3 UNK        -0.5102 
     57 CA         32.2478  -48.3442  -56.3368 C.3       3 UNK         0.0241 
     58 CB         31.1611  -48.2820  -57.4235 C.3       3 UNK        -0.1971 
     59 N          33.1571  -47.2128  -56.4729 N.am      3 UNK        -0.4139 
     60 C          34.2696  -47.1805  -57.2141 C.2       2 UNK         0.5016 
     61 O          34.6211  -48.0919  -57.9647 O.2       2 UNK        -0.5319 
     62 CA         35.1635  -45.9318  -57.0776 C.3       2 UNK         0.0286 
     63 CB         34.9125  -44.9511  -58.2336 C.3       2 UNK        -0.1963 
     64 N          35.0013  -45.2183  -55.8048 N.am      2 UNK        -0.4790 
     65 C          35.3971  -45.6870  -54.6130 C.2       1 UNK         0.5024 
     66 O          35.9412  -46.7830  -54.4552 O.2       1 UNK        -0.4888 
     67 H67        37.7890  -45.3907  -50.4813 H         1 UNK         0.0892 
     68 H68        39.1452  -45.4256  -51.6096 H         1 UNK         0.0892 
     69 H69        38.6811  -43.9094  -50.8320 H         1 UNK         0.0892 
     70 H70        35.8193  -45.4885  -51.5439 H         1 UNK         0.3107 
     71 H71        35.1298  -43.7510  -53.7277 H         1 UNK         0.0773 
     72 H72        32.9370  -45.0079  -53.6685 H         1 UNK         0.0680 
     73 H73        33.5966  -46.1018  -52.4853 H         1 UNK         0.0680 
     74 H74        32.5127  -42.4678  -53.3179 H         1 UNK         0.0650 
     75 H75        31.8766  -41.9403  -51.7809 H         1 UNK         0.0650 
     76 H76        30.1207  -43.5530  -50.6228 H         1 UNK         0.1397 
     77 H77        27.2288  -45.0513  -53.4071 H         1 UNK         0.1363 
     78 H78        30.9967  -43.5666  -54.8175 H         1 UNK         0.1355 
     79 H79        29.0788  -45.6303  -55.9924 H         1 UNK         0.0707 
     80 H80        27.5482  -44.8356  -55.7135 H         1 UNK         0.0707 
     81 H81        31.2004  -43.1720  -57.7547 H         1 UNK         0.1034 
     82 H82        30.9580  -44.7780  -57.1280 H         1 UNK         0.1034 
     83 H83        29.6806  -43.7056  -59.7060 H         1 UNK         0.0482 
     84 H84        31.7177  -42.8368  -60.5041 H         1 UNK         0.3460 
     85 H85        32.9873  -43.9193  -61.0097 H         1 UNK         0.3460 
     86 H86        29.1279  -46.1009  -58.2705 H         1 UNK         0.2989 
     87 H87        27.0347  -47.4363  -60.6808 H         1 UNK         0.0559 
     88 H88        29.6445  -48.8564  -59.9235 H         1 UNK         0.0848 
     89 H89        29.0417  -48.6136  -61.5542 H         1 UNK         0.0848 
     90 H90        28.1544  -49.6443  -60.4456 H         1 UNK         0.0848 
     91 H91        27.9155  -48.4851  -58.1599 H         1 UNK         0.3144 
     92 H92        26.6450  -46.8907  -55.9705 H         1 UNK         0.0727 
     93 H93        24.3423  -47.6152  -55.3180 H         1 UNK         0.0790 
     94 H94        23.9466  -47.8829  -57.0146 H         1 UNK         0.0790 
     95 H95        24.3101  -46.2637  -56.4363 H         1 UNK         0.0790 
     96 H96        27.1630  -48.9650  -55.5375 H         1 UNK         0.3215 
     97 H97        26.0458  -52.1732  -56.6301 H         1 UNK         0.0863 
     98 H98        28.7603  -50.7774  -56.2961 H         1 UNK         0.0808 
     99 H99        28.2026  -51.6105  -57.7398 H         1 UNK         0.0808 
    100 H100       28.4747  -52.5146  -56.2602 H         1 UNK         0.0808 
    101 H101       27.2873  -50.8561  -54.2881 H         1 UNK         0.3118 
    102 H102       24.4381  -51.2048  -52.2529 H         1 UNK         0.0546 
    103 H103       25.8663  -52.6117  -50.7857 H         1 UNK         0.0828 
    104 H104       26.9301  -52.9914  -52.1413 H         1 UNK         0.0828 
    105 H105       25.2655  -53.5554  -52.1377 H         1 UNK         0.0828 
    106 H106       27.2092  -50.5650  -51.7447 H         1 UNK         0.3005 
    107 H107       27.0747  -47.2023  -52.6924 H         1 UNK         0.1257 
    108 H108       26.7870  -48.2264  -49.8272 H         1 UNK         0.0775 
    109 H109       25.8921  -46.9189  -50.5469 H         1 UNK         0.0775 
    110 H110       26.6142  -44.7212  -51.0592 H         1 UNK         0.0840 
    111 H111       27.7077  -43.8985  -49.9810 H         1 UNK         0.0840 
    112 H112       29.0575  -48.5675  -51.2431 H         1 UNK         0.2987 
    113 H113       31.0356  -48.9826  -52.3940 H         1 UNK         0.0785 
    114 H114       29.9502  -51.1533  -51.7703 H         1 UNK         0.0798 
    115 H115       29.8790  -51.6286  -53.4620 H         1 UNK         0.0798 
    116 H116       31.4357  -51.4453  -52.6546 H         1 UNK         0.0798 
    117 H117       31.2585  -50.2697  -54.9790 H         1 UNK         0.3079 
    118 H118       32.8106  -49.2761  -56.4263 H         1 UNK         0.0794 
    119 H119       30.5496  -47.3869  -57.3200 H         1 UNK         0.0786 
    120 H120       30.4965  -49.1444  -57.3648 H         1 UNK         0.0786 
    121 H121       31.5995  -48.2745  -58.4218 H         1 UNK         0.0786 
    122 H122       32.9689  -46.4563  -55.8278 H         1 UNK         0.3032 
    123 H123       36.1983  -46.2763  -57.1427 H         1 UNK         0.1094 
    124 H124       33.9217  -44.5017  -58.1707 H         1 UNK         0.0794 
    125 H125       35.6470  -44.1455  -58.2375 H         1 UNK         0.0794 
    126 H126       34.9807  -45.4553  -59.1989 H         1 UNK         0.0794 
    127 H127       34.5710  -44.3055  -55.8518 H         1 UNK         0.3016 
@<TRIPOS>BOND
     1    1    2 1    
     2    1   67 1    
     3    1   68 1    
     4    1   69 1    
     5    2    3 2    
     6    2    4 am   BACKBONE|DICT|INTERRES
     7    4    5 1    
     8    4   70 1    
     9    5    6 1    
    10    5   65 1    
    11    5   71 1    
    12    6    7 1    
    13    6   72 1    
    14    6   73 1    
    15    7    8 1    
    16    8    9 1    
    17    8   74 1    
    18    8   75 1    
    19    9   10 ar   
    20    9   14 ar   
    21   10   11 ar   
    22   10   76 1    
    23   11   12 ar   
    24   11   48 1    
    25   12   13 ar   
    26   12   77 1    
    27   13   14 ar   
    28   13   15 1    
    29   14   78 1    
    30   15   16 1    
    31   15   79 1    
    32   15   80 1    
    33   16   17 1    
    34   17   18 1    
    35   17   81 1    
    36   17   82 1    
    37   18   19 1    
    38   18   22 1    
    39   18   83 1    
    40   19   20 am   BACKBONE|DICT|INTERRES
    41   19   21 2    
    42   20   84 1    
    43   20   85 1    
    44   22   23 am   BACKBONE|DICT|INTERRES
    45   22   86 1    
    46   23   24 2    
    47   23   25 1    
    48   25   26 1    
    49   25   27 1    
    50   25   87 1    
    51   26   88 1    
    52   26   89 1    
    53   26   90 1    
    54   27   28 am   BACKBONE|DICT|INTERRES
    55   27   91 1    
    56   28   29 2    
    57   28   30 1    
    58   30   31 1    
    59   30   32 1    
    60   30   92 1    
    61   31   93 1    
    62   31   94 1    
    63   31   95 1    
    64   32   33 am   BACKBONE|DICT|INTERRES
    65   32   96 1    
    66   33   34 2    
    67   33   35 1    
    68   35   36 1    
    69   35   37 1    
    70   35   97 1    
    71   36   98 1    
    72   36   99 1    
    73   36  100 1    
    74   37   38 am   BACKBONE|DICT|INTERRES
    75   37  101 1    
    76   38   39 2    
    77   38   40 1    
    78   40   41 1    
    79   40   42 1    
    80   40  102 1    
    81   41  103 1    
    82   41  104 1    
    83   41  105 1    
    84   42   43 am   BACKBONE|DICT|INTERRES
    85   42  106 1    
    86   43   44 2    
    87   43   45 1    
    88   45   46 1    
    89   45   49 1    
    90   45  107 1    
    91   46   47 1    
    92   46  108 1    
    93   46  109 1    
    94   47   48 1    
    95   48  110 1    
    96   48  111 1    
    97   49   50 am   BACKBONE|DICT|INTERRES
    98   49  112 1    
    99   50   51 2    
   100   50   52 1    
   101   52   53 1    
   102   52   54 1    
   103   52  113 1    
   104   53  114 1    
   105   53  115 1    
   106   53  116 1    
   107   54   55 am   BACKBONE|DICT|INTERRES
   108   54  117 1    
   109   55   56 2    
   110   55   57 1    
   111   57   58 1    
   112   57   59 1    
   113   57  118 1    
   114   58  119 1    
   115   58  120 1    
   116   58  121 1    
   117   59   60 am   BACKBONE|DICT|INTERRES
   118   59  122 1    
   119   60   61 2    
   120   60   62 1    
   121   62   63 1    
   122   62   64 1    
   123   62  123 1    
   124   63  124 1    
   125   63  125 1    
   126   63  126 1    
   127   64   65 am   BACKBONE|DICT|INTERRES
   128   64  127 1    
   129   65   66 2    
@<TRIPOS>SUBSTRUCTURE
     1 UNK         1 GROUP             0       ****    0 ROOT    
