@<TRIPOS>MOLECULE
3R134
127   129    1
SMALL
USER_CHARGES


@<TRIPOS>ATOM
      1 CA         37.6837  -43.8647  -51.8472 C.3       0 UNK        -0.1968 
      2 C          36.3578  -44.5490  -52.1463 C.2       0 UNK         0.4852 
      3 O          36.2907  -45.3771  -53.0549 O.2       0 UNK        -0.5359 
      4 N          35.3047  -44.2031  -51.3942 N.am      1 UNK        -0.4300 
      5 CA         33.9715  -44.8010  -51.4892 C.3       1 UNK         0.0863 
      6 C6         32.9102  -43.8884  -50.8227 C.3       11 UNK        -0.0953 
      7 S7         31.1986  -44.2324  -51.3591 S.3       11 UNK        -0.2369 
      8 C8         30.8781  -42.9031  -52.5691 C.3       11 UNK         0.0226 
      9 C9         30.8758  -43.4462  -53.9894 C.ar      11 UNK        -0.0699 
     10 C10        32.0806  -43.7637  -54.6215 C.ar      11 UNK        -0.0804 
     11 C11        32.0858  -44.3471  -55.8906 C.ar      11 UNK        -0.0871 
     12 C12        30.8757  -44.5495  -56.5579 C.ar      11 UNK        -0.1008 
     13 C13        29.6650  -44.2152  -55.9460 C.ar      11 UNK        -0.0735 
     14 C14        29.6687  -43.6653  -54.6606 C.ar      11 UNK        -0.0945 
     15 C15        28.3561  -44.5470  -56.6400 C.3       11 UNK         0.0169 
     16 S16        27.9324  -43.3486  -57.9419 S.3       11 UNK        -0.2669 
     17 C17        26.6954  -42.3047  -57.0913 C.3       11 UNK        -0.0850 
     18 CA         25.2320  -42.7861  -57.2982 C.3       10 UNK         0.0855 
     19 C          24.7101  -42.5213  -58.7427 C.2       10 UNK         0.5543 
     20 N          24.2905  -43.5278  -59.5021 N.am      10 UNK        -0.7343 
     21 O          24.6704  -41.3722  -59.1759 O.2       10 UNK        -0.5027 
     22 N          25.0648  -44.1687  -56.8330 N.am      10 UNK        -0.4495 
     23 C          23.9242  -44.7293  -56.4217 C.2       10 UNK         0.4903 
     24 O          22.8650  -44.1132  -56.2948 O.2       10 UNK        -0.4860 
     25 CA         23.9924  -46.2345  -56.0909 C.3       9 UNK         0.0227 
     26 CB         22.6179  -46.9270  -56.2046 C.3       9 UNK        -0.1964 
     27 N          25.0068  -46.9777  -56.8566 N.am      9 UNK        -0.4231 
     28 C          25.0770  -47.1154  -58.1931 C.2       9 UNK         0.5014 
     29 O          24.3336  -46.5190  -58.9741 O.2       9 UNK        -0.5270 
     30 CA         26.1541  -48.0571  -58.7758 C.3       8 UNK         0.0284 
     31 CB         27.1856  -47.2697  -59.6012 C.3       8 UNK        -0.1977 
     32 N          26.8510  -48.8645  -57.7684 N.am      8 UNK        -0.4342 
     33 C          26.2998  -49.8957  -57.1073 C.2       8 UNK         0.5039 
     34 O          25.1820  -50.3436  -57.3651 O.2       8 UNK        -0.5547 
     35 CA         27.0947  -50.5167  -55.9391 C.3       7 UNK         0.0281 
     36 CB         27.7056  -51.8625  -56.3608 C.3       7 UNK        -0.1963 
     37 N          28.1526  -49.6599  -55.3934 N.am      7 UNK        -0.4444 
     38 C          27.9808  -48.4333  -54.8779 C.2       7 UNK         0.5104 
     39 O          26.8789  -47.9010  -54.7377 O.2       7 UNK        -0.5100 
     40 CA         29.2490  -47.6312  -54.5361 C.3       6 UNK         0.0396 
     41 CB         29.4945  -47.6114  -53.0208 C.3       6 UNK        -0.1801 
     42 N          30.4628  -48.0702  -55.2411 N.am      6 UNK        -0.4747 
     43 C          30.6223  -48.0653  -56.5762 C.2       6 UNK         0.5012 
     44 O          29.7216  -47.7511  -57.3564 O.2       6 UNK        -0.5003 
     45 CA         31.9605  -48.5514  -57.1617 C.3       5 UNK         0.0782 
     46 C46        32.9278  -47.4014  -57.5437 C.3       11 UNK        -0.0868 
     47 S47        33.7337  -46.5494  -56.1402 S.3       11 UNK        -0.2515 
     48 C48        33.3978  -44.7954  -56.5130 C.3       11 UNK         0.0199 
     49 N          32.5849  -49.5840  -56.3294 N.am      5 UNK        -0.4607 
     50 C          33.0499  -50.7484  -56.8036 C.2       4 UNK         0.5031 
     51 O          33.0719  -51.0377  -58.0007 O.2       4 UNK        -0.5119 
     52 CA         33.5683  -51.7863  -55.7882 C.3       4 UNK         0.0263 
     53 CB         35.1001  -51.7094  -55.6832 C.3       4 UNK        -0.1967 
     54 N          32.9920  -51.6574  -54.4482 N.am      4 UNK        -0.4237 
     55 C          31.6894  -51.7436  -54.1425 C.2       3 UNK         0.4908 
     56 O          30.8118  -52.0362  -54.9540 O.2       3 UNK        -0.5102 
     57 CA         31.2828  -51.4026  -52.6962 C.3       3 UNK         0.0241 
     58 CB         31.0292  -52.6914  -51.8977 C.3       3 UNK        -0.1971 
     59 N          32.2277  -50.5536  -51.9535 N.am      3 UNK        -0.4139 
     60 C          32.6884  -49.3548  -52.3390 C.2       2 UNK         0.5016 
     61 O          32.4378  -48.8374  -53.4322 O.2       2 UNK        -0.5319 
     62 CA         33.6200  -48.6356  -51.3609 C.3       2 UNK         0.0286 
     63 CB         35.0448  -49.2164  -51.4374 C.3       2 UNK        -0.1963 
     64 N          33.6423  -47.2190  -51.7082 N.am      2 UNK        -0.4790 
     65 C          33.9952  -46.2214  -50.8927 C.2       1 UNK         0.5024 
     66 O          34.3444  -46.3832  -49.7207 O.2       1 UNK        -0.4888 
     67 H67        38.0386  -43.3330  -52.7296 H         1 UNK         0.0892 
     68 H68        37.5986  -43.1475  -51.0310 H         1 UNK         0.0892 
     69 H69        38.4336  -44.6054  -51.5708 H         1 UNK         0.0892 
     70 H70        35.4332  -43.5430  -50.6407 H         1 UNK         0.3107 
     71 H71        33.7339  -44.8906  -52.5487 H         1 UNK         0.0773 
     72 H72        33.1337  -42.8421  -51.0339 H         1 UNK         0.0680 
     73 H73        32.9524  -43.9727  -49.7350 H         1 UNK         0.0680 
     74 H74        29.9116  -42.4535  -52.3366 H         1 UNK         0.0650 
     75 H75        31.6097  -42.0995  -52.4819 H         1 UNK         0.0650 
     76 H76        33.0155  -43.5843  -54.1126 H         1 UNK         0.1397 
     77 H77        30.8672  -45.0042  -57.5386 H         1 UNK         0.1363 
     78 H78        28.7321  -43.4352  -54.1716 H         1 UNK         0.1355 
     79 H79        28.4380  -45.5331  -57.0924 H         1 UNK         0.0707 
     80 H80        27.5542  -44.6287  -55.9061 H         1 UNK         0.0707 
     81 H81        26.9273  -42.2702  -56.0257 H         1 UNK         0.1034 
     82 H82        26.8123  -41.2770  -57.4404 H         1 UNK         0.1034 
     83 H83        24.6090  -42.1596  -56.6569 H         1 UNK         0.0482 
     84 H84        24.3116  -44.4843  -59.1660 H         1 UNK         0.3460 
     85 H85        23.9511  -43.3332  -60.4303 H         1 UNK         0.3460 
     86 H86        25.8690  -44.7643  -56.9527 H         1 UNK         0.2989 
     87 H87        24.3048  -46.2962  -55.0475 H         1 UNK         0.0559 
     88 H88        22.2113  -46.8535  -57.2138 H         1 UNK         0.0848 
     89 H89        21.8918  -46.4748  -55.5279 H         1 UNK         0.0848 
     90 H90        22.6838  -47.9839  -55.9460 H         1 UNK         0.0848 
     91 H91        25.6885  -47.4714  -56.2867 H         1 UNK         0.3144 
     92 H92        25.6387  -48.7400  -59.4544 H         1 UNK         0.0727 
     93 H93        27.7361  -46.5546  -58.9922 H         1 UNK         0.0790 
     94 H94        26.7007  -46.7074  -60.4005 H         1 UNK         0.0790 
     95 H95        27.9105  -47.9356  -60.0696 H         1 UNK         0.0790 
     96 H96        27.7885  -48.5654  -57.5177 H         1 UNK         0.3215 
     97 H97        26.3803  -50.7022  -55.1343 H         1 UNK         0.0863 
     98 H98        28.1486  -52.3801  -55.5098 H         1 UNK         0.0808 
     99 H99        28.4811  -51.7351  -57.1172 H         1 UNK         0.0808 
    100 H100       26.9465  -52.5255  -56.7786 H         1 UNK         0.0808 
    101 H101       29.0984  -50.0085  -55.4690 H         1 UNK         0.3118 
    102 H102       29.0570  -46.6052  -54.8422 H         1 UNK         0.0546 
    103 H103       30.3472  -46.9811  -52.7673 H         1 UNK         0.0828 
    104 H104       29.6815  -48.6089  -52.6263 H         1 UNK         0.0828 
    105 H105       28.6298  -47.2090  -52.4916 H         1 UNK         0.0828 
    106 H106       31.2491  -48.3247  -54.6453 H         1 UNK         0.3005 
    107 H107       31.6633  -49.0146  -58.1058 H         1 UNK         0.1257 
    108 H108       33.7258  -47.8073  -58.1671 H         1 UNK         0.0775 
    109 H109       32.4138  -46.6783  -58.1782 H         1 UNK         0.0775 
    110 H110       34.2193  -44.1953  -56.1186 H         1 UNK         0.0840 
    111 H111       33.3932  -44.6241  -57.5904 H         1 UNK         0.0840 
    112 H112       32.6252  -49.4022  -55.3317 H         1 UNK         0.2987 
    113 H113       33.2969  -52.7737  -56.1673 H         1 UNK         0.0785 
    114 H114       35.4289  -50.7485  -55.2846 H         1 UNK         0.0798 
    115 H115       35.5651  -51.8318  -56.6626 H         1 UNK         0.0798 
    116 H116       35.4954  -52.4953  -55.0393 H         1 UNK         0.0798 
    117 H117       33.6295  -51.4050  -53.7081 H         1 UNK         0.3079 
    118 H118       30.3403  -50.8567  -52.7597 H         1 UNK         0.0794 
    119 H119       31.9443  -53.2696  -51.7636 H         1 UNK         0.0786 
    120 H120       30.3099  -53.3337  -52.4084 H         1 UNK         0.0786 
    121 H121       30.6197  -52.4744  -50.9108 H         1 UNK         0.0786 
    122 H122       32.5118  -50.9030  -51.0491 H         1 UNK         0.3032 
    123 H123       33.2216  -48.7523  -50.3503 H         1 UNK         0.1094 
    124 H124       35.7152  -48.7200  -50.7355 H         1 UNK         0.0794 
    125 H125       35.0545  -50.2789  -51.1917 H         1 UNK         0.0794 
    126 H126       35.4693  -49.1058  -52.4363 H         1 UNK         0.0794 
    127 H127       33.3365  -47.0250  -52.6552 H         1 UNK         0.3016 
@<TRIPOS>BOND
     1    1    2 1    
     2    1   67 1    
     3    1   68 1    
     4    1   69 1    
     5    2    3 2    
     6    2    4 am   BACKBONE|DICT|INTERRES
     7    4    5 1    
     8    4   70 1    
     9    5    6 1    
    10    5   65 1    
    11    5   71 1    
    12    6    7 1    
    13    6   72 1    
    14    6   73 1    
    15    7    8 1    
    16    8    9 1    
    17    8   74 1    
    18    8   75 1    
    19    9   10 ar   
    20    9   14 ar   
    21   10   11 ar   
    22   10   76 1    
    23   11   12 ar   
    24   11   48 1    
    25   12   13 ar   
    26   12   77 1    
    27   13   14 ar   
    28   13   15 1    
    29   14   78 1    
    30   15   16 1    
    31   15   79 1    
    32   15   80 1    
    33   16   17 1    
    34   17   18 1    
    35   17   81 1    
    36   17   82 1    
    37   18   19 1    
    38   18   22 1    
    39   18   83 1    
    40   19   20 am   BACKBONE|DICT|INTERRES
    41   19   21 2    
    42   20   84 1    
    43   20   85 1    
    44   22   23 am   BACKBONE|DICT|INTERRES
    45   22   86 1    
    46   23   24 2    
    47   23   25 1    
    48   25   26 1    
    49   25   27 1    
    50   25   87 1    
    51   26   88 1    
    52   26   89 1    
    53   26   90 1    
    54   27   28 am   BACKBONE|DICT|INTERRES
    55   27   91 1    
    56   28   29 2    
    57   28   30 1    
    58   30   31 1    
    59   30   32 1    
    60   30   92 1    
    61   31   93 1    
    62   31   94 1    
    63   31   95 1    
    64   32   33 am   BACKBONE|DICT|INTERRES
    65   32   96 1    
    66   33   34 2    
    67   33   35 1    
    68   35   36 1    
    69   35   37 1    
    70   35   97 1    
    71   36   98 1    
    72   36   99 1    
    73   36  100 1    
    74   37   38 am   BACKBONE|DICT|INTERRES
    75   37  101 1    
    76   38   39 2    
    77   38   40 1    
    78   40   41 1    
    79   40   42 1    
    80   40  102 1    
    81   41  103 1    
    82   41  104 1    
    83   41  105 1    
    84   42   43 am   BACKBONE|DICT|INTERRES
    85   42  106 1    
    86   43   44 2    
    87   43   45 1    
    88   45   46 1    
    89   45   49 1    
    90   45  107 1    
    91   46   47 1    
    92   46  108 1    
    93   46  109 1    
    94   47   48 1    
    95   48  110 1    
    96   48  111 1    
    97   49   50 am   BACKBONE|DICT|INTERRES
    98   49  112 1    
    99   50   51 2    
   100   50   52 1    
   101   52   53 1    
   102   52   54 1    
   103   52  113 1    
   104   53  114 1    
   105   53  115 1    
   106   53  116 1    
   107   54   55 am   BACKBONE|DICT|INTERRES
   108   54  117 1    
   109   55   56 2    
   110   55   57 1    
   111   57   58 1    
   112   57   59 1    
   113   57  118 1    
   114   58  119 1    
   115   58  120 1    
   116   58  121 1    
   117   59   60 am   BACKBONE|DICT|INTERRES
   118   59  122 1    
   119   60   61 2    
   120   60   62 1    
   121   62   63 1    
   122   62   64 1    
   123   62  123 1    
   124   63  124 1    
   125   63  125 1    
   126   63  126 1    
   127   64   65 am   BACKBONE|DICT|INTERRES
   128   64  127 1    
   129   65   66 2    
@<TRIPOS>SUBSTRUCTURE
     1 UNK         1 GROUP             0       ****    0 ROOT    
