@<TRIPOS>MOLECULE
3R134
127   129    1
SMALL
USER_CHARGES


@<TRIPOS>ATOM
      1 CA         36.3794  -44.0043  -47.3219 C.3       0 UNK        -0.1968 
      2 C          35.3632  -44.7009  -48.2161 C.2       0 UNK         0.4852 
      3 O          34.5326  -45.4548  -47.7077 O.2       0 UNK        -0.5359 
      4 N          35.4299  -44.4352  -49.5298 N.am      1 UNK        -0.4300 
      5 CA         34.6226  -45.0068  -50.6160 C.3       1 UNK         0.0863 
      6 C6         33.0888  -44.9079  -50.3766 C.3       11 UNK        -0.0953 
      7 S7         32.0956  -45.2256  -51.8718 S.3       11 UNK        -0.2369 
      8 C8         32.0453  -43.5737  -52.6318 C.3       11 UNK         0.0226 
      9 C9         31.5276  -43.6666  -54.0576 C.ar      11 UNK        -0.0699 
     10 C10        32.3400  -44.2146  -55.0529 C.ar      11 UNK        -0.0804 
     11 C11        31.8654  -44.3654  -56.3576 C.ar      11 UNK        -0.0871 
     12 C12        30.5699  -43.9411  -56.6694 C.ar      11 UNK        -0.1008 
     13 C13        29.7449  -43.3824  -55.6852 C.ar      11 UNK        -0.0735 
     14 C14        30.2366  -43.2391  -54.3817 C.ar      11 UNK        -0.0945 
     15 C15        28.3287  -42.9313  -56.0328 C.3       11 UNK         0.0169 
     16 S16        27.0798  -43.6997  -54.9500 S.3       11 UNK        -0.2669 
     17 C17        25.5138  -43.2340  -55.7655 C.3       11 UNK        -0.0850 
     18 CA         24.7650  -44.4736  -56.3395 C.3       10 UNK         0.0855 
     19 C          23.2880  -44.1719  -56.7412 C.2       10 UNK         0.5543 
     20 N          22.7215  -44.8566  -57.7285 N.am      10 UNK        -0.7343 
     21 O          22.6315  -43.3309  -56.1314 O.2       10 UNK        -0.5027 
     22 N          25.5469  -45.1909  -57.3624 N.am      10 UNK        -0.4495 
     23 C          25.8717  -44.7209  -58.5745 C.2       10 UNK         0.4903 
     24 O          25.5565  -43.6031  -58.9838 O.2       10 UNK        -0.4860 
     25 CA         26.6965  -45.6316  -59.4982 C.3       9 UNK         0.0227 
     26 CB         28.1735  -45.2113  -59.4733 C.3       9 UNK        -0.1964 
     27 N          26.6087  -47.0611  -59.1920 N.am      9 UNK        -0.4231 
     28 C          25.5351  -47.8355  -59.4006 C.2       9 UNK         0.5014 
     29 O          24.4440  -47.4047  -59.7762 O.2       9 UNK        -0.5270 
     30 CA         25.7128  -49.3441  -59.1676 C.3       8 UNK         0.0284 
     31 CB         26.5311  -49.9741  -60.3077 C.3       8 UNK        -0.1977 
     32 N          26.3789  -49.6088  -57.8918 N.am      8 UNK        -0.4342 
     33 C          25.7858  -50.1376  -56.8124 C.2       8 UNK         0.5039 
     34 O          24.6242  -50.5482  -56.8001 O.2       8 UNK        -0.5547 
     35 CA         26.6135  -50.2186  -55.5124 C.3       7 UNK         0.0281 
     36 CB         27.2256  -51.6196  -55.3531 C.3       7 UNK        -0.1963 
     37 N          27.6808  -49.2199  -55.4055 N.am      7 UNK        -0.4444 
     38 C          27.5149  -47.8921  -55.4761 C.2       7 UNK         0.5104 
     39 O          26.4212  -47.3418  -55.5938 O.2       7 UNK        -0.5100 
     40 CA         28.7920  -47.0388  -55.4883 C.3       6 UNK         0.0396 
     41 CB         29.1959  -46.6772  -54.0525 C.3       6 UNK        -0.1801 
     42 N          29.9273  -47.6683  -56.1730 N.am      6 UNK        -0.4747 
     43 C          29.9407  -48.1067  -57.4411 C.2       6 UNK         0.5012 
     44 O          28.9555  -48.1027  -58.1799 O.2       6 UNK        -0.5003 
     45 CA         31.2642  -48.6972  -57.9568 C.3       5 UNK         0.0782 
     46 C46        32.2540  -47.6030  -58.4318 C.3       11 UNK        -0.0868 
     47 S47        33.1302  -46.7268  -57.0854 S.3       11 UNK        -0.2515 
     48 C48        32.7706  -44.9692  -57.4218 C.3       11 UNK         0.0199 
     49 N          31.8496  -49.6167  -56.9781 N.am      5 UNK        -0.4607 
     50 C          31.3728  -50.8420  -56.7226 C.2       4 UNK         0.5031 
     51 O          30.4566  -51.3668  -57.3551 O.2       4 UNK        -0.5119 
     52 CA         32.0073  -51.5996  -55.5455 C.3       4 UNK         0.0263 
     53 CB         33.3091  -52.2897  -55.9828 C.3       4 UNK        -0.1967 
     54 N          32.2718  -50.7540  -54.3777 N.am      4 UNK        -0.4237 
     55 C          31.3529  -50.0786  -53.6761 C.2       3 UNK         0.4908 
     56 O          30.1565  -50.0599  -53.9667 O.2       3 UNK        -0.5102 
     57 CA         31.8330  -49.2835  -52.4460 C.3       3 UNK         0.0241 
     58 CB         31.8656  -50.1809  -51.1945 C.3       3 UNK        -0.1971 
     59 N          33.0999  -48.5525  -52.6103 N.am      3 UNK        -0.4139 
     60 C          34.3402  -49.0295  -52.8013 C.2       2 UNK         0.5016 
     61 O          34.6030  -50.2249  -52.9390 O.2       2 UNK        -0.5319 
     62 CA         35.4855  -48.0036  -52.8802 C.3       2 UNK         0.0286 
     63 CB         35.9243  -47.8060  -54.3403 C.3       2 UNK        -0.1963 
     64 N          35.1408  -46.6990  -52.3054 N.am      2 UNK        -0.4790 
     65 C          35.0872  -46.4324  -50.9922 C.2       1 UNK         0.5024 
     66 O          35.3729  -47.2576  -50.1227 O.2       1 UNK        -0.4888 
     67 H67        35.8681  -43.3964  -46.5759 H         1 UNK         0.0892 
     68 H68        36.9877  -44.7429  -46.8005 H         1 UNK         0.0892 
     69 H69        37.0470  -43.3546  -47.8876 H         1 UNK         0.0892 
     70 H70        36.1601  -43.8115  -49.8456 H         1 UNK         0.3107 
     71 H71        34.8539  -44.3666  -51.4688 H         1 UNK         0.0773 
     72 H72        32.8300  -43.9189  -49.9952 H         1 UNK         0.0680 
     73 H73        32.7699  -45.6177  -49.6120 H         1 UNK         0.0680 
     74 H74        33.0442  -43.1357  -52.6378 H         1 UNK         0.0650 
     75 H75        31.4171  -42.9166  -52.0285 H         1 UNK         0.0650 
     76 H76        33.3389  -44.5472  -54.8065 H         1 UNK         0.1397 
     77 H77        30.2089  -44.0404  -57.6820 H         1 UNK         0.1363 
     78 H78        29.6020  -42.8167  -53.6148 H         1 UNK         0.1355 
     79 H79        28.2651  -41.8462  -55.9430 H         1 UNK         0.0707 
     80 H80        28.0940  -43.1748  -57.0697 H         1 UNK         0.0707 
     81 H81        25.6935  -42.4903  -56.5431 H         1 UNK         0.1034 
     82 H82        24.9036  -42.7337  -55.0116 H         1 UNK         0.1034 
     83 H83        24.6643  -45.1846  -55.5189 H         1 UNK         0.0482 
     84 H84        21.7638  -44.6669  -57.9777 H         1 UNK         0.3460 
     85 H85        23.2495  -45.5521  -58.2345 H         1 UNK         0.3460 
     86 H86        25.8656  -46.1116  -57.0800 H         1 UNK         0.2989 
     87 H87        26.3209  -45.4859  -60.5131 H         1 UNK         0.0559 
     88 H88        28.2884  -44.1504  -59.7000 H         1 UNK         0.0848 
     89 H89        28.7582  -45.7658  -60.2075 H         1 UNK         0.0848 
     90 H90        28.6123  -45.3899  -58.4926 H         1 UNK         0.0848 
     91 H91        27.4720  -47.4954  -58.8676 H         1 UNK         0.3144 
     92 H92        24.7189  -49.7965  -59.1817 H         1 UNK         0.0727 
     93 H93        26.5977  -51.0560  -60.1923 H         1 UNK         0.0790 
     94 H94        27.5478  -49.5804  -60.3466 H         1 UNK         0.0790 
     95 H95        26.0670  -49.7796  -61.2756 H         1 UNK         0.0790 
     96 H96        27.3343  -49.2799  -57.8010 H         1 UNK         0.3215 
     97 H97        25.9263  -50.0460  -54.6816 H         1 UNK         0.0863 
     98 H98        27.7403  -51.7220  -54.3974 H         1 UNK         0.0808 
     99 H99        27.9442  -51.8361  -56.1446 H         1 UNK         0.0808 
    100 H100       26.4548  -52.3906  -55.3906 H         1 UNK         0.0808 
    101 H101       28.6195  -49.5678  -55.2327 H         1 UNK         0.3118 
    102 H102       28.5694  -46.1171  -56.0276 H         1 UNK         0.0546 
    103 H103       28.4411  -46.0440  -53.5857 H         1 UNK         0.0828 
    104 H104       30.1364  -46.1303  -54.0289 H         1 UNK         0.0828 
    105 H105       29.3032  -47.5615  -53.4264 H         1 UNK         0.0828 
    106 H106       30.7883  -47.7252  -55.6505 H         1 UNK         0.3005 
    107 H107       31.0022  -49.2852  -58.8403 H         1 UNK         0.1257 
    108 H108       33.0199  -48.0687  -59.0537 H         1 UNK         0.0775 
    109 H109       31.7477  -46.8936  -59.0885 H         1 UNK         0.0775 
    110 H110       33.7137  -44.4209  -57.4307 H         1 UNK         0.0840 
    111 H111       32.3446  -44.8389  -58.4171 H         1 UNK         0.0840 
    112 H112       32.6131  -49.2575  -56.4240 H         1 UNK         0.2987 
    113 H113       31.2989  -52.3705  -55.2347 H         1 UNK         0.0785 
    114 H114       33.7150  -52.9113  -55.1844 H         1 UNK         0.0798 
    115 H115       34.0751  -51.5667  -56.2660 H         1 UNK         0.0798 
    116 H116       33.1377  -52.9392  -56.8425 H         1 UNK         0.0798 
    117 H117       33.2276  -50.7232  -54.0268 H         1 UNK         0.3079 
    118 H118       31.0830  -48.5133  -52.2643 H         1 UNK         0.0794 
    119 H119       30.8919  -50.6410  -51.0204 H         1 UNK         0.0786 
    120 H120       32.1166  -49.6064  -50.3027 H         1 UNK         0.0786 
    121 H121       32.5926  -50.9882  -51.2886 H         1 UNK         0.0786 
    122 H122       33.0152  -47.5471  -52.5391 H         1 UNK         0.3032 
    123 H123       36.3281  -48.4199  -52.3227 H         1 UNK         0.1094 
    124 H124       35.1284  -47.3736  -54.9464 H         1 UNK         0.0794 
    125 H125       36.7923  -47.1499  -54.4085 H         1 UNK         0.0794 
    126 H126       36.2030  -48.7562  -54.7983 H         1 UNK         0.0794 
    127 H127       34.8996  -45.9687  -52.9602 H         1 UNK         0.3016 
@<TRIPOS>BOND
     1    1    2 1    
     2    1   67 1    
     3    1   68 1    
     4    1   69 1    
     5    2    3 2    
     6    2    4 am   BACKBONE|DICT|INTERRES
     7    4    5 1    
     8    4   70 1    
     9    5    6 1    
    10    5   65 1    
    11    5   71 1    
    12    6    7 1    
    13    6   72 1    
    14    6   73 1    
    15    7    8 1    
    16    8    9 1    
    17    8   74 1    
    18    8   75 1    
    19    9   10 ar   
    20    9   14 ar   
    21   10   11 ar   
    22   10   76 1    
    23   11   12 ar   
    24   11   48 1    
    25   12   13 ar   
    26   12   77 1    
    27   13   14 ar   
    28   13   15 1    
    29   14   78 1    
    30   15   16 1    
    31   15   79 1    
    32   15   80 1    
    33   16   17 1    
    34   17   18 1    
    35   17   81 1    
    36   17   82 1    
    37   18   19 1    
    38   18   22 1    
    39   18   83 1    
    40   19   20 am   BACKBONE|DICT|INTERRES
    41   19   21 2    
    42   20   84 1    
    43   20   85 1    
    44   22   23 am   BACKBONE|DICT|INTERRES
    45   22   86 1    
    46   23   24 2    
    47   23   25 1    
    48   25   26 1    
    49   25   27 1    
    50   25   87 1    
    51   26   88 1    
    52   26   89 1    
    53   26   90 1    
    54   27   28 am   BACKBONE|DICT|INTERRES
    55   27   91 1    
    56   28   29 2    
    57   28   30 1    
    58   30   31 1    
    59   30   32 1    
    60   30   92 1    
    61   31   93 1    
    62   31   94 1    
    63   31   95 1    
    64   32   33 am   BACKBONE|DICT|INTERRES
    65   32   96 1    
    66   33   34 2    
    67   33   35 1    
    68   35   36 1    
    69   35   37 1    
    70   35   97 1    
    71   36   98 1    
    72   36   99 1    
    73   36  100 1    
    74   37   38 am   BACKBONE|DICT|INTERRES
    75   37  101 1    
    76   38   39 2    
    77   38   40 1    
    78   40   41 1    
    79   40   42 1    
    80   40  102 1    
    81   41  103 1    
    82   41  104 1    
    83   41  105 1    
    84   42   43 am   BACKBONE|DICT|INTERRES
    85   42  106 1    
    86   43   44 2    
    87   43   45 1    
    88   45   46 1    
    89   45   49 1    
    90   45  107 1    
    91   46   47 1    
    92   46  108 1    
    93   46  109 1    
    94   47   48 1    
    95   48  110 1    
    96   48  111 1    
    97   49   50 am   BACKBONE|DICT|INTERRES
    98   49  112 1    
    99   50   51 2    
   100   50   52 1    
   101   52   53 1    
   102   52   54 1    
   103   52  113 1    
   104   53  114 1    
   105   53  115 1    
   106   53  116 1    
   107   54   55 am   BACKBONE|DICT|INTERRES
   108   54  117 1    
   109   55   56 2    
   110   55   57 1    
   111   57   58 1    
   112   57   59 1    
   113   57  118 1    
   114   58  119 1    
   115   58  120 1    
   116   58  121 1    
   117   59   60 am   BACKBONE|DICT|INTERRES
   118   59  122 1    
   119   60   61 2    
   120   60   62 1    
   121   62   63 1    
   122   62   64 1    
   123   62  123 1    
   124   63  124 1    
   125   63  125 1    
   126   63  126 1    
   127   64   65 am   BACKBONE|DICT|INTERRES
   128   64  127 1    
   129   65   66 2    
@<TRIPOS>SUBSTRUCTURE
     1 UNK         1 GROUP             0       ****    0 ROOT    
