@<TRIPOS>MOLECULE
3R134
127   129    1
SMALL
USER_CHARGES


@<TRIPOS>ATOM
      1 CA         37.1581  -48.2054  -56.8931 C.3       0 UNK        -0.1968 
      2 C          35.8687  -47.5919  -56.3704 C.2       0 UNK         0.4852 
      3 O          34.8465  -48.2766  -56.3119 O.2       0 UNK        -0.5359 
      4 N          35.9057  -46.3130  -55.9684 N.am      1 UNK        -0.4300 
      5 CA         34.7515  -45.5520  -55.4678 C.3       1 UNK         0.0863 
      6 C6         35.1076  -44.0626  -55.2267 C.3       11 UNK        -0.0953 
      7 S7         33.7455  -42.9373  -55.6793 S.3       11 UNK        -0.2369 
      8 C8         33.3446  -42.1183  -54.1023 C.3       11 UNK         0.0226 
      9 C9         32.0481  -42.6391  -53.4992 C.ar      11 UNK        -0.0699 
     10 C10        32.0591  -43.4177  -52.3365 C.ar      11 UNK        -0.0804 
     11 C11        30.8586  -43.8389  -51.7524 C.ar      11 UNK        -0.0871 
     12 C12        29.6456  -43.4667  -52.3402 C.ar      11 UNK        -0.1008 
     13 C13        29.6233  -42.7340  -53.5275 C.ar      11 UNK        -0.0735 
     14 C14        30.8267  -42.3080  -54.0943 C.ar      11 UNK        -0.0945 
     15 C15        28.2944  -42.4310  -54.2010 C.3       11 UNK         0.0169 
     16 S16        27.5488  -43.9481  -54.8792 S.3       11 UNK        -0.2669 
     17 C17        28.6913  -44.3441  -56.2500 C.3       11 UNK        -0.0850 
     18 CA         27.9587  -44.4284  -57.6129 C.3       10 UNK         0.0855 
     19 C          28.9588  -44.5959  -58.7952 C.2       10 UNK         0.5543 
     20 N          28.8001  -45.5698  -59.6845 N.am      10 UNK        -0.7343 
     21 O          29.8975  -43.8134  -58.9165 O.2       10 UNK        -0.5027 
     22 N          26.8952  -45.4436  -57.5857 N.am      10 UNK        -0.4495 
     23 C          25.7378  -45.3590  -58.2527 C.2       10 UNK         0.4903 
     24 O          25.3986  -44.3767  -58.9150 O.2       10 UNK        -0.4860 
     25 CA         24.8112  -46.5905  -58.1701 C.3       9 UNK         0.0227 
     26 CB         23.7676  -46.6295  -59.3064 C.3       9 UNK        -0.1964 
     27 N          25.5396  -47.8651  -58.0955 N.am      9 UNK        -0.4231 
     28 C          26.4420  -48.3322  -58.9753 C.2       9 UNK         0.5014 
     29 O          26.7704  -47.7248  -59.9959 O.2       9 UNK        -0.5270 
     30 CA         27.1261  -49.6719  -58.6521 C.3       8 UNK         0.0284 
     31 CB         28.5966  -49.6775  -59.1065 C.3       8 UNK        -0.1977 
     32 N          27.0638  -49.9678  -57.2183 N.am      8 UNK        -0.4342 
     33 C          26.3396  -50.9552  -56.6760 C.2       8 UNK         0.5039 
     34 O          25.6907  -51.7716  -57.3315 O.2       8 UNK        -0.5547 
     35 CA         26.3059  -51.0432  -55.1410 C.3       7 UNK         0.0281 
     36 CB         27.4573  -51.9245  -54.6323 C.3       7 UNK        -0.1963 
     37 N          26.3526  -49.7522  -54.4497 N.am      7 UNK        -0.4444 
     38 C          25.5010  -48.7295  -54.5907 C.2       7 UNK         0.5104 
     39 O          24.5795  -48.7202  -55.4068 O.2       7 UNK        -0.5100 
     40 CA         25.7159  -47.4952  -53.6907 C.3       6 UNK         0.0396 
     41 CB         25.0580  -47.6950  -52.3127 C.3       6 UNK        -0.1801 
     42 N          27.1142  -47.0592  -53.5606 N.am      6 UNK        -0.4747 
     43 C          28.1549  -47.7084  -53.0156 C.2       6 UNK         0.5012 
     44 O          28.0723  -48.8129  -52.4731 O.2       6 UNK        -0.5003 
     45 CA         29.5354  -47.0408  -53.1780 C.3       5 UNK         0.0782 
     46 C46        30.3634  -47.0989  -51.8659 C.3       11 UNK        -0.0868 
     47 S47        29.6928  -46.0719  -50.5155 S.3       11 UNK        -0.2515 
     48 C48        30.8762  -44.6798  -50.4795 C.3       11 UNK         0.0199 
     49 N          30.3155  -47.6147  -54.2814 N.am      5 UNK        -0.4607 
     50 C          29.9267  -48.0481  -55.4913 C.2       4 UNK         0.5031 
     51 O          28.7738  -48.0065  -55.9270 O.2       4 UNK        -0.5119 
     52 CA         31.0356  -48.6154  -56.3956 C.3       4 UNK         0.0263 
     53 CB         31.5313  -47.5286  -57.3625 C.3       4 UNK        -0.1967 
     54 N          32.1783  -49.1654  -55.6594 N.am      4 UNK        -0.4237 
     55 C          32.1391  -50.2662  -54.8925 C.2       3 UNK         0.4908 
     56 O          31.1420  -50.9754  -54.7614 O.2       3 UNK        -0.5102 
     57 CA         33.4219  -50.6276  -54.1283 C.3       3 UNK         0.0241 
     58 CB         34.3814  -51.4378  -55.0159 C.3       3 UNK        -0.1971 
     59 N          34.0971  -49.4276  -53.6290 N.am      3 UNK        -0.4139 
     60 C          33.8093  -48.8327  -52.4620 C.2       2 UNK         0.5016 
     61 O          33.0122  -49.2882  -51.6424 O.2       2 UNK        -0.5319 
     62 CA         34.5188  -47.5016  -52.1453 C.3       2 UNK         0.0286 
     63 CB         35.7401  -47.7457  -51.2447 C.3       2 UNK        -0.1963 
     64 N          34.9411  -46.7555  -53.3341 N.am      2 UNK        -0.4790 
     65 C          34.1064  -46.1933  -54.2212 C.2       1 UNK         0.5024 
     66 O          32.8826  -46.2281  -54.1171 O.2       1 UNK        -0.4888 
     67 H67        37.4332  -49.0693  -56.2889 H         1 UNK         0.0892 
     68 H68        37.0219  -48.5385  -57.9215 H         1 UNK         0.0892 
     69 H69        37.9860  -47.4971  -56.8718 H         1 UNK         0.0892 
     70 H70        36.7752  -45.8028  -56.0334 H         1 UNK         0.3107 
     71 H71        34.0081  -45.6035  -56.2658 H         1 UNK         0.0773 
     72 H72        35.4466  -43.8853  -54.2044 H         1 UNK         0.0680 
     73 H73        35.9472  -43.7696  -55.8590 H         1 UNK         0.0680 
     74 H74        33.2362  -41.0494  -54.2917 H         1 UNK         0.0650 
     75 H75        34.1696  -42.2099  -53.3950 H         1 UNK         0.0650 
     76 H76        33.0028  -43.6863  -51.8820 H         1 UNK         0.1397 
     77 H77        28.7109  -43.7814  -51.8964 H         1 UNK         0.1363 
     78 H78        30.8180  -41.7234  -55.0042 H         1 UNK         0.1355 
     79 H79        28.4116  -41.6927  -54.9960 H         1 UNK         0.0707 
     80 H80        27.6111  -41.9942  -53.4714 H         1 UNK         0.0707 
     81 H81        29.4774  -43.5886  -56.2923 H         1 UNK         0.1034 
     82 H82        29.1979  -45.2823  -56.0261 H         1 UNK         0.1034 
     83 H83        27.4928  -43.4546  -57.7754 H         1 UNK         0.0482 
     84 H84        28.0140  -46.2090  -59.6388 H         1 UNK         0.3460 
     85 H85        29.4574  -45.6465  -60.4435 H         1 UNK         0.3460 
     86 H86        27.1105  -46.2948  -57.0869 H         1 UNK         0.2989 
     87 H87        24.2693  -46.4960  -57.2280 H         1 UNK         0.0559 
     88 H88        23.1333  -45.7424  -59.2879 H         1 UNK         0.0848 
     89 H89        24.2406  -46.6704  -60.2882 H         1 UNK         0.0848 
     90 H90        23.1120  -47.4952  -59.2135 H         1 UNK         0.0848 
     91 H91        25.3296  -48.4290  -57.2771 H         1 UNK         0.3144 
     92 H92        26.5981  -50.4364  -59.2250 H         1 UNK         0.0727 
     93 H93        29.1383  -48.8196  -58.7106 H         1 UNK         0.0790 
     94 H94        28.6685  -49.6284  -60.1938 H         1 UNK         0.0790 
     95 H95        29.1117  -50.5843  -58.7894 H         1 UNK         0.0790 
     96 H96        27.5736  -49.3320  -56.6065 H         1 UNK         0.3215 
     97 H97        25.3626  -51.5192  -54.8656 H         1 UNK         0.0863 
     98 H98        27.4422  -52.9050  -55.1103 H         1 UNK         0.0808 
     99 H99        28.4289  -51.4741  -54.8406 H         1 UNK         0.0808 
    100 H100       27.3884  -52.0878  -53.5567 H         1 UNK         0.0808 
    101 H101       27.0806  -49.6331  -53.7475 H         1 UNK         0.3118 
    102 H102       25.2018  -46.6652  -54.1784 H         1 UNK         0.0546 
    103 H103       23.9959  -47.9196  -52.4188 H         1 UNK         0.0828 
    104 H104       25.1393  -46.7964  -51.7013 H         1 UNK         0.0828 
    105 H105       25.5079  -48.5190  -51.7584 H         1 UNK         0.0828 
    106 H106       27.3115  -46.1778  -54.0188 H         1 UNK         0.3005 
    107 H107       29.3847  -45.9920  -53.4343 H         1 UNK         0.1257 
    108 H108       31.3840  -46.7694  -52.0571 H         1 UNK         0.0775 
    109 H109       30.4558  -48.1266  -51.5090 H         1 UNK         0.0775 
    110 H110       30.6320  -44.0350  -49.6344 H         1 UNK         0.0840 
    111 H111       31.8757  -45.0736  -50.2881 H         1 UNK         0.0840 
    112 H112       31.3150  -47.6130  -54.1189 H         1 UNK         0.2987 
    113 H113       30.6016  -49.4302  -56.9767 H         1 UNK         0.0785 
    114 H114       30.7137  -47.1410  -57.9710 H         1 UNK         0.0798 
    115 H115       32.2885  -47.9163  -58.0443 H         1 UNK         0.0798 
    116 H116       31.9620  -46.6826  -56.8269 H         1 UNK         0.0798 
    117 H117       33.0718  -48.6942  -55.7818 H         1 UNK         0.3079 
    118 H118       33.1392  -51.2591  -53.2829 H         1 UNK         0.0794 
    119 H119       33.9064  -52.3574  -55.3604 H         1 UNK         0.0786 
    120 H120       35.2802  -51.7233  -54.4691 H         1 UNK         0.0786 
    121 H121       34.6904  -50.8820  -55.9013 H         1 UNK         0.0786 
    122 H122       34.7248  -48.9624  -54.2727 H         1 UNK         0.3032 
    123 H123       33.8082  -46.8805  -51.5952 H         1 UNK         0.1094 
    124 H124       36.2020  -46.8069  -50.9382 H         1 UNK         0.0794 
    125 H125       35.4537  -48.2751  -50.3346 H         1 UNK         0.0794 
    126 H126       36.4991  -48.3475  -51.7462 H         1 UNK         0.0794 
    127 H127       35.9346  -46.6933  -53.5054 H         1 UNK         0.3016 
@<TRIPOS>BOND
     1    1    2 1    
     2    1   67 1    
     3    1   68 1    
     4    1   69 1    
     5    2    3 2    
     6    2    4 am   BACKBONE|DICT|INTERRES
     7    4    5 1    
     8    4   70 1    
     9    5    6 1    
    10    5   65 1    
    11    5   71 1    
    12    6    7 1    
    13    6   72 1    
    14    6   73 1    
    15    7    8 1    
    16    8    9 1    
    17    8   74 1    
    18    8   75 1    
    19    9   10 ar   
    20    9   14 ar   
    21   10   11 ar   
    22   10   76 1    
    23   11   12 ar   
    24   11   48 1    
    25   12   13 ar   
    26   12   77 1    
    27   13   14 ar   
    28   13   15 1    
    29   14   78 1    
    30   15   16 1    
    31   15   79 1    
    32   15   80 1    
    33   16   17 1    
    34   17   18 1    
    35   17   81 1    
    36   17   82 1    
    37   18   19 1    
    38   18   22 1    
    39   18   83 1    
    40   19   20 am   BACKBONE|DICT|INTERRES
    41   19   21 2    
    42   20   84 1    
    43   20   85 1    
    44   22   23 am   BACKBONE|DICT|INTERRES
    45   22   86 1    
    46   23   24 2    
    47   23   25 1    
    48   25   26 1    
    49   25   27 1    
    50   25   87 1    
    51   26   88 1    
    52   26   89 1    
    53   26   90 1    
    54   27   28 am   BACKBONE|DICT|INTERRES
    55   27   91 1    
    56   28   29 2    
    57   28   30 1    
    58   30   31 1    
    59   30   32 1    
    60   30   92 1    
    61   31   93 1    
    62   31   94 1    
    63   31   95 1    
    64   32   33 am   BACKBONE|DICT|INTERRES
    65   32   96 1    
    66   33   34 2    
    67   33   35 1    
    68   35   36 1    
    69   35   37 1    
    70   35   97 1    
    71   36   98 1    
    72   36   99 1    
    73   36  100 1    
    74   37   38 am   BACKBONE|DICT|INTERRES
    75   37  101 1    
    76   38   39 2    
    77   38   40 1    
    78   40   41 1    
    79   40   42 1    
    80   40  102 1    
    81   41  103 1    
    82   41  104 1    
    83   41  105 1    
    84   42   43 am   BACKBONE|DICT|INTERRES
    85   42  106 1    
    86   43   44 2    
    87   43   45 1    
    88   45   46 1    
    89   45   49 1    
    90   45  107 1    
    91   46   47 1    
    92   46  108 1    
    93   46  109 1    
    94   47   48 1    
    95   48  110 1    
    96   48  111 1    
    97   49   50 am   BACKBONE|DICT|INTERRES
    98   49  112 1    
    99   50   51 2    
   100   50   52 1    
   101   52   53 1    
   102   52   54 1    
   103   52  113 1    
   104   53  114 1    
   105   53  115 1    
   106   53  116 1    
   107   54   55 am   BACKBONE|DICT|INTERRES
   108   54  117 1    
   109   55   56 2    
   110   55   57 1    
   111   57   58 1    
   112   57   59 1    
   113   57  118 1    
   114   58  119 1    
   115   58  120 1    
   116   58  121 1    
   117   59   60 am   BACKBONE|DICT|INTERRES
   118   59  122 1    
   119   60   61 2    
   120   60   62 1    
   121   62   63 1    
   122   62   64 1    
   123   62  123 1    
   124   63  124 1    
   125   63  125 1    
   126   63  126 1    
   127   64   65 am   BACKBONE|DICT|INTERRES
   128   64  127 1    
   129   65   66 2    
@<TRIPOS>SUBSTRUCTURE
     1 UNK         1 GROUP             0       ****    0 ROOT    
