@<TRIPOS>MOLECULE
3R134
127   129    1
SMALL
USER_CHARGES


@<TRIPOS>ATOM
      1 CA         37.1497  -45.2411  -53.1424 C.3       0 UNK        -0.1968 
      2 C          35.7887  -45.8469  -52.8372 C.2       0 UNK         0.4852 
      3 O          35.4021  -46.8290  -53.4670 O.2       0 UNK        -0.5359 
      4 N          35.0649  -45.2881  -51.8575 N.am      1 UNK        -0.4300 
      5 CA         33.7006  -45.6811  -51.4675 C.3       1 UNK         0.0863 
      6 C6         33.0495  -44.5996  -50.5617 C.3       11 UNK        -0.0953 
      7 S7         31.3327  -44.2093  -51.0400 S.3       11 UNK        -0.2369 
      8 C8         31.5688  -42.8389  -52.2179 C.3       11 UNK         0.0226 
      9 C9         31.3254  -43.2696  -53.6584 C.ar      11 UNK        -0.0699 
     10 C10        32.3411  -43.8747  -54.4053 C.ar      11 UNK        -0.0804 
     11 C11        32.1309  -44.2262  -55.7432 C.ar      11 UNK        -0.0871 
     12 C12        30.8933  -43.9557  -56.3378 C.ar      11 UNK        -0.1008 
     13 C13        29.8729  -43.3409  -55.6047 C.ar      11 UNK        -0.0735 
     14 C14        30.0924  -43.0112  -54.2640 C.ar      11 UNK        -0.0945 
     15 C15        28.5549  -42.9669  -56.2675 C.3       11 UNK         0.0169 
     16 S16        27.1947  -44.0748  -55.7792 S.3       11 UNK        -0.2669 
     17 C17        25.7428  -43.0423  -56.1888 C.3       11 UNK        -0.0850 
     18 CA         25.0445  -43.3954  -57.5278 C.3       10 UNK         0.0855 
     19 C          25.9092  -43.0413  -58.7748 C.2       10 UNK         0.5543 
     20 N          26.1914  -43.9648  -59.6861 N.am      10 UNK        -0.7343 
     21 O          26.3197  -41.8931  -58.9256 O.2       10 UNK        -0.5027 
     22 N          24.4926  -44.7590  -57.5167 N.am      10 UNK        -0.4495 
     23 C          23.4322  -45.1478  -58.2368 C.2       10 UNK         0.4903 
     24 O          22.7534  -44.3748  -58.9159 O.2       10 UNK        -0.4860 
     25 CA         23.0652  -46.6469  -58.1915 C.3       9 UNK         0.0227 
     26 CB         22.1697  -47.0673  -59.3761 C.3       9 UNK        -0.1964 
     27 N          24.2141  -47.5575  -58.0910 N.am      9 UNK        -0.4231 
     28 C          25.2918  -47.6174  -58.8862 C.2       9 UNK         0.5014 
     29 O          25.5157  -46.8171  -59.7965 O.2       9 UNK        -0.5270 
     30 CA         26.2803  -48.7690  -58.6128 C.3       8 UNK         0.0284 
     31 CB         27.5595  -48.6691  -59.4651 C.3       8 UNK        -0.1977 
     32 N          26.6531  -48.8837  -57.1985 N.am      8 UNK        -0.4342 
     33 C          25.9082  -49.4584  -56.2423 C.2       8 UNK         0.5039 
     34 O          24.7595  -49.8571  -56.4413 O.2       8 UNK        -0.5547 
     35 CA         26.5141  -49.6186  -54.8375 C.3       7 UNK         0.0281 
     36 CB         26.7842  -51.1027  -54.5365 C.3       7 UNK        -0.1963 
     37 N          27.7619  -48.8714  -54.6838 N.am      7 UNK        -0.4444 
     38 C          27.8608  -47.6584  -54.1225 C.2       7 UNK         0.5104 
     39 O          26.9121  -47.0678  -53.6058 O.2       7 UNK        -0.5100 
     40 CA         29.2477  -46.9875  -54.1312 C.3       6 UNK         0.0396 
     41 CB         29.9209  -47.1351  -52.7619 C.3       6 UNK        -0.1801 
     42 N          30.1540  -47.5070  -55.1565 N.am      6 UNK        -0.4747 
     43 C          29.9731  -47.3791  -56.4795 C.2       6 UNK         0.5012 
     44 O          29.0052  -46.8161  -56.9870 O.2       6 UNK        -0.5003 
     45 CA         30.9978  -48.0783  -57.3965 C.3       5 UNK         0.0782 
     46 C46        32.1358  -47.1200  -57.8267 C.3       11 UNK        -0.0868 
     47 S47        33.2835  -46.6586  -56.4791 S.3       11 UNK        -0.2515 
     48 C48        33.2660  -44.8384  -56.5547 C.3       11 UNK         0.0199 
     49 N          31.5059  -49.3376  -56.8375 N.am      5 UNK        -0.4607 
     50 C          30.7470  -50.3772  -56.4610 C.2       4 UNK         0.5031 
     51 O          29.5249  -50.4065  -56.6044 O.2       4 UNK        -0.5119 
     52 CA         31.4399  -51.5717  -55.7794 C.3       4 UNK         0.0263 
     53 CB         31.5048  -52.7682  -56.7423 C.3       4 UNK        -0.1967 
     54 N          32.7847  -51.3041  -55.2550 N.am      4 UNK        -0.4237 
     55 C          33.0948  -50.4101  -54.3053 C.2       3 UNK         0.4908 
     56 O          32.2788  -49.6362  -53.7980 O.2       3 UNK        -0.5102 
     57 CA         34.5782  -50.3651  -53.9016 C.3       3 UNK         0.0241 
     58 CB         35.4289  -49.7334  -55.0170 C.3       3 UNK        -0.1971 
     59 N          34.7799  -49.6134  -52.6622 N.am      3 UNK        -0.4139 
     60 C          34.5891  -50.1144  -51.4316 C.2       2 UNK         0.5016 
     61 O          34.2780  -51.2873  -51.2161 O.2       2 UNK        -0.5319 
     62 CA         34.7989  -49.1724  -50.2281 C.3       2 UNK         0.0286 
     63 CB         36.1584  -49.4440  -49.5627 C.3       2 UNK        -0.1963 
     64 N          34.7217  -47.7555  -50.5874 N.am      2 UNK        -0.4790 
     65 C          33.5840  -47.1032  -50.8647 C.2       1 UNK         0.5024 
     66 O          32.4708  -47.5922  -50.6745 O.2       1 UNK        -0.4888 
     67 H67        37.3702  -44.3869  -52.5026 H         1 UNK         0.0892 
     68 H68        37.1843  -44.9070  -54.1790 H         1 UNK         0.0892 
     69 H69        37.9322  -45.9856  -52.9983 H         1 UNK         0.0892 
     70 H70        35.4527  -44.5046  -51.3508 H         1 UNK         0.3107 
     71 H71        33.1380  -45.7375  -52.4005 H         1 UNK         0.0773 
     72 H72        33.6220  -43.6713  -50.5774 H         1 UNK         0.0680 
     73 H73        33.0508  -44.9026  -49.5126 H         1 UNK         0.0680 
     74 H74        30.8799  -42.0368  -51.9488 H         1 UNK         0.0650 
     75 H75        32.5677  -42.4115  -52.1260 H         1 UNK         0.0650 
     76 H76        33.3053  -44.0542  -53.9518 H         1 UNK         0.1397 
     77 H77        30.7281  -44.2054  -57.3766 H         1 UNK         0.1363 
     78 H78        29.3057  -42.5300  -53.6989 H         1 UNK         0.1355 
     79 H79        28.6527  -42.9827  -57.3540 H         1 UNK         0.0707 
     80 H80        28.3122  -41.9385  -55.9970 H         1 UNK         0.0707 
     81 H81        26.0171  -41.9862  -56.1729 H         1 UNK         0.1034 
     82 H82        25.0253  -43.1548  -55.3747 H         1 UNK         0.1034 
     83 H83        24.1923  -42.7160  -57.5935 H         1 UNK         0.0482 
     84 H84        25.8607  -44.9206  -59.5906 H         1 UNK         0.3460 
     85 H85        26.7458  -43.7093  -60.4867 H         1 UNK         0.3460 
     86 H86        25.0241  -45.4488  -57.0058 H         1 UNK         0.2989 
     87 H87        22.4885  -46.7864  -57.2762 H         1 UNK         0.0559 
     88 H88        21.8901  -48.1186  -59.3099 H         1 UNK         0.0848 
     89 H89        22.6711  -46.9133  -60.3324 H         1 UNK         0.0848 
     90 H90        21.2440  -46.4906  -59.3963 H         1 UNK         0.0848 
     91 H91        24.1503  -48.2809  -57.3776 H         1 UNK         0.3144 
     92 H92        25.7715  -49.6903  -58.9045 H         1 UNK         0.0727 
     93 H93        28.2460  -49.4887  -59.2510 H         1 UNK         0.0790 
     94 H94        28.0867  -47.7306  -59.2932 H         1 UNK         0.0790 
     95 H95        27.3225  -48.7154  -60.5288 H         1 UNK         0.0790 
     96 H96        27.5530  -48.4962  -56.9436 H         1 UNK         0.3215 
     97 H97        25.7715  -49.2603  -54.1214 H         1 UNK         0.0863 
     98 H98        27.1880  -51.2369  -53.5329 H         1 UNK         0.0808 
     99 H99        27.4904  -51.5388  -55.2439 H         1 UNK         0.0808 
    100 H100       25.8643  -51.6861  -54.5952 H         1 UNK         0.0808 
    101 H101       28.5850  -49.2824  -55.1111 H         1 UNK         0.3118 
    102 H102       29.1012  -45.9240  -54.3255 H         1 UNK         0.0546 
    103 H103       29.3083  -46.6988  -51.9722 H         1 UNK         0.0828 
    104 H104       30.8819  -46.6231  -52.7459 H         1 UNK         0.0828 
    105 H105       30.0972  -48.1804  -52.5049 H         1 UNK         0.0828 
    106 H106       30.9682  -48.0147  -54.8292 H         1 UNK         0.3005 
    107 H107       30.4496  -48.3504  -58.3011 H         1 UNK         0.1257 
    108 H108       31.7171  -46.2235  -58.2865 H         1 UNK         0.0775 
    109 H109       32.7279  -47.5936  -58.6112 H         1 UNK         0.0775 
    110 H110       34.2214  -44.4748  -56.1732 H         1 UNK         0.0840 
    111 H111       33.2187  -44.5058  -57.5927 H         1 UNK         0.0840 
    112 H112       32.4984  -49.3745  -56.6589 H         1 UNK         0.2987 
    113 H113       30.8130  -51.8522  -54.9303 H         1 UNK         0.0785 
    114 H114       32.1434  -52.5603  -57.6018 H         1 UNK         0.0798 
    115 H115       30.5137  -53.0162  -57.1258 H         1 UNK         0.0798 
    116 H116       31.8874  -53.6597  -56.2449 H         1 UNK         0.0798 
    117 H117       33.5259  -51.8814  -55.6264 H         1 UNK         0.3079 
    118 H118       34.9214  -51.3905  -53.7474 H         1 UNK         0.0794 
    119 H119       35.0857  -48.7292  -55.2657 H         1 UNK         0.0786 
    120 H120       35.3903  -50.3251  -55.9321 H         1 UNK         0.0786 
    121 H121       36.4767  -49.6622  -54.7244 H         1 UNK         0.0786 
    122 H122       34.9806  -48.6231  -52.7722 H         1 UNK         0.3032 
    123 H123       34.0116  -49.3925  -49.5032 H         1 UNK         0.1094 
    124 H124       36.9884  -49.2408  -50.2407 H         1 UNK         0.0794 
    125 H125       36.2937  -48.8318  -48.6708 H         1 UNK         0.0794 
    126 H126       36.2392  -50.4869  -49.2527 H         1 UNK         0.0794 
    127 H127       35.5947  -47.2807  -50.7664 H         1 UNK         0.3016 
@<TRIPOS>BOND
     1    1    2 1    
     2    1   67 1    
     3    1   68 1    
     4    1   69 1    
     5    2    3 2    
     6    2    4 am   BACKBONE|DICT|INTERRES
     7    4    5 1    
     8    4   70 1    
     9    5    6 1    
    10    5   65 1    
    11    5   71 1    
    12    6    7 1    
    13    6   72 1    
    14    6   73 1    
    15    7    8 1    
    16    8    9 1    
    17    8   74 1    
    18    8   75 1    
    19    9   10 ar   
    20    9   14 ar   
    21   10   11 ar   
    22   10   76 1    
    23   11   12 ar   
    24   11   48 1    
    25   12   13 ar   
    26   12   77 1    
    27   13   14 ar   
    28   13   15 1    
    29   14   78 1    
    30   15   16 1    
    31   15   79 1    
    32   15   80 1    
    33   16   17 1    
    34   17   18 1    
    35   17   81 1    
    36   17   82 1    
    37   18   19 1    
    38   18   22 1    
    39   18   83 1    
    40   19   20 am   BACKBONE|DICT|INTERRES
    41   19   21 2    
    42   20   84 1    
    43   20   85 1    
    44   22   23 am   BACKBONE|DICT|INTERRES
    45   22   86 1    
    46   23   24 2    
    47   23   25 1    
    48   25   26 1    
    49   25   27 1    
    50   25   87 1    
    51   26   88 1    
    52   26   89 1    
    53   26   90 1    
    54   27   28 am   BACKBONE|DICT|INTERRES
    55   27   91 1    
    56   28   29 2    
    57   28   30 1    
    58   30   31 1    
    59   30   32 1    
    60   30   92 1    
    61   31   93 1    
    62   31   94 1    
    63   31   95 1    
    64   32   33 am   BACKBONE|DICT|INTERRES
    65   32   96 1    
    66   33   34 2    
    67   33   35 1    
    68   35   36 1    
    69   35   37 1    
    70   35   97 1    
    71   36   98 1    
    72   36   99 1    
    73   36  100 1    
    74   37   38 am   BACKBONE|DICT|INTERRES
    75   37  101 1    
    76   38   39 2    
    77   38   40 1    
    78   40   41 1    
    79   40   42 1    
    80   40  102 1    
    81   41  103 1    
    82   41  104 1    
    83   41  105 1    
    84   42   43 am   BACKBONE|DICT|INTERRES
    85   42  106 1    
    86   43   44 2    
    87   43   45 1    
    88   45   46 1    
    89   45   49 1    
    90   45  107 1    
    91   46   47 1    
    92   46  108 1    
    93   46  109 1    
    94   47   48 1    
    95   48  110 1    
    96   48  111 1    
    97   49   50 am   BACKBONE|DICT|INTERRES
    98   49  112 1    
    99   50   51 2    
   100   50   52 1    
   101   52   53 1    
   102   52   54 1    
   103   52  113 1    
   104   53  114 1    
   105   53  115 1    
   106   53  116 1    
   107   54   55 am   BACKBONE|DICT|INTERRES
   108   54  117 1    
   109   55   56 2    
   110   55   57 1    
   111   57   58 1    
   112   57   59 1    
   113   57  118 1    
   114   58  119 1    
   115   58  120 1    
   116   58  121 1    
   117   59   60 am   BACKBONE|DICT|INTERRES
   118   59  122 1    
   119   60   61 2    
   120   60   62 1    
   121   62   63 1    
   122   62   64 1    
   123   62  123 1    
   124   63  124 1    
   125   63  125 1    
   126   63  126 1    
   127   64   65 am   BACKBONE|DICT|INTERRES
   128   64  127 1    
   129   65   66 2    
@<TRIPOS>SUBSTRUCTURE
     1 UNK         1 GROUP             0       ****    0 ROOT    
