@<TRIPOS>MOLECULE
3R134
127   129    1
SMALL
USER_CHARGES


@<TRIPOS>ATOM
      1 CA         38.1261  -44.0393  -51.1964 C.3       0 UNK        -0.1968 
      2 C          37.5026  -45.3116  -51.7499 C.2       0 UNK         0.4852 
      3 O          37.7066  -46.3894  -51.1896 O.2       0 UNK        -0.5359 
      4 N          36.7249  -45.1980  -52.8339 N.am      1 UNK        -0.4300 
      5 CA         36.0447  -46.2879  -53.5488 C.3       1 UNK         0.0863 
      6 C6         35.7879  -45.9082  -55.0342 C.3       11 UNK        -0.0953 
      7 S7         34.9254  -44.3081  -55.2699 S.3       11 UNK        -0.2369 
      8 C8         33.5740  -44.7368  -56.4251 C.3       11 UNK         0.0226 
      9 C9         32.1703  -44.4390  -55.8991 C.ar      11 UNK        -0.0699 
     10 C10        31.8480  -44.5600  -54.5427 C.ar      11 UNK        -0.0804 
     11 C11        30.5466  -44.3252  -54.0908 C.ar      11 UNK        -0.0871 
     12 C12        29.5527  -43.9764  -55.0081 C.ar      11 UNK        -0.1008 
     13 C13        29.8570  -43.8455  -56.3665 C.ar      11 UNK        -0.0735 
     14 C14        31.1659  -44.0768  -56.8028 C.ar      11 UNK        -0.0945 
     15 C15        28.7630  -43.5153  -57.3722 C.3       11 UNK         0.0169 
     16 S16        27.8830  -41.9745  -56.9789 S.3       11 UNK        -0.2669 
     17 C17        26.6444  -41.9341  -58.3190 C.3       11 UNK        -0.0850 
     18 CA         25.3083  -42.6079  -57.9099 C.3       10 UNK         0.0855 
     19 C          24.1539  -42.1697  -58.8509 C.2       10 UNK         0.5543 
     20 N          23.4657  -41.0857  -58.5211 N.am      10 UNK        -0.7343 
     21 O          23.9040  -42.7742  -59.8923 O.2       10 UNK        -0.5027 
     22 N          25.4335  -44.0720  -57.8701 N.am      10 UNK        -0.4495 
     23 C          24.6315  -44.8889  -57.1823 C.2       10 UNK         0.4903 
     24 O          23.7698  -44.4885  -56.3986 O.2       10 UNK        -0.4860 
     25 CA         24.7915  -46.4093  -57.3844 C.3       9 UNK         0.0227 
     26 CB         23.7586  -46.9311  -58.4018 C.3       9 UNK        -0.1964 
     27 N          26.1401  -46.9009  -57.7117 N.am      9 UNK        -0.4231 
     28 C          26.8765  -46.7005  -58.8157 C.2       9 UNK         0.5014 
     29 O          26.5735  -45.9061  -59.7063 O.2       9 UNK        -0.5270 
     30 CA         28.1714  -47.5214  -58.9631 C.3       8 UNK         0.0284 
     31 CB         29.3891  -46.7528  -58.4315 C.3       8 UNK        -0.1977 
     32 N          28.1170  -48.8288  -58.3090 N.am      8 UNK        -0.4342 
     33 C          27.3966  -49.8735  -58.7391 C.2       8 UNK         0.5039 
     34 O          26.6667  -49.8462  -59.7306 O.2       8 UNK        -0.5547 
     35 CA         27.5190  -51.1706  -57.9273 C.3       7 UNK         0.0281 
     36 CB         28.8184  -51.9137  -58.2808 C.3       7 UNK        -0.1963 
     37 N          27.4866  -50.8985  -56.4904 N.am      7 UNK        -0.4444 
     38 C          26.3664  -50.8391  -55.7586 C.2       7 UNK         0.5104 
     39 O          25.2417  -51.0668  -56.2052 O.2       7 UNK        -0.5100 
     40 CA         26.5189  -50.4647  -54.2727 C.3       6 UNK         0.0396 
     41 CB         26.6099  -51.7322  -53.4084 C.3       6 UNK        -0.1801 
     42 N          27.6738  -49.6068  -53.9927 N.am      6 UNK        -0.4747 
     43 C          27.8022  -48.3395  -54.4115 C.2       6 UNK         0.5012 
     44 O          26.9645  -47.7576  -55.0999 O.2       6 UNK        -0.5003 
     45 CA         29.1057  -47.6132  -54.0273 C.3       5 UNK         0.0782 
     46 C46        28.9452  -46.9766  -52.6236 C.3       11 UNK        -0.0868 
     47 S47        30.4425  -46.1440  -52.0054 S.3       11 UNK        -0.2515 
     48 C48        30.2251  -44.4427  -52.6090 C.3       11 UNK         0.0199 
     49 N          30.3114  -48.4478  -54.1503 N.am      5 UNK        -0.4607 
     50 C          30.6857  -49.1165  -55.2517 C.2       4 UNK         0.5031 
     51 O          29.9761  -49.2342  -56.2508 O.2       4 UNK        -0.5119 
     52 CA         32.0810  -49.7540  -55.2769 C.3       4 UNK         0.0263 
     53 CB         32.9992  -48.9541  -56.2134 C.3       4 UNK        -0.1967 
     54 N          32.7084  -49.8470  -53.9568 N.am      4 UNK        -0.4237 
     55 C          32.5766  -50.9001  -53.1364 C.2       3 UNK         0.4908 
     56 O          31.8381  -51.8566  -53.3743 O.2       3 UNK        -0.5102 
     57 CA         33.4252  -50.9243  -51.8508 C.3       3 UNK         0.0241 
     58 CB         34.6380  -51.8524  -52.0314 C.3       3 UNK        -0.1971 
     59 N          33.8982  -49.6018  -51.4398 N.am      3 UNK        -0.4139 
     60 C          33.1394  -48.6861  -50.8254 C.2       2 UNK         0.5016 
     61 O          31.9780  -48.8921  -50.4732 O.2       2 UNK        -0.5319 
     62 CA         33.7757  -47.3072  -50.5664 C.3       2 UNK         0.0286 
     63 CB         34.2838  -47.2152  -49.1187 C.3       2 UNK        -0.1963 
     64 N          34.8675  -46.9396  -51.4779 N.am      2 UNK        -0.4790 
     65 C          34.7903  -46.8234  -52.8114 C.2       1 UNK         0.5024 
     66 O          33.7879  -47.1454  -53.4490 O.2       1 UNK        -0.4888 
     67 H67        37.8586  -43.1635  -51.7875 H         1 UNK         0.0892 
     68 H68        37.7926  -43.8726  -50.1725 H         1 UNK         0.0892 
     69 H69        39.2123  -44.1260  -51.1916 H         1 UNK         0.0892 
     70 H70        36.5625  -44.2815  -53.2281 H         1 UNK         0.3107 
     71 H71        36.7339  -47.1350  -53.5675 H         1 UNK         0.0773 
     72 H72        35.2662  -46.7138  -55.5516 H         1 UNK         0.0680 
     73 H73        36.7476  -45.8246  -55.5461 H         1 UNK         0.0680 
     74 H74        33.6193  -45.7874  -56.7047 H         1 UNK         0.0650 
     75 H75        33.7463  -44.1760  -57.3442 H         1 UNK         0.0650 
     76 H76        32.6051  -44.8510  -53.8291 H         1 UNK         0.1397 
     77 H77        28.5398  -43.8059  -54.6694 H         1 UNK         0.1363 
     78 H78        31.4003  -43.9955  -57.8554 H         1 UNK         0.1355 
     79 H79        28.0525  -44.3397  -57.3796 H         1 UNK         0.0707 
     80 H80        29.1715  -43.4388  -58.3808 H         1 UNK         0.0707 
     81 H81        26.4833  -40.8807  -58.5577 H         1 UNK         0.1034 
     82 H82        27.0497  -42.3839  -59.2275 H         1 UNK         0.1034 
     83 H83        25.0551  -42.2652  -56.9041 H         1 UNK         0.0482 
     84 H84        22.7215  -40.7742  -59.1260 H         1 UNK         0.3460 
     85 H85        23.6683  -40.5766  -57.6745 H         1 UNK         0.3460 
     86 H86        26.0236  -44.4999  -58.5774 H         1 UNK         0.2989 
     87 H87        24.5549  -46.8659  -56.4220 H         1 UNK         0.0559 
     88 H88        23.9202  -46.5118  -59.3955 H         1 UNK         0.0848 
     89 H89        22.7446  -46.6654  -58.1000 H         1 UNK         0.0848 
     90 H90        23.7981  -48.0174  -58.4851 H         1 UNK         0.0848 
     91 H91        26.5453  -47.4822  -56.9826 H         1 UNK         0.3144 
     92 H92        28.3246  -47.6921  -60.0309 H         1 UNK         0.0727 
     93 H93        29.2990  -46.5432  -57.3652 H         1 UNK         0.0790 
     94 H94        29.5086  -45.8046  -58.9551 H         1 UNK         0.0790 
     95 H95        30.3100  -47.3174  -58.5794 H         1 UNK         0.0790 
     96 H96        28.7345  -48.9618  -57.5084 H         1 UNK         0.3215 
     97 H97        26.6799  -51.8164  -58.1963 H         1 UNK         0.0863 
     98 H98        28.8891  -52.8616  -57.7472 H         1 UNK         0.0808 
     99 H99        29.7049  -51.3264  -58.0381 H         1 UNK         0.0808 
    100 H100       28.8592  -52.1389  -59.3473 H         1 UNK         0.0808 
    101 H101       28.3623  -50.6333  -56.0565 H         1 UNK         0.3118 
    102 H102       25.6196  -49.9182  -53.9802 H         1 UNK         0.0546 
    103 H103       25.7488  -52.3809  -53.5755 H         1 UNK         0.0828 
    104 H104       26.6273  -51.4889  -52.3459 H         1 UNK         0.0828 
    105 H105       27.5043  -52.3136  -53.6358 H         1 UNK         0.0828 
    106 H106       28.4246  -50.0093  -53.4493 H         1 UNK         0.3005 
    107 H107       29.2288  -46.8049  -54.7502 H         1 UNK         0.1257 
    108 H108       28.6866  -47.7420  -51.8890 H         1 UNK         0.0775 
    109 H109       28.1178  -46.2643  -52.6181 H         1 UNK         0.0775 
    110 H110       29.2131  -44.0982  -52.3911 H         1 UNK         0.0840 
    111 H111       30.8960  -43.7870  -52.0521 H         1 UNK         0.0840 
    112 H112       30.9638  -48.3858  -53.3815 H         1 UNK         0.2987 
    113 H113       31.9707  -50.7561  -55.6963 H         1 UNK         0.0785 
    114 H114       33.0995  -47.9211  -55.8840 H         1 UNK         0.0798 
    115 H115       32.5997  -48.9326  -57.2284 H         1 UNK         0.0798 
    116 H116       33.9960  -49.3910  -56.2657 H         1 UNK         0.0798 
    117 H117       33.2745  -49.0533  -53.6726 H         1 UNK         0.3079 
    118 H118       32.7998  -51.3344  -51.0546 H         1 UNK         0.0794 
    119 H119       35.3078  -51.4958  -52.8150 H         1 UNK         0.0786 
    120 H120       34.3216  -52.8595  -52.3069 H         1 UNK         0.0786 
    121 H121       35.2136  -51.9376  -51.1094 H         1 UNK         0.0786 
    122 H122       34.8473  -49.3532  -51.6781 H         1 UNK         0.3032 
    123 H123       32.9872  -46.5645  -50.6953 H         1 UNK         0.1094 
    124 H124       34.6334  -46.2097  -48.8837 H         1 UNK         0.0794 
    125 H125       33.4898  -47.4537  -48.4094 H         1 UNK         0.0794 
    126 H126       35.1055  -47.9086  -48.9352 H         1 UNK         0.0794 
    127 H127       35.7640  -46.7167  -51.0550 H         1 UNK         0.3016 
@<TRIPOS>BOND
     1    1    2 1    
     2    1   67 1    
     3    1   68 1    
     4    1   69 1    
     5    2    3 2    
     6    2    4 am   BACKBONE|DICT|INTERRES
     7    4    5 1    
     8    4   70 1    
     9    5    6 1    
    10    5   65 1    
    11    5   71 1    
    12    6    7 1    
    13    6   72 1    
    14    6   73 1    
    15    7    8 1    
    16    8    9 1    
    17    8   74 1    
    18    8   75 1    
    19    9   10 ar   
    20    9   14 ar   
    21   10   11 ar   
    22   10   76 1    
    23   11   12 ar   
    24   11   48 1    
    25   12   13 ar   
    26   12   77 1    
    27   13   14 ar   
    28   13   15 1    
    29   14   78 1    
    30   15   16 1    
    31   15   79 1    
    32   15   80 1    
    33   16   17 1    
    34   17   18 1    
    35   17   81 1    
    36   17   82 1    
    37   18   19 1    
    38   18   22 1    
    39   18   83 1    
    40   19   20 am   BACKBONE|DICT|INTERRES
    41   19   21 2    
    42   20   84 1    
    43   20   85 1    
    44   22   23 am   BACKBONE|DICT|INTERRES
    45   22   86 1    
    46   23   24 2    
    47   23   25 1    
    48   25   26 1    
    49   25   27 1    
    50   25   87 1    
    51   26   88 1    
    52   26   89 1    
    53   26   90 1    
    54   27   28 am   BACKBONE|DICT|INTERRES
    55   27   91 1    
    56   28   29 2    
    57   28   30 1    
    58   30   31 1    
    59   30   32 1    
    60   30   92 1    
    61   31   93 1    
    62   31   94 1    
    63   31   95 1    
    64   32   33 am   BACKBONE|DICT|INTERRES
    65   32   96 1    
    66   33   34 2    
    67   33   35 1    
    68   35   36 1    
    69   35   37 1    
    70   35   97 1    
    71   36   98 1    
    72   36   99 1    
    73   36  100 1    
    74   37   38 am   BACKBONE|DICT|INTERRES
    75   37  101 1    
    76   38   39 2    
    77   38   40 1    
    78   40   41 1    
    79   40   42 1    
    80   40  102 1    
    81   41  103 1    
    82   41  104 1    
    83   41  105 1    
    84   42   43 am   BACKBONE|DICT|INTERRES
    85   42  106 1    
    86   43   44 2    
    87   43   45 1    
    88   45   46 1    
    89   45   49 1    
    90   45  107 1    
    91   46   47 1    
    92   46  108 1    
    93   46  109 1    
    94   47   48 1    
    95   48  110 1    
    96   48  111 1    
    97   49   50 am   BACKBONE|DICT|INTERRES
    98   49  112 1    
    99   50   51 2    
   100   50   52 1    
   101   52   53 1    
   102   52   54 1    
   103   52  113 1    
   104   53  114 1    
   105   53  115 1    
   106   53  116 1    
   107   54   55 am   BACKBONE|DICT|INTERRES
   108   54  117 1    
   109   55   56 2    
   110   55   57 1    
   111   57   58 1    
   112   57   59 1    
   113   57  118 1    
   114   58  119 1    
   115   58  120 1    
   116   58  121 1    
   117   59   60 am   BACKBONE|DICT|INTERRES
   118   59  122 1    
   119   60   61 2    
   120   60   62 1    
   121   62   63 1    
   122   62   64 1    
   123   62  123 1    
   124   63  124 1    
   125   63  125 1    
   126   63  126 1    
   127   64   65 am   BACKBONE|DICT|INTERRES
   128   64  127 1    
   129   65   66 2    
@<TRIPOS>SUBSTRUCTURE
     1 UNK         1 GROUP             0       ****    0 ROOT    
