@<TRIPOS>MOLECULE
3R134
127   129    1
SMALL
USER_CHARGES


@<TRIPOS>ATOM
      1 CA         33.4430  -42.7276  -52.7396 C.3       0 UNK        -0.1968 
      2 C          34.1461  -43.5317  -53.8228 C.2       0 UNK         0.4852 
      3 O          34.5981  -42.9569  -54.8144 O.2       0 UNK        -0.5359 
      4 N          34.2541  -44.8503  -53.6335 N.am      1 UNK        -0.4300 
      5 CA         34.9003  -45.7858  -54.5503 C.3       1 UNK         0.0863 
      6 C6         33.9880  -46.1795  -55.7449 C.3       11 UNK        -0.0953 
      7 S7         32.4929  -47.1153  -55.2686 S.3       11 UNK        -0.2369 
      8 C8         31.1874  -46.2091  -56.1554 C.3       11 UNK         0.0226 
      9 C9         30.8169  -44.8741  -55.5232 C.ar      11 UNK        -0.0699 
     10 C10        30.5349  -44.7816  -54.1573 C.ar      11 UNK        -0.0804 
     11 C11        30.0528  -43.5892  -53.6009 C.ar      11 UNK        -0.0871 
     12 C12        29.9022  -42.4708  -54.4268 C.ar      11 UNK        -0.1008 
     13 C13        30.1945  -42.5449  -55.7920 C.ar      11 UNK        -0.0735 
     14 C14        30.6596  -43.7467  -56.3317 C.ar      11 UNK        -0.0945 
     15 C15        29.9441  -41.3496  -56.6995 C.3       11 UNK         0.0169 
     16 S16        28.5497  -41.6485  -57.8379 S.3       11 UNK        -0.2669 
     17 C17        27.1459  -41.8501  -56.6833 C.3       11 UNK        -0.0850 
     18 CA         26.8808  -43.3279  -56.2810 C.3       10 UNK         0.0855 
     19 C          25.7422  -43.4322  -55.2263 C.2       10 UNK         0.5543 
     20 N          24.6677  -44.1695  -55.4779 N.am      10 UNK        -0.7343 
     21 O          25.8403  -42.8361  -54.1572 O.2       10 UNK        -0.5027 
     22 N          26.7132  -44.2066  -57.4519 N.am      10 UNK        -0.4495 
     23 C          27.0374  -45.5050  -57.4653 C.2       10 UNK         0.4903 
     24 O          27.5122  -46.0958  -56.4951 O.2       10 UNK        -0.4860 
     25 CA         26.7407  -46.2905  -58.7588 C.3       9 UNK         0.0227 
     26 CB         26.8713  -45.4426  -60.0452 C.3       9 UNK        -0.1964 
     27 N          27.5392  -47.5199  -58.8418 N.am      9 UNK        -0.4231 
     28 C          28.8732  -47.6162  -58.9654 C.2       9 UNK         0.5014 
     29 O          29.6237  -46.6571  -59.1514 O.2       9 UNK        -0.5270 
     30 CA         29.4583  -49.0330  -58.8503 C.3       8 UNK         0.0284 
     31 CB         30.9834  -49.0528  -58.6360 C.3       8 UNK        -0.1977 
     32 N          28.8015  -49.7563  -57.7601 N.am      8 UNK        -0.4342 
     33 C          28.2211  -50.9558  -57.8823 C.2       8 UNK         0.5039 
     34 O          28.2399  -51.6294  -58.9132 O.2       8 UNK        -0.5547 
     35 CA         27.4701  -51.4945  -56.6534 C.3       7 UNK         0.0281 
     36 CB         28.4251  -52.3074  -55.7638 C.3       7 UNK        -0.1963 
     37 N          26.8151  -50.4621  -55.8429 N.am      7 UNK        -0.4444 
     38 C          25.8541  -49.6211  -56.2587 C.2       7 UNK         0.5104 
     39 O          25.4360  -49.5640  -57.4150 O.2       7 UNK        -0.5100 
     40 CA         25.2988  -48.6581  -55.2025 C.3       6 UNK         0.0396 
     41 CB         24.3105  -49.3850  -54.2692 C.3       6 UNK        -0.1801 
     42 N          26.4195  -48.0803  -54.4679 N.am      6 UNK        -0.4747 
     43 C          26.4048  -47.1042  -53.5575 C.2       6 UNK         0.5012 
     44 O          25.3742  -46.6022  -53.1060 O.2       6 UNK        -0.5003 
     45 CA         27.7938  -46.6289  -53.0678 C.3       5 UNK         0.0782 
     46 C46        27.6945  -45.5085  -51.9938 C.3       11 UNK        -0.0868 
     47 S47        29.3034  -45.0290  -51.2656 S.3       11 UNK        -0.2515 
     48 C48        29.6842  -43.4607  -52.1218 C.3       11 UNK         0.0199 
     49 N          28.6396  -47.7452  -52.6182 N.am      5 UNK        -0.4607 
     50 C          29.2771  -48.6332  -53.3897 C.2       4 UNK         0.5031 
     51 O          29.1537  -48.7099  -54.6172 O.2       4 UNK        -0.5119 
     52 CA         30.1686  -49.6365  -52.6561 C.3       4 UNK         0.0263 
     53 CB         29.3412  -50.8143  -52.1091 C.3       4 UNK        -0.1967 
     54 N          31.1795  -50.1179  -53.5898 N.am      4 UNK        -0.4237 
     55 C          32.3782  -50.6078  -53.2565 C.2       3 UNK         0.4908 
     56 O          32.7476  -50.7585  -52.0909 O.2       3 UNK        -0.5102 
     57 CA         33.3273  -51.0016  -54.4043 C.3       3 UNK         0.0241 
     58 CB         32.6629  -51.0181  -55.7976 C.3       3 UNK        -0.1971 
     59 N          34.4705  -50.0897  -54.4310 N.am      3 UNK        -0.4139 
     60 C          35.6135  -50.2538  -53.7498 C.2       2 UNK         0.5016 
     61 O          35.8700  -51.2482  -53.0691 O.2       2 UNK        -0.5319 
     62 CA         36.6721  -49.1371  -53.8597 C.3       2 UNK         0.0286 
     63 CB         37.8632  -49.6079  -54.7115 C.3       2 UNK        -0.1963 
     64 N          36.1577  -47.8823  -54.4209 N.am      2 UNK        -0.4790 
     65 C          35.4021  -47.0026  -53.7499 C.2       1 UNK         0.5024 
     66 O          35.0857  -47.1378  -52.5647 O.2       1 UNK        -0.4888 
     67 H67        34.1481  -42.0548  -52.2526 H         1 UNK         0.0892 
     68 H68        32.6463  -42.1278  -53.1784 H         1 UNK         0.0892 
     69 H69        33.0026  -43.3714  -51.9784 H         1 UNK         0.0892 
     70 H70        33.9251  -45.2846  -52.7803 H         1 UNK         0.3107 
     71 H71        35.7932  -45.2990  -54.9488 H         1 UNK         0.0773 
     72 H72        34.5425  -46.7772  -56.4695 H         1 UNK         0.0680 
     73 H73        33.6919  -45.2786  -56.2844 H         1 UNK         0.0680 
     74 H74        30.2901  -46.8279  -56.1795 H         1 UNK         0.0650 
     75 H75        31.4950  -46.0775  -57.1938 H         1 UNK         0.0650 
     76 H76        30.6610  -45.6601  -53.5418 H         1 UNK         0.1397 
     77 H77        29.5271  -41.5455  -54.0108 H         1 UNK         0.1363 
     78 H78        30.8476  -43.8154  -57.3945 H         1 UNK         0.1355 
     79 H79        29.7491  -40.4479  -56.1169 H         1 UNK         0.0707 
     80 H80        30.8429  -41.1496  -57.2844 H         1 UNK         0.0707 
     81 H81        27.3323  -41.2391  -55.7979 H         1 UNK         0.1034 
     82 H82        26.2581  -41.4258  -57.1553 H         1 UNK         0.1034 
     83 H83        27.7639  -43.6770  -55.7479 H         1 UNK         0.0482 
     84 H84        24.5807  -44.6651  -56.3494 H         1 UNK         0.3460 
     85 H85        23.9480  -44.2459  -54.7769 H         1 UNK         0.3460 
     86 H86        26.3298  -43.7804  -58.2819 H         1 UNK         0.2989 
     87 H87        25.7036  -46.6198  -58.6825 H         1 UNK         0.0559 
     88 H88        26.0979  -44.6760  -60.0979 H         1 UNK         0.0848 
     89 H89        26.7640  -46.0595  -60.9374 H         1 UNK         0.0848 
     90 H90        27.8368  -44.9384  -60.1045 H         1 UNK         0.0848 
     91 H91        27.0263  -48.3729  -58.6551 H         1 UNK         0.3144 
     92 H92        29.2515  -49.5155  -59.8078 H         1 UNK         0.0727 
     93 H93        31.5024  -48.5338  -59.4427 H         1 UNK         0.0790 
     94 H94        31.2631  -48.5695  -57.7019 H         1 UNK         0.0790 
     95 H95        31.3644  -50.0737  -58.6116 H         1 UNK         0.0790 
     96 H96        28.7407  -49.2733  -56.8707 H         1 UNK         0.3215 
     97 H97        26.6884  -52.1638  -57.0189 H         1 UNK         0.0863 
     98 H98        27.8949  -52.7813  -54.9377 H         1 UNK         0.0808 
     99 H99        29.2154  -51.6835  -55.3460 H         1 UNK         0.0808 
    100 H100       28.9070  -53.1027  -56.3342 H         1 UNK         0.0808 
    101 H101       27.0850  -50.4234  -54.8713 H         1 UNK         0.3118 
    102 H102       24.7776  -47.8497  -55.7190 H         1 UNK         0.0546 
    103 H103       24.8074  -50.1417  -53.6614 H         1 UNK         0.0828 
    104 H104       23.5305  -49.8868  -54.8434 H         1 UNK         0.0828 
    105 H105       23.8098  -48.6914  -53.5943 H         1 UNK         0.0828 
    106 H106       27.3447  -48.3621  -54.7864 H         1 UNK         0.3005 
    107 H107       28.2670  -46.1923  -53.9487 H         1 UNK         0.1257 
    108 H108       27.0580  -45.8327  -51.1684 H         1 UNK         0.0775 
    109 H109       27.2125  -44.6241  -52.4148 H         1 UNK         0.0775 
    110 H110       28.8294  -42.7915  -52.0088 H         1 UNK         0.0840 
    111 H111       30.5153  -42.9826  -51.6028 H         1 UNK         0.0840 
    112 H112       28.7827  -47.7891  -51.6197 H         1 UNK         0.2987 
    113 H113       30.6628  -49.1180  -51.8314 H         1 UNK         0.0785 
    114 H114       28.5777  -50.4684  -51.4113 H         1 UNK         0.0798 
    115 H115       29.9696  -51.5242  -51.5710 H         1 UNK         0.0798 
    116 H116       28.8332  -51.3572  -52.9058 H         1 UNK         0.0798 
    117 H117       30.9547  -49.9498  -54.5623 H         1 UNK         0.3079 
    118 H118       33.6741  -52.0157  -54.1945 H         1 UNK         0.0794 
    119 H119       33.3616  -51.3704  -56.5567 H         1 UNK         0.0786 
    120 H120       32.3217  -50.0299  -56.1038 H         1 UNK         0.0786 
    121 H121       31.8056  -51.6923  -55.8211 H         1 UNK         0.0786 
    122 H122       34.3412  -49.2211  -54.9290 H         1 UNK         0.3032 
    123 H123       37.0336  -48.9415  -52.8472 H         1 UNK         0.1094 
    124 H124       37.5662  -49.8215  -55.7390 H         1 UNK         0.0794 
    125 H125       38.6542  -48.8582  -54.7378 H         1 UNK         0.0794 
    126 H126       38.2998  -50.5205  -54.3029 H         1 UNK         0.0794 
    127 H127       36.3819  -47.6968  -55.3886 H         1 UNK         0.3016 
@<TRIPOS>BOND
     1    1    2 1    
     2    1   67 1    
     3    1   68 1    
     4    1   69 1    
     5    2    3 2    
     6    2    4 am   BACKBONE|DICT|INTERRES
     7    4    5 1    
     8    4   70 1    
     9    5    6 1    
    10    5   65 1    
    11    5   71 1    
    12    6    7 1    
    13    6   72 1    
    14    6   73 1    
    15    7    8 1    
    16    8    9 1    
    17    8   74 1    
    18    8   75 1    
    19    9   10 ar   
    20    9   14 ar   
    21   10   11 ar   
    22   10   76 1    
    23   11   12 ar   
    24   11   48 1    
    25   12   13 ar   
    26   12   77 1    
    27   13   14 ar   
    28   13   15 1    
    29   14   78 1    
    30   15   16 1    
    31   15   79 1    
    32   15   80 1    
    33   16   17 1    
    34   17   18 1    
    35   17   81 1    
    36   17   82 1    
    37   18   19 1    
    38   18   22 1    
    39   18   83 1    
    40   19   20 am   BACKBONE|DICT|INTERRES
    41   19   21 2    
    42   20   84 1    
    43   20   85 1    
    44   22   23 am   BACKBONE|DICT|INTERRES
    45   22   86 1    
    46   23   24 2    
    47   23   25 1    
    48   25   26 1    
    49   25   27 1    
    50   25   87 1    
    51   26   88 1    
    52   26   89 1    
    53   26   90 1    
    54   27   28 am   BACKBONE|DICT|INTERRES
    55   27   91 1    
    56   28   29 2    
    57   28   30 1    
    58   30   31 1    
    59   30   32 1    
    60   30   92 1    
    61   31   93 1    
    62   31   94 1    
    63   31   95 1    
    64   32   33 am   BACKBONE|DICT|INTERRES
    65   32   96 1    
    66   33   34 2    
    67   33   35 1    
    68   35   36 1    
    69   35   37 1    
    70   35   97 1    
    71   36   98 1    
    72   36   99 1    
    73   36  100 1    
    74   37   38 am   BACKBONE|DICT|INTERRES
    75   37  101 1    
    76   38   39 2    
    77   38   40 1    
    78   40   41 1    
    79   40   42 1    
    80   40  102 1    
    81   41  103 1    
    82   41  104 1    
    83   41  105 1    
    84   42   43 am   BACKBONE|DICT|INTERRES
    85   42  106 1    
    86   43   44 2    
    87   43   45 1    
    88   45   46 1    
    89   45   49 1    
    90   45  107 1    
    91   46   47 1    
    92   46  108 1    
    93   46  109 1    
    94   47   48 1    
    95   48  110 1    
    96   48  111 1    
    97   49   50 am   BACKBONE|DICT|INTERRES
    98   49  112 1    
    99   50   51 2    
   100   50   52 1    
   101   52   53 1    
   102   52   54 1    
   103   52  113 1    
   104   53  114 1    
   105   53  115 1    
   106   53  116 1    
   107   54   55 am   BACKBONE|DICT|INTERRES
   108   54  117 1    
   109   55   56 2    
   110   55   57 1    
   111   57   58 1    
   112   57   59 1    
   113   57  118 1    
   114   58  119 1    
   115   58  120 1    
   116   58  121 1    
   117   59   60 am   BACKBONE|DICT|INTERRES
   118   59  122 1    
   119   60   61 2    
   120   60   62 1    
   121   62   63 1    
   122   62   64 1    
   123   62  123 1    
   124   63  124 1    
   125   63  125 1    
   126   63  126 1    
   127   64   65 am   BACKBONE|DICT|INTERRES
   128   64  127 1    
   129   65   66 2    
@<TRIPOS>SUBSTRUCTURE
     1 UNK         1 GROUP             0       ****    0 ROOT    
