@<TRIPOS>MOLECULE
3R134
127   129    1
SMALL
USER_CHARGES


@<TRIPOS>ATOM
      1 CA         38.2939  -44.4914  -54.9010 C.3       0 UNK        -0.1968 
      2 C          36.9870  -45.2299  -54.6505 C.2       0 UNK         0.4852 
      3 O          36.9994  -46.2831  -54.0118 O.2       0 UNK        -0.5359 
      4 N          35.8703  -44.6796  -55.1493 N.am      1 UNK        -0.4300 
      5 CA         34.5058  -45.2178  -55.0558 C.3       1 UNK         0.0863 
      6 C6         33.9379  -45.2744  -53.6023 C.3       11 UNK        -0.0953 
      7 S7         34.1946  -43.7646  -52.6076 S.3       11 UNK        -0.2369 
      8 C8         33.1992  -42.5116  -53.4816 C.3       11 UNK         0.0226 
      9 C9         31.6916  -42.7502  -53.4508 C.ar      11 UNK        -0.0699 
     10 C10        31.0417  -43.2178  -52.3019 C.ar      11 UNK        -0.0804 
     11 C11        29.6508  -43.3674  -52.2789 C.ar      11 UNK        -0.0871 
     12 C12        28.9052  -43.0477  -53.4183 C.ar      11 UNK        -0.1008 
     13 C13        29.5394  -42.5587  -54.5649 C.ar      11 UNK        -0.0735 
     14 C14        30.9299  -42.4183  -54.5743 C.ar      11 UNK        -0.0945 
     15 C15        28.7254  -42.1240  -55.7751 C.3       11 UNK         0.0169 
     16 S16        29.0861  -43.1491  -57.2305 S.3       11 UNK        -0.2669 
     17 C17        27.9676  -42.4039  -58.4671 C.3       11 UNK        -0.0850 
     18 CA         26.5326  -42.9892  -58.4154 C.3       10 UNK         0.0855 
     19 C          25.6367  -42.3556  -59.5135 C.2       10 UNK         0.5543 
     20 N          24.9795  -41.2445  -59.2109 N.am      10 UNK        -0.7343 
     21 O          25.5687  -42.8334  -60.6446 O.2       10 UNK        -0.5027 
     22 N          26.5560  -44.4545  -58.4700 N.am      10 UNK        -0.4495 
     23 C          25.5323  -45.2693  -58.2067 C.2       10 UNK         0.4903 
     24 O          24.4029  -44.8778  -57.9106 O.2       10 UNK        -0.4860 
     25 CA         25.8152  -46.7814  -58.2311 C.3       9 UNK         0.0227 
     26 CB         25.5225  -47.3852  -59.6179 C.3       9 UNK        -0.1964 
     27 N          27.1473  -47.1654  -57.7401 N.am      9 UNK        -0.4231 
     28 C          28.3556  -46.9872  -58.2975 C.2       9 UNK         0.5014 
     29 O          28.5478  -46.3701  -59.3457 O.2       9 UNK        -0.5270 
     30 CA         29.5560  -47.6075  -57.5563 C.3       8 UNK         0.0284 
     31 CB         30.1449  -46.6096  -56.5433 C.3       8 UNK        -0.1977 
     32 N          29.2081  -48.8583  -56.8746 N.am      8 UNK        -0.4342 
     33 C          28.8459  -49.9924  -57.4950 C.2       8 UNK         0.5039 
     34 O          28.8692  -50.1469  -58.7164 O.2       8 UNK        -0.5547 
     35 CA         28.3394  -51.1374  -56.6036 C.3       7 UNK         0.0281 
     36 CB         29.5073  -51.9982  -56.0916 C.3       7 UNK        -0.1963 
     37 N          27.5510  -50.6299  -55.4769 N.am      7 UNK        -0.4444 
     38 C          26.2776  -50.2173  -55.5730 C.2       7 UNK         0.5104 
     39 O          25.6075  -50.2989  -56.6019 O.2       7 UNK        -0.5100 
     40 CA         25.6430  -49.5911  -54.3164 C.3       6 UNK         0.0396 
     41 CB         24.9265  -50.6675  -53.4860 C.3       6 UNK        -0.1801 
     42 N          26.6085  -48.8875  -53.4678 N.am      6 UNK        -0.4747 
     43 C          27.2428  -47.7535  -53.8049 C.2       6 UNK         0.5012 
     44 O          27.0297  -47.1439  -54.8515 O.2       6 UNK        -0.5003 
     45 CA         28.3497  -47.2632  -52.8452 C.3       5 UNK         0.0782 
     46 C46        27.7800  -46.2579  -51.8177 C.3       11 UNK        -0.0868 
     47 S47        29.0726  -45.5970  -50.7108 S.3       11 UNK        -0.2515 
     48 C48        28.9547  -43.8035  -50.9967 C.3       11 UNK         0.0199 
     49 N          29.0508  -48.3857  -52.2020 N.am      5 UNK        -0.4607 
     50 C          29.7659  -49.2984  -52.8673 C.2       4 UNK         0.5031 
     51 O          29.9181  -49.2784  -54.0924 O.2       4 UNK        -0.5119 
     52 CA         30.3400  -50.4630  -52.0558 C.3       4 UNK         0.0263 
     53 CB         29.2554  -51.5196  -51.7728 C.3       4 UNK        -0.1967 
     54 N          31.4144  -51.0448  -52.8472 N.am      4 UNK        -0.4237 
     55 C          32.4127  -51.8192  -52.4113 C.2       3 UNK         0.4908 
     56 O          32.5050  -52.2384  -51.2569 O.2       3 UNK        -0.5102 
     57 CA         33.5089  -52.1752  -53.4376 C.3       3 UNK         0.0241 
     58 CB         33.2423  -53.5644  -54.0407 C.3       3 UNK        -0.1971 
     59 N          33.6529  -51.1974  -54.5267 N.am      3 UNK        -0.4139 
     60 C          33.9910  -49.9103  -54.3605 C.2       2 UNK         0.5016 
     61 O          34.2686  -49.4167  -53.2630 O.2       2 UNK        -0.5319 
     62 CA         33.9819  -49.0148  -55.6109 C.3       2 UNK         0.0286 
     63 CB         32.7678  -49.2758  -56.5266 C.3       2 UNK        -0.1963 
     64 N          33.9889  -47.6301  -55.1481 N.am      2 UNK        -0.4790 
     65 C          34.4109  -46.5581  -55.8252 C.2       1 UNK         0.5024 
     66 O          34.7383  -46.5924  -57.0133 O.2       1 UNK        -0.4888 
     67 H67        38.7625  -44.2277  -53.9532 H         1 UNK         0.0892 
     68 H68        38.9829  -45.1264  -55.4573 H         1 UNK         0.0892 
     69 H69        38.1432  -43.5743  -55.4704 H         1 UNK         0.0892 
     70 H70        35.9515  -43.8290  -55.6879 H         1 UNK         0.3107 
     71 H71        33.8769  -44.5265  -55.6180 H         1 UNK         0.0773 
     72 H72        32.8683  -45.4928  -53.6212 H         1 UNK         0.0680 
     73 H73        34.4063  -46.0825  -53.0378 H         1 UNK         0.0680 
     74 H74        33.5576  -42.4349  -54.5087 H         1 UNK         0.0650 
     75 H75        33.3956  -41.5430  -53.0207 H         1 UNK         0.0650 
     76 H76        31.6148  -43.4472  -51.4141 H         1 UNK         0.1397 
     77 H77        27.8282  -43.1447  -53.4004 H         1 UNK         0.1363 
     78 H78        31.4153  -42.0277  -55.4585 H         1 UNK         0.1355 
     79 H79        28.9499  -41.0806  -56.0011 H         1 UNK         0.0707 
     80 H80        27.6573  -42.1742  -55.5587 H         1 UNK         0.0707 
     81 H81        27.9486  -41.3213  -58.3271 H         1 UNK         0.1034 
     82 H82        28.4068  -42.5707  -59.4528 H         1 UNK         0.1034 
     83 H83        26.1016  -42.7245  -57.4478 H         1 UNK         0.0482 
     84 H84        25.0346  -40.8387  -58.2895 H         1 UNK         0.3460 
     85 H85        24.4053  -40.8080  -59.9153 H         1 UNK         0.3460 
     86 H86        27.4338  -44.8803  -58.7491 H         1 UNK         0.2989 
     87 H87        25.1164  -47.2359  -57.5268 H         1 UNK         0.0559 
     88 H88        24.4906  -47.1932  -59.9143 H         1 UNK         0.0848 
     89 H89        25.6646  -48.4661  -59.6158 H         1 UNK         0.0848 
     90 H90        26.1639  -46.9626  -60.3917 H         1 UNK         0.0848 
     91 H91        27.1433  -47.5517  -56.8011 H         1 UNK         0.3144 
     92 H92        30.3251  -47.8382  -58.2963 H         1 UNK         0.0727 
     93 H93        29.3851  -46.2218  -55.8646 H         1 UNK         0.0790 
     94 H94        30.5806  -45.7540  -57.0598 H         1 UNK         0.0790 
     95 H95        30.9352  -47.0542  -55.9398 H         1 UNK         0.0790 
     96 H96        29.2467  -48.8577  -55.8594 H         1 UNK         0.3215 
     97 H97        27.6970  -51.7759  -57.2146 H         1 UNK         0.0863 
     98 H98        29.1561  -52.8048  -55.4480 H         1 UNK         0.0808 
     99 H99        30.2355  -51.4140  -55.5320 H         1 UNK         0.0808 
    100 H100       30.0394  -52.4583  -56.9253 H         1 UNK         0.0808 
    101 H101       28.0439  -50.4791  -54.6088 H         1 UNK         0.3118 
    102 H102       24.8973  -48.8662  -54.6502 H         1 UNK         0.0546 
    103 H103       25.6221  -51.4162  -53.1047 H         1 UNK         0.0828 
    104 H104       24.1821  -51.1917  -54.0872 H         1 UNK         0.0828 
    105 H105       24.4026  -50.2304  -52.6359 H         1 UNK         0.0828 
    106 H106       26.8383  -49.3176  -52.5835 H         1 UNK         0.3005 
    107 H107       29.0825  -46.7322  -53.4578 H         1 UNK         0.1257 
    108 H108       27.0149  -46.7306  -51.1988 H         1 UNK         0.0775 
    109 H109       27.2856  -45.4315  -52.3318 H         1 UNK         0.0775 
    110 H110       27.9075  -43.4970  -50.9956 H         1 UNK         0.0840 
    111 H111       29.4138  -43.2892  -50.1510 H         1 UNK         0.0840 
    112 H112       28.9745  -48.4443  -51.1965 H         1 UNK         0.2987 
    113 H113       30.7484  -50.0769  -51.1195 H         1 UNK         0.0785 
    114 H114       28.4313  -51.0969  -51.1971 H         1 UNK         0.0798 
    115 H115       29.6549  -52.3521  -51.1935 H         1 UNK         0.0798 
    116 H116       28.8387  -51.9280  -52.6945 H         1 UNK         0.0798 
    117 H117       31.4330  -50.7063  -53.8006 H         1 UNK         0.3079 
    118 H118       34.4576  -52.2104  -52.8979 H         1 UNK         0.0794 
    119 H119       34.0533  -53.8747  -54.6998 H         1 UNK         0.0786 
    120 H120       32.3145  -53.5848  -54.6142 H         1 UNK         0.0786 
    121 H121       33.1575  -54.3198  -53.2580 H         1 UNK         0.0786 
    122 H122       33.4540  -51.5293  -55.4593 H         1 UNK         0.3032 
    123 H123       34.9047  -49.2060  -56.1633 H         1 UNK         0.1094 
    124 H124       31.8344  -49.2468  -55.9666 H         1 UNK         0.0794 
    125 H125       32.7001  -48.5370  -57.3251 H         1 UNK         0.0794 
    126 H126       32.8314  -50.2517  -57.0081 H         1 UNK         0.0794 
    127 H127       33.8297  -47.5480  -54.1506 H         1 UNK         0.3016 
@<TRIPOS>BOND
     1    1    2 1    
     2    1   67 1    
     3    1   68 1    
     4    1   69 1    
     5    2    3 2    
     6    2    4 am   BACKBONE|DICT|INTERRES
     7    4    5 1    
     8    4   70 1    
     9    5    6 1    
    10    5   65 1    
    11    5   71 1    
    12    6    7 1    
    13    6   72 1    
    14    6   73 1    
    15    7    8 1    
    16    8    9 1    
    17    8   74 1    
    18    8   75 1    
    19    9   10 ar   
    20    9   14 ar   
    21   10   11 ar   
    22   10   76 1    
    23   11   12 ar   
    24   11   48 1    
    25   12   13 ar   
    26   12   77 1    
    27   13   14 ar   
    28   13   15 1    
    29   14   78 1    
    30   15   16 1    
    31   15   79 1    
    32   15   80 1    
    33   16   17 1    
    34   17   18 1    
    35   17   81 1    
    36   17   82 1    
    37   18   19 1    
    38   18   22 1    
    39   18   83 1    
    40   19   20 am   BACKBONE|DICT|INTERRES
    41   19   21 2    
    42   20   84 1    
    43   20   85 1    
    44   22   23 am   BACKBONE|DICT|INTERRES
    45   22   86 1    
    46   23   24 2    
    47   23   25 1    
    48   25   26 1    
    49   25   27 1    
    50   25   87 1    
    51   26   88 1    
    52   26   89 1    
    53   26   90 1    
    54   27   28 am   BACKBONE|DICT|INTERRES
    55   27   91 1    
    56   28   29 2    
    57   28   30 1    
    58   30   31 1    
    59   30   32 1    
    60   30   92 1    
    61   31   93 1    
    62   31   94 1    
    63   31   95 1    
    64   32   33 am   BACKBONE|DICT|INTERRES
    65   32   96 1    
    66   33   34 2    
    67   33   35 1    
    68   35   36 1    
    69   35   37 1    
    70   35   97 1    
    71   36   98 1    
    72   36   99 1    
    73   36  100 1    
    74   37   38 am   BACKBONE|DICT|INTERRES
    75   37  101 1    
    76   38   39 2    
    77   38   40 1    
    78   40   41 1    
    79   40   42 1    
    80   40  102 1    
    81   41  103 1    
    82   41  104 1    
    83   41  105 1    
    84   42   43 am   BACKBONE|DICT|INTERRES
    85   42  106 1    
    86   43   44 2    
    87   43   45 1    
    88   45   46 1    
    89   45   49 1    
    90   45  107 1    
    91   46   47 1    
    92   46  108 1    
    93   46  109 1    
    94   47   48 1    
    95   48  110 1    
    96   48  111 1    
    97   49   50 am   BACKBONE|DICT|INTERRES
    98   49  112 1    
    99   50   51 2    
   100   50   52 1    
   101   52   53 1    
   102   52   54 1    
   103   52  113 1    
   104   53  114 1    
   105   53  115 1    
   106   53  116 1    
   107   54   55 am   BACKBONE|DICT|INTERRES
   108   54  117 1    
   109   55   56 2    
   110   55   57 1    
   111   57   58 1    
   112   57   59 1    
   113   57  118 1    
   114   58  119 1    
   115   58  120 1    
   116   58  121 1    
   117   59   60 am   BACKBONE|DICT|INTERRES
   118   59  122 1    
   119   60   61 2    
   120   60   62 1    
   121   62   63 1    
   122   62   64 1    
   123   62  123 1    
   124   63  124 1    
   125   63  125 1    
   126   63  126 1    
   127   64   65 am   BACKBONE|DICT|INTERRES
   128   64  127 1    
   129   65   66 2    
@<TRIPOS>SUBSTRUCTURE
     1 UNK         1 GROUP             0       ****    0 ROOT    
