@<TRIPOS>MOLECULE
3R134
127   129    1
SMALL
USER_CHARGES


@<TRIPOS>ATOM
      1 CA         38.3819  -46.0866  -51.2817 C.3       0 UNK        -0.1968 
      2 C          37.0076  -45.7267  -51.8268 C.2       0 UNK         0.4852 
      3 O          36.2482  -45.0332  -51.1502 O.2       0 UNK        -0.5359 
      4 N          36.6826  -46.2058  -53.0375 N.am      1 UNK        -0.4300 
      5 CA         35.4279  -45.9747  -53.7738 C.3       1 UNK         0.0863 
      6 C6         35.1361  -44.4637  -54.0058 C.3       11 UNK        -0.0953 
      7 S7         34.3019  -44.1139  -55.5918 S.3       11 UNK        -0.2369 
      8 C8         33.4376  -42.5562  -55.2104 C.3       11 UNK         0.0226 
      9 C9         31.9798  -42.7735  -54.8226 C.ar      11 UNK        -0.0699 
     10 C10        31.6451  -43.2499  -53.5523 C.ar      11 UNK        -0.0804 
     11 C11        30.3070  -43.4262  -53.1834 C.ar      11 UNK        -0.0871 
     12 C12        29.2965  -43.0894  -54.0862 C.ar      11 UNK        -0.1008 
     13 C13        29.6150  -42.6033  -55.3582 C.ar      11 UNK        -0.0735 
     14 C14        30.9577  -42.4598  -55.7243 C.ar      11 UNK        -0.0945 
     15 C15        28.5127  -42.2005  -56.3269 C.3       11 UNK         0.0169 
     16 S16        27.3584  -43.5679  -56.6475 S.3       11 UNK        -0.2669 
     17 C17        26.5228  -42.9730  -58.1631 C.3       11 UNK        -0.0850 
     18 CA         27.0441  -43.6464  -59.4628 C.3       10 UNK         0.0855 
     19 C          28.3799  -43.0215  -59.9573 C.2       10 UNK         0.5543 
     20 N          28.3176  -41.8449  -60.5659 N.am      10 UNK        -0.7343 
     21 O          29.4660  -43.5671  -59.7706 O.2       10 UNK        -0.5027 
     22 N          27.1065  -45.1000  -59.2909 N.am      10 UNK        -0.4495 
     23 C          27.2871  -46.0146  -60.2467 C.2       10 UNK         0.4903 
     24 O          27.3262  -45.7593  -61.4508 O.2       10 UNK        -0.4860 
     25 CA         27.4510  -47.4694  -59.7717 C.3       9 UNK         0.0227 
     26 CB         28.9352  -47.8695  -59.7877 C.3       9 UNK        -0.1964 
     27 N          26.9056  -47.7123  -58.4308 N.am      9 UNK        -0.4231 
     28 C          25.6002  -47.7585  -58.1261 C.2       9 UNK         0.5014 
     29 O          24.6957  -47.5537  -58.9383 O.2       9 UNK        -0.5270 
     30 CA         25.2730  -48.1338  -56.6675 C.3       8 UNK         0.0284 
     31 CB         23.7645  -48.3242  -56.4023 C.3       8 UNK        -0.1977 
     32 N          26.0434  -49.3084  -56.2413 N.am      8 UNK        -0.4342 
     33 C          26.0230  -50.5361  -56.7856 C.2       8 UNK         0.5039 
     34 O          25.2246  -50.8977  -57.6511 O.2       8 UNK        -0.5547 
     35 CA         27.1044  -51.5273  -56.3234 C.3       7 UNK         0.0281 
     36 CB         28.1923  -51.6551  -57.4027 C.3       7 UNK        -0.1963 
     37 N          27.7282  -51.1571  -55.0498 N.am      7 UNK        -0.4444 
     38 C          27.1415  -51.3244  -53.8566 C.2       7 UNK         0.5104 
     39 O          26.0273  -51.8270  -53.7053 O.2       7 UNK        -0.5100 
     40 CA         27.9204  -50.8424  -52.6236 C.3       6 UNK         0.0396 
     41 CB         29.0051  -51.8603  -52.2376 C.3       6 UNK        -0.1801 
     42 N          28.5287  -49.5218  -52.7945 N.am      6 UNK        -0.4747 
     43 C          27.8587  -48.3702  -52.9646 C.2       6 UNK         0.5012 
     44 O          26.6340  -48.2882  -53.0561 O.2       6 UNK        -0.5003 
     45 CA         28.7236  -47.0967  -53.0538 C.3       5 UNK         0.0782 
     46 C46        29.2364  -46.7238  -51.6312 C.3       11 UNK        -0.0868 
     47 S47        30.6756  -45.6100  -51.5418 S.3       11 UNK        -0.2515 
     48 C48        29.9612  -43.9589  -51.8011 C.3       11 UNK         0.0199 
     49 N          29.7793  -47.2623  -54.0564 N.am      5 UNK        -0.4607 
     50 C          29.5673  -47.4593  -55.3677 C.2       4 UNK         0.5031 
     51 O          28.4581  -47.4662  -55.9045 O.2       4 UNK        -0.5119 
     52 CA         30.8016  -47.7626  -56.2246 C.3       4 UNK         0.0263 
     53 CB         31.4739  -46.4582  -56.6812 C.3       4 UNK        -0.1967 
     54 N          31.7570  -48.6181  -55.5164 N.am      4 UNK        -0.4237 
     55 C          31.5270  -49.9087  -55.2237 C.2       3 UNK         0.4908 
     56 O          30.5020  -50.5091  -55.5442 O.2       3 UNK        -0.5102 
     57 CA         32.5941  -50.6542  -54.4053 C.3       3 UNK         0.0241 
     58 CB         33.6788  -51.2295  -55.3294 C.3       3 UNK        -0.1971 
     59 N          33.2163  -49.8209  -53.3770 N.am      3 UNK        -0.4139 
     60 C          32.5678  -49.2794  -52.3365 C.2       2 UNK         0.5016 
     61 O          31.3757  -49.4714  -52.0942 O.2       2 UNK        -0.5319 
     62 CA         33.3815  -48.3280  -51.4424 C.3       2 UNK         0.0286 
     63 CB         34.0283  -49.1026  -50.2837 C.3       2 UNK        -0.1963 
     64 N          34.4160  -47.5608  -52.1517 N.am      2 UNK        -0.4790 
     65 C          34.2114  -46.7432  -53.1984 C.2       1 UNK         0.5024 
     66 O          33.1152  -46.6281  -53.7442 O.2       1 UNK        -0.4888 
     67 H67        38.9467  -46.7107  -51.9740 H         1 UNK         0.0892 
     68 H68        38.9590  -45.1813  -51.0948 H         1 UNK         0.0892 
     69 H69        38.2831  -46.6275  -50.3409 H         1 UNK         0.0892 
     70 H70        37.3572  -46.7792  -53.5265 H         1 UNK         0.3107 
     71 H71        35.6083  -46.4282  -54.7497 H         1 UNK         0.0773 
     72 H72        34.5709  -44.0459  -53.1725 H         1 UNK         0.0680 
     73 H73        36.0714  -43.9025  -54.0314 H         1 UNK         0.0680 
     74 H74        33.4979  -41.9120  -56.0889 H         1 UNK         0.0650 
     75 H75        33.9581  -42.0220  -54.4143 H         1 UNK         0.0650 
     76 H76        32.4246  -43.4965  -52.8465 H         1 UNK         0.1397 
     77 H77        28.2589  -43.2039  -53.8036 H         1 UNK         0.1363 
     78 H78        31.2087  -42.0840  -56.7068 H         1 UNK         0.1355 
     79 H79        28.9438  -41.8641  -57.2708 H         1 UNK         0.0707 
     80 H80        27.9622  -41.3532  -55.9160 H         1 UNK         0.0707 
     81 H81        26.5776  -41.8844  -58.2260 H         1 UNK         0.1034 
     82 H82        25.4607  -43.1971  -58.0521 H         1 UNK         0.1034 
     83 H83        26.3074  -43.4612  -60.2472 H         1 UNK         0.0482 
     84 H84        27.4356  -41.3837  -60.7270 H         1 UNK         0.3460 
     85 H85        29.1714  -41.4153  -60.8863 H         1 UNK         0.3460 
     86 H86        27.1301  -45.4098  -58.3303 H         1 UNK         0.2989 
     87 H87        26.9154  -48.1099  -60.4754 H         1 UNK         0.0559 
     88 H88        29.5279  -47.2379  -59.1252 H         1 UNK         0.0848 
     89 H89        29.3540  -47.7684  -60.7899 H         1 UNK         0.0848 
     90 H90        29.0741  -48.9068  -59.4829 H         1 UNK         0.0848 
     91 H91        27.5689  -47.8296  -57.6700 H         1 UNK         0.3144 
     92 H92        25.6141  -47.3015  -56.0495 H         1 UNK         0.0727 
     93 H93        23.5764  -48.5798  -55.3595 H         1 UNK         0.0790 
     94 H94        23.3367  -49.1114  -57.0236 H         1 UNK         0.0790 
     95 H95        23.2141  -47.4074  -56.6166 H         1 UNK         0.0790 
     96 H96        26.7576  -49.1200  -55.5491 H         1 UNK         0.3215 
     97 H97        26.6269  -52.5025  -56.2054 H         1 UNK         0.0863 
     98 H98        28.6930  -50.7030  -57.5837 H         1 UNK         0.0808 
     99 H99        27.7662  -51.9841  -58.3515 H         1 UNK         0.0808 
    100 H100       28.9514  -52.3839  -57.1182 H         1 UNK         0.0808 
    101 H101       28.6747  -50.7836  -55.0949 H         1 UNK         0.3118 
    102 H102       27.2144  -50.7716  -51.7936 H         1 UNK         0.0546 
    103 H103       29.5063  -51.5738  -51.3128 H         1 UNK         0.0828 
    104 H104       29.7659  -51.9527  -53.0133 H         1 UNK         0.0828 
    105 H105       28.5753  -52.8504  -52.0805 H         1 UNK         0.0828 
    106 H106       29.5419  -49.4778  -52.7024 H         1 UNK         0.3005 
    107 H107       28.0832  -46.2848  -53.4061 H         1 UNK         0.1257 
    108 H108       29.5458  -47.6179  -51.0857 H         1 UNK         0.0775 
    109 H109       28.4228  -46.2970  -51.0421 H         1 UNK         0.0775 
    110 H110       28.8823  -43.9839  -51.6422 H         1 UNK         0.0840 
    111 H111       30.3664  -43.2790  -51.0504 H         1 UNK         0.0840 
    112 H112       30.7305  -47.2391  -53.7117 H         1 UNK         0.2987 
    113 H113       30.4684  -48.3029  -57.1128 H         1 UNK         0.0785 
    114 H114       32.3633  -46.6522  -57.2804 H         1 UNK         0.0798 
    115 H115       30.7923  -45.8634  -57.2912 H         1 UNK         0.0798 
    116 H116       31.7660  -45.8346  -55.8357 H         1 UNK         0.0798 
    117 H117       32.5717  -48.1587  -55.1281 H         1 UNK         0.3079 
    118 H118       32.0990  -51.4866  -53.9009 H         1 UNK         0.0794 
    119 H119       33.2382  -51.8723  -56.0930 H         1 UNK         0.0786 
    120 H120       34.3943  -51.8352  -54.7728 H         1 UNK         0.0786 
    121 H121       34.2318  -50.4432  -55.8448 H         1 UNK         0.0786 
    122 H122       34.1959  -49.6048  -53.4887 H         1 UNK         0.3032 
    123 H123       32.6783  -47.6107  -51.0175 H         1 UNK         0.1094 
    124 H124       34.7742  -49.8149  -50.6388 H         1 UNK         0.0794 
    125 H125       34.5146  -48.4286  -49.5781 H         1 UNK         0.0794 
    126 H126       33.2789  -49.6659  -49.7254 H         1 UNK         0.0794 
    127 H127       35.3479  -47.5955  -51.7653 H         1 UNK         0.3016 
@<TRIPOS>BOND
     1    1    2 1    
     2    1   67 1    
     3    1   68 1    
     4    1   69 1    
     5    2    3 2    
     6    2    4 am   BACKBONE|DICT|INTERRES
     7    4    5 1    
     8    4   70 1    
     9    5    6 1    
    10    5   65 1    
    11    5   71 1    
    12    6    7 1    
    13    6   72 1    
    14    6   73 1    
    15    7    8 1    
    16    8    9 1    
    17    8   74 1    
    18    8   75 1    
    19    9   10 ar   
    20    9   14 ar   
    21   10   11 ar   
    22   10   76 1    
    23   11   12 ar   
    24   11   48 1    
    25   12   13 ar   
    26   12   77 1    
    27   13   14 ar   
    28   13   15 1    
    29   14   78 1    
    30   15   16 1    
    31   15   79 1    
    32   15   80 1    
    33   16   17 1    
    34   17   18 1    
    35   17   81 1    
    36   17   82 1    
    37   18   19 1    
    38   18   22 1    
    39   18   83 1    
    40   19   20 am   BACKBONE|DICT|INTERRES
    41   19   21 2    
    42   20   84 1    
    43   20   85 1    
    44   22   23 am   BACKBONE|DICT|INTERRES
    45   22   86 1    
    46   23   24 2    
    47   23   25 1    
    48   25   26 1    
    49   25   27 1    
    50   25   87 1    
    51   26   88 1    
    52   26   89 1    
    53   26   90 1    
    54   27   28 am   BACKBONE|DICT|INTERRES
    55   27   91 1    
    56   28   29 2    
    57   28   30 1    
    58   30   31 1    
    59   30   32 1    
    60   30   92 1    
    61   31   93 1    
    62   31   94 1    
    63   31   95 1    
    64   32   33 am   BACKBONE|DICT|INTERRES
    65   32   96 1    
    66   33   34 2    
    67   33   35 1    
    68   35   36 1    
    69   35   37 1    
    70   35   97 1    
    71   36   98 1    
    72   36   99 1    
    73   36  100 1    
    74   37   38 am   BACKBONE|DICT|INTERRES
    75   37  101 1    
    76   38   39 2    
    77   38   40 1    
    78   40   41 1    
    79   40   42 1    
    80   40  102 1    
    81   41  103 1    
    82   41  104 1    
    83   41  105 1    
    84   42   43 am   BACKBONE|DICT|INTERRES
    85   42  106 1    
    86   43   44 2    
    87   43   45 1    
    88   45   46 1    
    89   45   49 1    
    90   45  107 1    
    91   46   47 1    
    92   46  108 1    
    93   46  109 1    
    94   47   48 1    
    95   48  110 1    
    96   48  111 1    
    97   49   50 am   BACKBONE|DICT|INTERRES
    98   49  112 1    
    99   50   51 2    
   100   50   52 1    
   101   52   53 1    
   102   52   54 1    
   103   52  113 1    
   104   53  114 1    
   105   53  115 1    
   106   53  116 1    
   107   54   55 am   BACKBONE|DICT|INTERRES
   108   54  117 1    
   109   55   56 2    
   110   55   57 1    
   111   57   58 1    
   112   57   59 1    
   113   57  118 1    
   114   58  119 1    
   115   58  120 1    
   116   58  121 1    
   117   59   60 am   BACKBONE|DICT|INTERRES
   118   59  122 1    
   119   60   61 2    
   120   60   62 1    
   121   62   63 1    
   122   62   64 1    
   123   62  123 1    
   124   63  124 1    
   125   63  125 1    
   126   63  126 1    
   127   64   65 am   BACKBONE|DICT|INTERRES
   128   64  127 1    
   129   65   66 2    
@<TRIPOS>SUBSTRUCTURE
     1 UNK         1 GROUP             0       ****    0 ROOT    
