@<TRIPOS>MOLECULE
3R134
127   129    1
SMALL
USER_CHARGES


@<TRIPOS>ATOM
      1 CA         36.9406  -43.5661  -48.7568 C.3       0 UNK        -0.1968 
      2 C          36.3307  -44.1077  -50.0417 C.2       0 UNK         0.4852 
      3 O          36.9989  -44.1202  -51.0769 O.2       0 UNK        -0.5359 
      4 N          35.0665  -44.5457  -49.9841 N.am      1 UNK        -0.4300 
      5 CA         34.3294  -45.1425  -51.1024 C.3       1 UNK         0.0863 
      6 C6         32.8112  -45.2219  -50.8074 C.3       11 UNK        -0.0953 
      7 S7         32.0766  -43.5573  -50.6516 S.3       11 UNK        -0.2369 
      8 C8         30.4238  -43.7939  -51.3931 C.3       11 UNK         0.0226 
      9 C9         30.3573  -43.8355  -52.9232 C.ar      11 UNK        -0.0699 
     10 C10        31.4836  -44.0156  -53.7383 C.ar      11 UNK        -0.0804 
     11 C11        31.3570  -44.0996  -55.1275 C.ar      11 UNK        -0.0871 
     12 C12        30.0941  -43.9773  -55.7097 C.ar      11 UNK        -0.1008 
     13 C13        28.9594  -43.7957  -54.9167 C.ar      11 UNK        -0.0735 
     14 C14        29.1010  -43.7214  -53.5277 C.ar      11 UNK        -0.0945 
     15 C15        27.5743  -43.7581  -55.5471 C.3       11 UNK         0.0169 
     16 S16        27.2862  -42.2545  -56.5335 S.3       11 UNK        -0.2669 
     17 C17        27.6329  -42.8345  -58.2334 C.3       11 UNK        -0.0850 
     18 CA         26.3497  -43.2958  -58.9755 C.3       10 UNK         0.0855 
     19 C          26.6097  -43.5156  -60.4959 C.2       10 UNK         0.5543 
     20 N          26.2943  -44.6677  -61.0777 N.am      10 UNK        -0.7343 
     21 O          27.1006  -42.6123  -61.1685 O.2       10 UNK        -0.5027 
     22 N          25.7404  -44.4539  -58.3058 N.am      10 UNK        -0.4495 
     23 C          24.4336  -44.7331  -58.2735 C.2       10 UNK         0.4903 
     24 O          23.5635  -44.0074  -58.7576 O.2       10 UNK        -0.4860 
     25 CA         24.0457  -46.0558  -57.5813 C.3       9 UNK         0.0227 
     26 CB         22.6392  -46.5482  -57.9824 C.3       9 UNK        -0.1964 
     27 N          25.0365  -47.1284  -57.7589 N.am      9 UNK        -0.4231 
     28 C          25.4655  -47.6526  -58.9212 C.2       9 UNK         0.5014 
     29 O          25.1150  -47.2318  -60.0247 O.2       9 UNK        -0.5270 
     30 CA         26.4722  -48.8204  -58.8675 C.3       8 UNK         0.0284 
     31 CB         27.8152  -48.4094  -59.4950 C.3       8 UNK        -0.1977 
     32 N          26.7082  -49.3316  -57.5151 N.am      8 UNK        -0.4342 
     33 C          25.8478  -50.0936  -56.8242 C.2       8 UNK         0.5039 
     34 O          24.7926  -50.5236  -57.2909 O.2       8 UNK        -0.5547 
     35 CA         26.1943  -50.4002  -55.3551 C.3       7 UNK         0.0281 
     36 CB         26.7631  -51.8220  -55.2177 C.3       7 UNK        -0.1963 
     37 N          27.1223  -49.4374  -54.7506 N.am      7 UNK        -0.4444 
     38 C          26.8521  -48.1430  -54.5247 C.2       7 UNK         0.5104 
     39 O          25.7844  -47.6048  -54.8187 O.2       7 UNK        -0.5100 
     40 CA         27.9879  -47.2987  -53.9212 C.3       6 UNK         0.0396 
     41 CB         27.9910  -47.3955  -52.3885 C.3       6 UNK        -0.1801 
     42 N          29.3081  -47.6669  -54.4413 N.am      6 UNK        -0.4747 
     43 C          29.6910  -47.5026  -55.7177 C.2       6 UNK         0.5012 
     44 O          28.9773  -46.9919  -56.5812 O.2       6 UNK        -0.5003 
     45 CA         31.0586  -48.0985  -56.1087 C.3       5 UNK         0.0782 
     46 C46        32.2445  -47.1558  -55.7913 C.3       11 UNK        -0.0868 
     47 S47        32.4408  -45.8329  -57.0323 S.3       11 UNK        -0.2515 
     48 C48        32.5844  -44.3364  -55.9981 C.3       11 UNK         0.0199 
     49 N          31.2458  -49.4241  -55.5070 N.am      5 UNK        -0.4607 
     50 C          30.5575  -50.5147  -55.8776 C.2       4 UNK         0.5031 
     51 O          29.7078  -50.4929  -56.7684 O.2       4 UNK        -0.5119 
     52 CA         30.7953  -51.8358  -55.1153 C.3       4 UNK         0.0263 
     53 CB         30.9023  -53.0424  -56.0718 C.3       4 UNK        -0.1967 
     54 N          31.9114  -51.8114  -54.1604 N.am      4 UNK        -0.4237 
     55 C          33.2185  -51.6869  -54.4286 C.2       3 UNK         0.4908 
     56 O          33.6990  -51.5980  -55.5602 O.2       3 UNK        -0.5102 
     57 CA         34.1474  -51.6244  -53.2049 C.3       3 UNK         0.0241 
     58 CB         35.0389  -52.8753  -53.1326 C.3       3 UNK        -0.1971 
     59 N          34.9884  -50.4253  -53.2141 N.am      3 UNK        -0.4139 
     60 C          34.5367  -49.1637  -53.2340 C.2       2 UNK         0.5016 
     61 O          33.3395  -48.8587  -53.2582 O.2       2 UNK        -0.5319 
     62 CA         35.6147  -48.0660  -53.2553 C.3       2 UNK         0.0286 
     63 CB         36.1543  -47.8483  -54.6792 C.3       2 UNK        -0.1963 
     64 N          35.1135  -46.7917  -52.7375 N.am      2 UNK        -0.4790 
     65 C          34.8986  -46.5344  -51.4410 C.2       1 UNK         0.5024 
     66 O          35.1281  -47.3381  -50.5332 O.2       1 UNK        -0.4888 
     67 H67        36.2378  -43.6024  -47.9246 H         1 UNK         0.0892 
     68 H68        37.8194  -44.1496  -48.4840 H         1 UNK         0.0892 
     69 H69        37.2483  -42.5300  -48.8952 H         1 UNK         0.0892 
     70 H70        34.5716  -44.5203  -49.1045 H         1 UNK         0.3107 
     71 H71        34.4763  -44.4972  -51.9713 H         1 UNK         0.0773 
     72 H72        32.6218  -45.7748  -49.8854 H         1 UNK         0.0680 
     73 H73        32.2936  -45.7693  -51.5977 H         1 UNK         0.0680 
     74 H74        29.9868  -44.7098  -50.9935 H         1 UNK         0.0650 
     75 H75        29.7933  -42.9761  -51.0410 H         1 UNK         0.0650 
     76 H76        32.4660  -44.1046  -53.3030 H         1 UNK         0.1397 
     77 H77        29.9972  -44.0633  -56.7814 H         1 UNK         0.1363 
     78 H78        28.2228  -43.5984  -52.9085 H         1 UNK         0.1355 
     79 H79        27.4377  -44.6509  -56.1572 H         1 UNK         0.0707 
     80 H80        26.8054  -43.8075  -54.7747 H         1 UNK         0.0707 
     81 H81        28.1011  -42.0019  -58.7620 H         1 UNK         0.1034 
     82 H82        28.3733  -43.6342  -58.2241 H         1 UNK         0.1034 
     83 H83        25.6393  -42.4682  -58.9274 H         1 UNK         0.0482 
     84 H84        25.8605  -45.4228  -60.5585 H         1 UNK         0.3460 
     85 H85        26.4685  -44.7796  -62.0635 H         1 UNK         0.3460 
     86 H86        26.3803  -45.1265  -57.9118 H         1 UNK         0.2989 
     87 H87        24.0261  -45.8403  -56.5120 H         1 UNK         0.0559 
     88 H88        22.5666  -46.7331  -59.0547 H         1 UNK         0.0848 
     89 H89        21.8771  -45.8108  -57.7273 H         1 UNK         0.0848 
     90 H90        22.3798  -47.4716  -57.4646 H         1 UNK         0.0848 
     91 H91        25.4027  -47.5168  -56.8959 H         1 UNK         0.3144 
     92 H92        26.0553  -49.6316  -59.4681 H         1 UNK         0.0727 
     93 H93        28.2426  -47.5353  -59.0043 H         1 UNK         0.0790 
     94 H94        27.6902  -48.1562  -60.5487 H         1 UNK         0.0790 
     95 H95        28.5457  -49.2171  -59.4407 H         1 UNK         0.0790 
     96 H96        27.5694  -49.0465  -57.0664 H         1 UNK         0.3215 
     97 H97        25.2612  -50.3528  -54.7892 H         1 UNK         0.0863 
     98 H98        26.9852  -52.0670  -54.1790 H         1 UNK         0.0808 
     99 H99        27.6744  -51.9528  -55.8008 H         1 UNK         0.0808 
    100 H100       26.0451  -52.5611  -55.5760 H         1 UNK         0.0808 
    101 H101       28.0376  -49.7801  -54.5023 H         1 UNK         0.3118 
    102 H102       27.7971  -46.2604  -54.1905 H         1 UNK         0.0546 
    103 H103       28.7408  -46.7350  -51.9530 H         1 UNK         0.0828 
    104 H104       28.1952  -48.4100  -52.0444 H         1 UNK         0.0828 
    105 H105       27.0244  -47.0999  -51.9782 H         1 UNK         0.0828 
    106 H106       29.9552  -48.0973  -53.7963 H         1 UNK         0.3005 
    107 H107       31.0342  -48.2494  -57.1911 H         1 UNK         0.1257 
    108 H108       32.1717  -46.7468  -54.7820 H         1 UNK         0.0775 
    109 H109       33.1718  -47.7275  -55.8115 H         1 UNK         0.0775 
    110 H110       33.4876  -44.4151  -55.3911 H         1 UNK         0.0840 
    111 H111       32.7272  -43.4721  -56.6481 H         1 UNK         0.0840 
    112 H112       31.9297  -49.4904  -54.7611 H         1 UNK         0.2987 
    113 H113       29.9005  -51.9856  -54.5098 H         1 UNK         0.0785 
    114 H114       31.7348  -52.9372  -56.7680 H         1 UNK         0.0798 
    115 H115       29.9960  -53.1511  -56.6690 H         1 UNK         0.0798 
    116 H116       31.0386  -53.9741  -55.5229 H         1 UNK         0.0798 
    117 H117       31.6382  -51.8553  -53.1877 H         1 UNK         0.3079 
    118 H118       33.5405  -51.5866  -52.2977 H         1 UNK         0.0794 
    119 H119       35.7005  -52.9501  -53.9968 H         1 UNK         0.0786 
    120 H120       34.4351  -53.7835  -53.1058 H         1 UNK         0.0786 
    121 H121       35.6572  -52.8728  -52.2346 H         1 UNK         0.0786 
    122 H122       35.9856  -50.5822  -53.2347 H         1 UNK         0.3032 
    123 H123       36.4412  -48.3920  -52.6190 H         1 UNK         0.1094 
    124 H124       36.9933  -47.1521  -54.6791 H         1 UNK         0.0794 
    125 H125       36.5136  -48.7821  -55.1142 H         1 UNK         0.0794 
    126 H126       35.3939  -47.4492  -55.3494 H         1 UNK         0.0794 
    127 H127       34.8786  -46.0900  -53.4233 H         1 UNK         0.3016 
@<TRIPOS>BOND
     1    1    2 1    
     2    1   67 1    
     3    1   68 1    
     4    1   69 1    
     5    2    3 2    
     6    2    4 am   BACKBONE|DICT|INTERRES
     7    4    5 1    
     8    4   70 1    
     9    5    6 1    
    10    5   65 1    
    11    5   71 1    
    12    6    7 1    
    13    6   72 1    
    14    6   73 1    
    15    7    8 1    
    16    8    9 1    
    17    8   74 1    
    18    8   75 1    
    19    9   10 ar   
    20    9   14 ar   
    21   10   11 ar   
    22   10   76 1    
    23   11   12 ar   
    24   11   48 1    
    25   12   13 ar   
    26   12   77 1    
    27   13   14 ar   
    28   13   15 1    
    29   14   78 1    
    30   15   16 1    
    31   15   79 1    
    32   15   80 1    
    33   16   17 1    
    34   17   18 1    
    35   17   81 1    
    36   17   82 1    
    37   18   19 1    
    38   18   22 1    
    39   18   83 1    
    40   19   20 am   BACKBONE|DICT|INTERRES
    41   19   21 2    
    42   20   84 1    
    43   20   85 1    
    44   22   23 am   BACKBONE|DICT|INTERRES
    45   22   86 1    
    46   23   24 2    
    47   23   25 1    
    48   25   26 1    
    49   25   27 1    
    50   25   87 1    
    51   26   88 1    
    52   26   89 1    
    53   26   90 1    
    54   27   28 am   BACKBONE|DICT|INTERRES
    55   27   91 1    
    56   28   29 2    
    57   28   30 1    
    58   30   31 1    
    59   30   32 1    
    60   30   92 1    
    61   31   93 1    
    62   31   94 1    
    63   31   95 1    
    64   32   33 am   BACKBONE|DICT|INTERRES
    65   32   96 1    
    66   33   34 2    
    67   33   35 1    
    68   35   36 1    
    69   35   37 1    
    70   35   97 1    
    71   36   98 1    
    72   36   99 1    
    73   36  100 1    
    74   37   38 am   BACKBONE|DICT|INTERRES
    75   37  101 1    
    76   38   39 2    
    77   38   40 1    
    78   40   41 1    
    79   40   42 1    
    80   40  102 1    
    81   41  103 1    
    82   41  104 1    
    83   41  105 1    
    84   42   43 am   BACKBONE|DICT|INTERRES
    85   42  106 1    
    86   43   44 2    
    87   43   45 1    
    88   45   46 1    
    89   45   49 1    
    90   45  107 1    
    91   46   47 1    
    92   46  108 1    
    93   46  109 1    
    94   47   48 1    
    95   48  110 1    
    96   48  111 1    
    97   49   50 am   BACKBONE|DICT|INTERRES
    98   49  112 1    
    99   50   51 2    
   100   50   52 1    
   101   52   53 1    
   102   52   54 1    
   103   52  113 1    
   104   53  114 1    
   105   53  115 1    
   106   53  116 1    
   107   54   55 am   BACKBONE|DICT|INTERRES
   108   54  117 1    
   109   55   56 2    
   110   55   57 1    
   111   57   58 1    
   112   57   59 1    
   113   57  118 1    
   114   58  119 1    
   115   58  120 1    
   116   58  121 1    
   117   59   60 am   BACKBONE|DICT|INTERRES
   118   59  122 1    
   119   60   61 2    
   120   60   62 1    
   121   62   63 1    
   122   62   64 1    
   123   62  123 1    
   124   63  124 1    
   125   63  125 1    
   126   63  126 1    
   127   64   65 am   BACKBONE|DICT|INTERRES
   128   64  127 1    
   129   65   66 2    
@<TRIPOS>SUBSTRUCTURE
     1 UNK         1 GROUP             0       ****    0 ROOT    
