@<TRIPOS>MOLECULE
3R134
127   129    1
SMALL
USER_CHARGES


@<TRIPOS>ATOM
      1 CA         33.9445  -47.4583  -50.1475 C.3       0 UNK        -0.1968 
      2 C          33.9966  -47.2374  -51.6511 C.2       0 UNK         0.4852 
      3 O          33.1385  -47.7465  -52.3707 O.2       0 UNK        -0.5359 
      4 N          34.9950  -46.4875  -52.1384 N.am      1 UNK        -0.4300 
      5 CA         35.2183  -46.1961  -53.5586 C.3       1 UNK         0.0863 
      6 C6         34.0550  -45.3682  -54.1760 C.3       11 UNK        -0.0953 
      7 S7         34.5406  -44.4761  -55.6901 S.3       11 UNK        -0.2369 
      8 C8         33.8154  -42.8308  -55.3903 C.3       11 UNK         0.0226 
      9 C9         32.2995  -42.8988  -55.2646 C.ar      11 UNK        -0.0699 
     10 C10        31.6802  -42.7197  -54.0233 C.ar      11 UNK        -0.0804 
     11 C11        30.2907  -42.8185  -53.9026 C.ar      11 UNK        -0.0871 
     12 C12        29.5208  -43.0910  -55.0368 C.ar      11 UNK        -0.1008 
     13 C13        30.1288  -43.2826  -56.2800 C.ar      11 UNK        -0.0735 
     14 C14        31.5173  -43.1702  -56.3901 C.ar      11 UNK        -0.0945 
     15 C15        29.3053  -43.7007  -57.4869 C.3       11 UNK         0.0169 
     16 S16        28.3839  -42.3267  -58.2502 S.3       11 UNK        -0.2669 
     17 C17        26.6171  -42.4375  -57.7532 C.3       11 UNK        -0.0850 
     18 CA         26.0833  -43.6766  -56.9649 C.3       10 UNK         0.0855 
     19 C          24.6048  -43.4926  -56.5069 C.2       10 UNK         0.5543 
     20 N          24.3074  -42.4224  -55.7813 N.am      10 UNK        -0.7343 
     21 O          23.7238  -44.3091  -56.7718 O.2       10 UNK        -0.5027 
     22 N          26.3121  -44.9747  -57.6183 N.am      10 UNK        -0.4495 
     23 C          25.9390  -45.3689  -58.8408 C.2       10 UNK         0.4903 
     24 O          25.3945  -44.6360  -59.6683 O.2       10 UNK        -0.4860 
     25 CA         26.1901  -46.8531  -59.1781 C.3       9 UNK         0.0227 
     26 CB         26.1935  -47.1404  -60.6953 C.3       9 UNK        -0.1964 
     27 N          27.3731  -47.4245  -58.5167 N.am      9 UNK        -0.4231 
     28 C          28.6674  -47.1493  -58.7524 C.2       9 UNK         0.5014 
     29 O          29.0476  -46.3381  -59.5968 O.2       9 UNK        -0.5270 
     30 CA         29.7353  -47.8988  -57.9204 C.3       8 UNK         0.0284 
     31 CB         30.6032  -46.9212  -57.1080 C.3       8 UNK        -0.1977 
     32 N          29.1855  -48.8985  -57.0035 N.am      8 UNK        -0.4342 
     33 C          28.6900  -50.0923  -57.3541 C.2       8 UNK         0.5039 
     34 O          28.7138  -50.5373  -58.5015 O.2       8 UNK        -0.5547 
     35 CA         27.9982  -50.8968  -56.2403 C.3       7 UNK         0.0281 
     36 CB         29.0097  -51.7805  -55.4917 C.3       7 UNK        -0.1963 
     37 N          27.2873  -50.0345  -55.2884 N.am      7 UNK        -0.4444 
     38 C          26.1944  -49.3147  -55.5846 C.2       7 UNK         0.5104 
     39 O          25.6507  -49.3204  -56.6883 O.2       7 UNK        -0.5100 
     40 CA         25.6441  -48.3974  -54.4788 C.3       6 UNK         0.0396 
     41 CB         24.7606  -49.1921  -53.5046 C.3       6 UNK        -0.1801 
     42 N          26.7023  -47.7089  -53.7353 N.am      6 UNK        -0.4747 
     43 C          27.5113  -46.7738  -54.2570 C.2       6 UNK         0.5012 
     44 O          27.4218  -46.3643  -55.4138 O.2       6 UNK        -0.5003 
     45 CA         28.6435  -46.2473  -53.3508 C.3       5 UNK         0.0782 
     46 C46        28.1448  -45.0589  -52.4943 C.3       11 UNK        -0.0868 
     47 S47        29.5101  -44.2105  -51.6294 S.3       11 UNK        -0.2515 
     48 C48        29.6256  -42.6380  -52.5454 C.3       11 UNK         0.0199 
     49 N          29.2401  -47.3118  -52.5305 N.am      5 UNK        -0.4607 
     50 C          29.8364  -48.4025  -53.0255 C.2       4 UNK         0.5031 
     51 O          29.9356  -48.6391  -54.2337 O.2       4 UNK        -0.5119 
     52 CA         30.3534  -49.4318  -52.0160 C.3       4 UNK         0.0263 
     53 CB         29.2166  -50.3427  -51.5184 C.3       4 UNK        -0.1967 
     54 N          31.3643  -50.2220  -52.7029 N.am      4 UNK        -0.4237 
     55 C          32.3813  -50.8846  -52.1437 C.2       3 UNK         0.4908 
     56 O          32.5336  -51.0371  -50.9313 O.2       3 UNK        -0.5102 
     57 CA         33.4236  -51.4365  -53.1215 C.3       3 UNK         0.0241 
     58 CB         32.8540  -52.6820  -53.8380 C.3       3 UNK        -0.1971 
     59 N          33.8069  -50.3740  -54.0596 N.am      3 UNK        -0.4139 
     60 C          34.6637  -50.4731  -55.0853 C.2       2 UNK         0.5016 
     61 O          35.2887  -51.4953  -55.3700 O.2       2 UNK        -0.5319 
     62 CA         34.8591  -49.2179  -55.9566 C.3       2 UNK         0.0286 
     63 CB         33.8737  -49.2363  -57.1371 C.3       2 UNK        -0.1963 
     64 N          34.7034  -47.9617  -55.2178 N.am      2 UNK        -0.4790 
     65 C          35.5736  -47.5022  -54.3073 C.2       1 UNK         0.5024 
     66 O          36.6263  -48.0787  -54.0263 O.2       1 UNK        -0.4888 
     67 H67        34.7913  -47.0001  -49.6371 H         1 UNK         0.0892 
     68 H68        33.0283  -47.0321  -49.7400 H         1 UNK         0.0892 
     69 H69        33.9503  -48.5258  -49.9276 H         1 UNK         0.0892 
     70 H70        35.6939  -46.1214  -51.5068 H         1 UNK         0.3107 
     71 H71        36.1170  -45.5777  -53.5885 H         1 UNK         0.0773 
     72 H72        33.1669  -45.9698  -54.3762 H         1 UNK         0.0680 
     73 H73        33.7346  -44.6287  -53.4416 H         1 UNK         0.0680 
     74 H74        34.0800  -42.1711  -56.2178 H         1 UNK         0.0650 
     75 H75        34.2633  -42.3964  -54.4952 H         1 UNK         0.0650 
     76 H76        32.2803  -42.5187  -53.1463 H         1 UNK         0.1397 
     77 H77        28.4498  -43.1765  -54.9461 H         1 UNK         0.1363 
     78 H78        31.9982  -43.3309  -57.3454 H         1 UNK         0.1355 
     79 H79        29.9637  -44.1057  -58.2561 H         1 UNK         0.0707 
     80 H80        28.6721  -44.5288  -57.1957 H         1 UNK         0.0707 
     81 H81        26.4346  -41.5330  -57.1717 H         1 UNK         0.1034 
     82 H82        26.0247  -42.3039  -58.6595 H         1 UNK         0.1034 
     83 H83        26.6441  -43.7441  -56.0354 H         1 UNK         0.0482 
     84 H84        25.0084  -41.7462  -55.5232 H         1 UNK         0.3460 
     85 H85        23.3563  -42.2955  -55.4719 H         1 UNK         0.3460 
     86 H86        26.7212  -45.6705  -56.9996 H         1 UNK         0.2989 
     87 H87        25.3399  -47.3909  -58.7565 H         1 UNK         0.0559 
     88 H88        25.2368  -46.8728  -61.1453 H         1 UNK         0.0848 
     89 H89        26.3610  -48.1979  -60.8993 H         1 UNK         0.0848 
     90 H90        26.9640  -46.5705  -61.2150 H         1 UNK         0.0848 
     91 H91        27.1654  -48.1024  -57.7938 H         1 UNK         0.3144 
     92 H92        30.3855  -48.4145  -58.6299 H         1 UNK         0.0727 
     93 H93        30.0080  -46.3539  -56.3936 H         1 UNK         0.0790 
     94 H94        31.1094  -46.2080  -57.7591 H         1 UNK         0.0790 
     95 H95        31.3746  -47.4434  -56.5438 H         1 UNK         0.0790 
     96 H96        29.1995  -48.6600  -56.0148 H         1 UNK         0.3215 
     97 H97        27.2622  -51.5499  -56.7146 H         1 UNK         0.0863 
     98 H98        28.5205  -52.3907  -54.7324 H         1 UNK         0.0808 
     99 H99        29.7824  -51.1896  -55.0018 H         1 UNK         0.0808 
    100 H100       29.5119  -52.4622  -56.1794 H         1 UNK         0.0808 
    101 H101       27.6973  -49.9290  -54.3728 H         1 UNK         0.3118 
    102 H102       25.0219  -47.6378  -54.9575 H         1 UNK         0.0546 
    103 H103       25.3275  -49.9546  -52.9689 H         1 UNK         0.0828 
    104 H104       23.9543  -49.6996  -54.0362 H         1 UNK         0.0828 
    105 H105       24.2964  -48.5380  -52.7664 H         1 UNK         0.0828 
    106 H106       26.8448  -47.9851  -52.7745 H         1 UNK         0.3005 
    107 H107       29.4275  -45.8806  -54.0177 H         1 UNK         0.1257 
    108 H108       27.4302  -45.4032  -51.7443 H         1 UNK         0.0775 
    109 H109       27.6028  -44.3349  -53.1046 H         1 UNK         0.0775 
    110 H110       28.6337  -42.1975  -52.6578 H         1 UNK         0.0840 
    111 H111       30.2003  -41.9288  -51.9476 H         1 UNK         0.0840 
    112 H112       29.2104  -47.1736  -51.5307 H         1 UNK         0.2987 
    113 H113       30.8132  -48.9046  -51.1772 H         1 UNK         0.0785 
    114 H114       28.4383  -49.7653  -51.0183 H         1 UNK         0.0798 
    115 H115       29.5848  -51.0752  -50.7999 H         1 UNK         0.0798 
    116 H116       28.7481  -50.8888  -52.3378 H         1 UNK         0.0798 
    117 H117       31.3323  -50.1099  -53.7087 H         1 UNK         0.3079 
    118 H118       34.3084  -51.7237  -52.5503 H         1 UNK         0.0794 
    119 H119       33.6246  -53.2208  -54.3884 H         1 UNK         0.0786 
    120 H120       32.0629  -52.4205  -54.5413 H         1 UNK         0.0786 
    121 H121       32.4328  -53.3879  -53.1206 H         1 UNK         0.0786 
    122 H122       33.4303  -49.4561  -53.8441 H         1 UNK         0.3032 
    123 H123       35.8750  -49.2507  -56.3575 H         1 UNK         0.1094 
    124 H124       32.8375  -49.2712  -56.7993 H         1 UNK         0.0794 
    125 H125       33.9937  -48.3594  -57.7738 H         1 UNK         0.0794 
    126 H126       34.0370  -50.1146  -57.7632 H         1 UNK         0.0794 
    127 H127       33.8668  -47.4236  -55.3919 H         1 UNK         0.3016 
@<TRIPOS>BOND
     1    1    2 1    
     2    1   67 1    
     3    1   68 1    
     4    1   69 1    
     5    2    3 2    
     6    2    4 am   BACKBONE|DICT|INTERRES
     7    4    5 1    
     8    4   70 1    
     9    5    6 1    
    10    5   65 1    
    11    5   71 1    
    12    6    7 1    
    13    6   72 1    
    14    6   73 1    
    15    7    8 1    
    16    8    9 1    
    17    8   74 1    
    18    8   75 1    
    19    9   10 ar   
    20    9   14 ar   
    21   10   11 ar   
    22   10   76 1    
    23   11   12 ar   
    24   11   48 1    
    25   12   13 ar   
    26   12   77 1    
    27   13   14 ar   
    28   13   15 1    
    29   14   78 1    
    30   15   16 1    
    31   15   79 1    
    32   15   80 1    
    33   16   17 1    
    34   17   18 1    
    35   17   81 1    
    36   17   82 1    
    37   18   19 1    
    38   18   22 1    
    39   18   83 1    
    40   19   20 am   BACKBONE|DICT|INTERRES
    41   19   21 2    
    42   20   84 1    
    43   20   85 1    
    44   22   23 am   BACKBONE|DICT|INTERRES
    45   22   86 1    
    46   23   24 2    
    47   23   25 1    
    48   25   26 1    
    49   25   27 1    
    50   25   87 1    
    51   26   88 1    
    52   26   89 1    
    53   26   90 1    
    54   27   28 am   BACKBONE|DICT|INTERRES
    55   27   91 1    
    56   28   29 2    
    57   28   30 1    
    58   30   31 1    
    59   30   32 1    
    60   30   92 1    
    61   31   93 1    
    62   31   94 1    
    63   31   95 1    
    64   32   33 am   BACKBONE|DICT|INTERRES
    65   32   96 1    
    66   33   34 2    
    67   33   35 1    
    68   35   36 1    
    69   35   37 1    
    70   35   97 1    
    71   36   98 1    
    72   36   99 1    
    73   36  100 1    
    74   37   38 am   BACKBONE|DICT|INTERRES
    75   37  101 1    
    76   38   39 2    
    77   38   40 1    
    78   40   41 1    
    79   40   42 1    
    80   40  102 1    
    81   41  103 1    
    82   41  104 1    
    83   41  105 1    
    84   42   43 am   BACKBONE|DICT|INTERRES
    85   42  106 1    
    86   43   44 2    
    87   43   45 1    
    88   45   46 1    
    89   45   49 1    
    90   45  107 1    
    91   46   47 1    
    92   46  108 1    
    93   46  109 1    
    94   47   48 1    
    95   48  110 1    
    96   48  111 1    
    97   49   50 am   BACKBONE|DICT|INTERRES
    98   49  112 1    
    99   50   51 2    
   100   50   52 1    
   101   52   53 1    
   102   52   54 1    
   103   52  113 1    
   104   53  114 1    
   105   53  115 1    
   106   53  116 1    
   107   54   55 am   BACKBONE|DICT|INTERRES
   108   54  117 1    
   109   55   56 2    
   110   55   57 1    
   111   57   58 1    
   112   57   59 1    
   113   57  118 1    
   114   58  119 1    
   115   58  120 1    
   116   58  121 1    
   117   59   60 am   BACKBONE|DICT|INTERRES
   118   59  122 1    
   119   60   61 2    
   120   60   62 1    
   121   62   63 1    
   122   62   64 1    
   123   62  123 1    
   124   63  124 1    
   125   63  125 1    
   126   63  126 1    
   127   64   65 am   BACKBONE|DICT|INTERRES
   128   64  127 1    
   129   65   66 2    
@<TRIPOS>SUBSTRUCTURE
     1 UNK         1 GROUP             0       ****    0 ROOT    
