@<TRIPOS>MOLECULE
3R134
127   129    1
SMALL
USER_CHARGES


@<TRIPOS>ATOM
      1 CA         29.0873  -44.5920  -49.5128 C.3       0 UNK        -0.1968 
      2 C          30.4147  -45.3278  -49.3995 C.2       0 UNK         0.4852 
      3 O          30.7404  -45.8420  -48.3279 O.2       0 UNK        -0.5359 
      4 N          31.1840  -45.3701  -50.4943 N.am      1 UNK        -0.4300 
      5 CA         32.4687  -46.0701  -50.6009 C.3       1 UNK         0.0863 
      6 C6         33.2663  -45.6255  -51.8568 C.3       11 UNK        -0.0953 
      7 S7         33.5354  -43.8262  -51.9230 S.3       11 UNK        -0.2369 
      8 C8         34.1872  -43.6280  -53.6171 C.3       11 UNK         0.0226 
      9 C9         33.1395  -43.4461  -54.7192 C.ar      11 UNK        -0.0699 
     10 C10        33.4812  -43.7970  -56.0311 C.ar      11 UNK        -0.0804 
     11 C11        32.6088  -43.5372  -57.0928 C.ar      11 UNK        -0.0871 
     12 C12        31.3834  -42.9234  -56.8352 C.ar      11 UNK        -0.1008 
     13 C13        31.0019  -42.6036  -55.5306 C.ar      11 UNK        -0.0735 
     14 C14        31.8878  -42.8598  -54.4772 C.ar      11 UNK        -0.0945 
     15 C15        29.6542  -41.9388  -55.2724 C.3       11 UNK         0.0169 
     16 S16        28.2662  -43.1213  -55.3406 S.3       11 UNK        -0.2669 
     17 C17        28.1318  -43.4444  -57.1360 C.3       11 UNK        -0.0850 
     18 CA         26.6984  -43.8067  -57.6047 C.3       10 UNK         0.0855 
     19 C          26.6157  -43.9163  -59.1579 C.2       10 UNK         0.5543 
     20 N          26.1000  -44.9961  -59.7355 N.am      10 UNK        -0.7343 
     21 O          27.0155  -42.9890  -59.8577 O.2       10 UNK        -0.5027 
     22 N          26.1650  -44.9804  -56.8968 N.am      10 UNK        -0.4495 
     23 C          24.8635  -45.1960  -56.6718 C.2       10 UNK         0.4903 
     24 O          23.9749  -44.3983  -56.9769 O.2       10 UNK        -0.4860 
     25 CA         24.4992  -46.5308  -55.9972 C.3       9 UNK         0.0227 
     26 CB         22.9884  -46.8434  -56.0535 C.3       9 UNK        -0.1964 
     27 N          25.2823  -47.6671  -56.4976 N.am      9 UNK        -0.4231 
     28 C          25.3255  -48.1511  -57.7495 C.2       9 UNK         0.5014 
     29 O          24.7364  -47.6232  -58.6942 O.2       9 UNK        -0.5270 
     30 CA         26.1623  -49.4260  -58.0106 C.3       8 UNK         0.0284 
     31 CB         26.9516  -49.3232  -59.3285 C.3       8 UNK        -0.1977 
     32 N          27.0943  -49.7579  -56.9296 N.am      8 UNK        -0.4342 
     33 C          26.7789  -50.3345  -55.7613 C.2       8 UNK         0.5039 
     34 O          25.6585  -50.7671  -55.4922 O.2       8 UNK        -0.5547 
     35 CA         27.8796  -50.3562  -54.6823 C.3       7 UNK         0.0281 
     36 CB         28.6859  -51.6608  -54.7577 C.3       7 UNK        -0.1963 
     37 N          28.7786  -49.1958  -54.7679 N.am      7 UNK        -0.4444 
     38 C          28.3780  -47.9243  -54.6098 C.2       7 UNK         0.5104 
     39 O          27.2318  -47.6092  -54.2909 O.2       7 UNK        -0.5100 
     40 CA         29.3903  -46.8123  -54.9122 C.3       6 UNK         0.0396 
     41 CB         30.1400  -46.3922  -53.6480 C.3       6 UNK        -0.1801 
     42 N          30.3480  -47.1885  -55.9505 N.am      6 UNK        -0.4747 
     43 C          30.0834  -47.1406  -57.2634 C.2       6 UNK         0.5012 
     44 O          29.0006  -46.7802  -57.7262 O.2       6 UNK        -0.5003 
     45 CA         31.2000  -47.6356  -58.2104 C.3       5 UNK         0.0782 
     46 C46        32.3429  -46.6016  -58.3620 C.3       11 UNK        -0.0868 
     47 S47        31.8694  -45.1009  -59.2770 S.3       11 UNK        -0.2515 
     48 C48        32.9947  -43.8768  -58.5272 C.3       11 UNK         0.0199 
     49 N          31.7577  -48.9179  -57.7767 N.am      5 UNK        -0.4607 
     50 C          31.0825  -50.0558  -57.5732 C.2       4 UNK         0.5031 
     51 O          29.8839  -50.1975  -57.8083 O.2       4 UNK        -0.5119 
     52 CA         31.8806  -51.2166  -56.9499 C.3       4 UNK         0.0263 
     53 CB         32.4522  -52.1230  -58.0512 C.3       4 UNK        -0.1967 
     54 N          32.9661  -50.7813  -56.0600 N.am      4 UNK        -0.4237 
     55 C          32.8151  -50.0176  -54.9675 C.2       3 UNK         0.4908 
     56 O          31.7315  -49.5684  -54.5844 O.2       3 UNK        -0.5102 
     57 CA         34.1123  -49.6115  -54.2500 C.3       3 UNK         0.0241 
     58 CB         34.6824  -48.3321  -54.8884 C.3       3 UNK        -0.1971 
     59 N          33.9178  -49.3692  -52.8210 N.am      3 UNK        -0.4139 
     60 C          33.5882  -50.2874  -51.9016 C.2       2 UNK         0.5016 
     61 O          33.4394  -51.4846  -52.1517 O.2       2 UNK        -0.5319 
     62 CA         33.4326  -49.7965  -50.4465 C.3       2 UNK         0.0286 
     63 CB         34.5901  -50.3148  -49.5762 C.3       2 UNK        -0.1963 
     64 N          33.3713  -48.3330  -50.3306 N.am      2 UNK        -0.4790 
     65 C          32.2812  -47.6035  -50.6044 C.2       1 UNK         0.5024 
     66 O          31.1936  -48.1015  -50.9031 O.2       1 UNK        -0.4888 
     67 H67        29.0515  -43.7698  -48.7986 H         1 UNK         0.0892 
     68 H68        28.2633  -45.2706  -49.2939 H         1 UNK         0.0892 
     69 H69        28.9314  -44.1814  -50.5105 H         1 UNK         0.0892 
     70 H70        30.8693  -44.9178  -51.3389 H         1 UNK         0.3107 
     71 H71        33.0552  -45.8134  -49.7158 H         1 UNK         0.0773 
     72 H72        32.7687  -45.9357  -52.7752 H         1 UNK         0.0680 
     73 H73        34.2498  -46.0985  -51.8717 H         1 UNK         0.0680 
     74 H74        34.8304  -42.7474  -53.6249 H         1 UNK         0.0650 
     75 H75        34.8330  -44.4775  -53.8455 H         1 UNK         0.0650 
     76 H76        34.4462  -44.2426  -56.2308 H         1 UNK         0.1397 
     77 H77        30.7279  -42.6985  -57.6633 H         1 UNK         0.1363 
     78 H78        31.6088  -42.5715  -53.4739 H         1 UNK         0.1355 
     79 H79        29.4910  -41.1344  -55.9912 H         1 UNK         0.0707 
     80 H80        29.6536  -41.4661  -54.2891 H         1 UNK         0.0707 
     81 H81        28.8343  -44.2340  -57.4030 H         1 UNK         0.1034 
     82 H82        28.4631  -42.5492  -57.6645 H         1 UNK         0.1034 
     83 H83        26.0681  -42.9530  -57.3480 H         1 UNK         0.0482 
     84 H84        25.7339  -45.7611  -59.1835 H         1 UNK         0.3460 
     85 H85        26.0533  -45.0385  -60.7407 H         1 UNK         0.3460 
     86 H86        26.8355  -45.6950  -56.6520 H         1 UNK         0.2989 
     87 H87        24.7696  -46.4185  -54.9464 H         1 UNK         0.0559 
     88 H88        22.7576  -47.7797  -55.5455 H         1 UNK         0.0848 
     89 H89        22.6289  -46.9210  -57.0802 H         1 UNK         0.0848 
     90 H90        22.4078  -46.0600  -55.5648 H         1 UNK         0.0848 
     91 H91        25.8552  -48.1207  -55.7949 H         1 UNK         0.3144 
     92 H92        25.4524  -50.2494  -58.1109 H         1 UNK         0.0727 
     93 H93        27.5222  -50.2319  -59.5214 H         1 UNK         0.0790 
     94 H94        27.6509  -48.4868  -59.3140 H         1 UNK         0.0790 
     95 H95        26.2847  -49.1763  -60.1790 H         1 UNK         0.0790 
     96 H96        28.0662  -49.5094  -57.0873 H         1 UNK         0.3215 
     97 H97        27.3915  -50.3142  -53.7062 H         1 UNK         0.0863 
     98 H98        29.5519  -51.6419  -54.0953 H         1 UNK         0.0808 
     99 H99        29.0320  -51.8584  -55.7711 H         1 UNK         0.0808 
    100 H100       28.0679  -52.5097  -54.4630 H         1 UNK         0.0808 
    101 H101       29.7614  -49.3733  -54.9533 H         1 UNK         0.3118 
    102 H102       28.8219  -45.9490  -55.2594 H         1 UNK         0.0546 
    103 H103       29.4469  -46.1716  -52.8352 H         1 UNK         0.0828 
    104 H104       30.7287  -45.4935  -53.8297 H         1 UNK         0.0828 
    105 H105       30.8079  -47.1830  -53.3091 H         1 UNK         0.0828 
    106 H106       31.2234  -47.5866  -55.6386 H         1 UNK         0.3005 
    107 H107       30.7435  -47.8002  -59.1892 H         1 UNK         0.1257 
    108 H108       33.1753  -47.0463  -58.9103 H         1 UNK         0.0775 
    109 H109       32.7441  -46.3313  -57.3836 H         1 UNK         0.0775 
    110 H110       34.0193  -44.2482  -58.5820 H         1 UNK         0.0840 
    111 H111       32.9691  -42.9644  -59.1246 H         1 UNK         0.0840 
    112 H112       32.7431  -48.9208  -57.5626 H         1 UNK         0.2987 
    113 H113       31.1928  -51.8104  -56.3488 H         1 UNK         0.0785 
    114 H114       33.1802  -51.5983  -58.6713 H         1 UNK         0.0798 
    115 H115       31.6602  -52.4808  -58.7110 H         1 UNK         0.0798 
    116 H116       32.9399  -53.0021  -57.6297 H         1 UNK         0.0798 
    117 H117       33.8958  -51.0905  -56.3066 H         1 UNK         0.3079 
    118 H118       34.8403  -50.4187  -54.3558 H         1 UNK         0.0794 
    119 H119       33.9903  -47.4929  -54.8027 H         1 UNK         0.0786 
    120 H120       34.8883  -48.4775  -55.9497 H         1 UNK         0.0786 
    121 H121       35.6221  -48.0392  -54.4194 H         1 UNK         0.0786 
    122 H122       34.0030  -48.4148  -52.5114 H         1 UNK         0.3032 
    123 H123       32.5011  -50.2207  -50.0636 H         1 UNK         0.1094 
    124 H124       35.5539  -49.9312  -49.9136 H         1 UNK         0.0794 
    125 H125       34.4605  -50.0295  -48.5320 H         1 UNK         0.0794 
    126 H126       34.6449  -51.4040  -49.6068 H         1 UNK         0.0794 
    127 H127       34.2285  -47.8627  -50.0734 H         1 UNK         0.3016 
@<TRIPOS>BOND
     1    1    2 1    
     2    1   67 1    
     3    1   68 1    
     4    1   69 1    
     5    2    3 2    
     6    2    4 am   BACKBONE|DICT|INTERRES
     7    4    5 1    
     8    4   70 1    
     9    5    6 1    
    10    5   65 1    
    11    5   71 1    
    12    6    7 1    
    13    6   72 1    
    14    6   73 1    
    15    7    8 1    
    16    8    9 1    
    17    8   74 1    
    18    8   75 1    
    19    9   10 ar   
    20    9   14 ar   
    21   10   11 ar   
    22   10   76 1    
    23   11   12 ar   
    24   11   48 1    
    25   12   13 ar   
    26   12   77 1    
    27   13   14 ar   
    28   13   15 1    
    29   14   78 1    
    30   15   16 1    
    31   15   79 1    
    32   15   80 1    
    33   16   17 1    
    34   17   18 1    
    35   17   81 1    
    36   17   82 1    
    37   18   19 1    
    38   18   22 1    
    39   18   83 1    
    40   19   20 am   BACKBONE|DICT|INTERRES
    41   19   21 2    
    42   20   84 1    
    43   20   85 1    
    44   22   23 am   BACKBONE|DICT|INTERRES
    45   22   86 1    
    46   23   24 2    
    47   23   25 1    
    48   25   26 1    
    49   25   27 1    
    50   25   87 1    
    51   26   88 1    
    52   26   89 1    
    53   26   90 1    
    54   27   28 am   BACKBONE|DICT|INTERRES
    55   27   91 1    
    56   28   29 2    
    57   28   30 1    
    58   30   31 1    
    59   30   32 1    
    60   30   92 1    
    61   31   93 1    
    62   31   94 1    
    63   31   95 1    
    64   32   33 am   BACKBONE|DICT|INTERRES
    65   32   96 1    
    66   33   34 2    
    67   33   35 1    
    68   35   36 1    
    69   35   37 1    
    70   35   97 1    
    71   36   98 1    
    72   36   99 1    
    73   36  100 1    
    74   37   38 am   BACKBONE|DICT|INTERRES
    75   37  101 1    
    76   38   39 2    
    77   38   40 1    
    78   40   41 1    
    79   40   42 1    
    80   40  102 1    
    81   41  103 1    
    82   41  104 1    
    83   41  105 1    
    84   42   43 am   BACKBONE|DICT|INTERRES
    85   42  106 1    
    86   43   44 2    
    87   43   45 1    
    88   45   46 1    
    89   45   49 1    
    90   45  107 1    
    91   46   47 1    
    92   46  108 1    
    93   46  109 1    
    94   47   48 1    
    95   48  110 1    
    96   48  111 1    
    97   49   50 am   BACKBONE|DICT|INTERRES
    98   49  112 1    
    99   50   51 2    
   100   50   52 1    
   101   52   53 1    
   102   52   54 1    
   103   52  113 1    
   104   53  114 1    
   105   53  115 1    
   106   53  116 1    
   107   54   55 am   BACKBONE|DICT|INTERRES
   108   54  117 1    
   109   55   56 2    
   110   55   57 1    
   111   57   58 1    
   112   57   59 1    
   113   57  118 1    
   114   58  119 1    
   115   58  120 1    
   116   58  121 1    
   117   59   60 am   BACKBONE|DICT|INTERRES
   118   59  122 1    
   119   60   61 2    
   120   60   62 1    
   121   62   63 1    
   122   62   64 1    
   123   62  123 1    
   124   63  124 1    
   125   63  125 1    
   126   63  126 1    
   127   64   65 am   BACKBONE|DICT|INTERRES
   128   64  127 1    
   129   65   66 2    
@<TRIPOS>SUBSTRUCTURE
     1 UNK         1 GROUP             0       ****    0 ROOT    
