@<TRIPOS>MOLECULE
3R134
127   129    1
SMALL
USER_CHARGES


@<TRIPOS>ATOM
      1 CA         28.8177  -44.4795  -51.1053 C.3       0 UNK        -0.1968 
      2 C          30.1687  -44.7966  -50.4821 C.2       0 UNK         0.4852 
      3 O          30.2574  -44.9786  -49.2667 O.2       0 UNK        -0.5359 
      4 N          31.2194  -44.8568  -51.3085 N.am      1 UNK        -0.4300 
      5 CA         32.5756  -45.2583  -50.9270 C.3       1 UNK         0.0863 
      6 C6         33.6237  -44.7903  -51.9722 C.3       11 UNK        -0.0953 
      7 S7         33.2499  -45.2988  -53.6880 S.3       11 UNK        -0.2369 
      8 C8         32.8702  -43.6893  -54.4489 C.3       11 UNK         0.0226 
      9 C9         32.3369  -43.8456  -55.8655 C.ar      11 UNK        -0.0699 
     10 C10        33.1451  -44.4034  -56.8609 C.ar      11 UNK        -0.0804 
     11 C11        32.6676  -44.5481  -58.1666 C.ar      11 UNK        -0.0871 
     12 C12        31.3778  -44.1116  -58.4783 C.ar      11 UNK        -0.1008 
     13 C13        30.5647  -43.5377  -57.4969 C.ar      11 UNK        -0.0735 
     14 C14        31.0469  -43.4117  -56.1900 C.ar      11 UNK        -0.0945 
     15 C15        29.1767  -43.0372  -57.8644 C.3       11 UNK         0.0169 
     16 S16        27.8865  -44.2188  -57.3712 S.3       11 UNK        -0.2669 
     17 C17        27.1920  -43.4060  -55.8896 C.3       11 UNK        -0.0850 
     18 CA         26.6104  -44.4156  -54.8594 C.3       10 UNK         0.0855 
     19 C          26.1454  -43.7317  -53.5378 C.2       10 UNK         0.5543 
     20 N          25.1845  -44.2917  -52.8132 N.am      10 UNK        -0.7343 
     21 O          26.6803  -42.6982  -53.1440 O.2       10 UNK        -0.5027 
     22 N          25.6266  -45.3419  -55.4499 N.am      10 UNK        -0.4495 
     23 C          24.4362  -45.0102  -55.9700 C.2       10 UNK         0.4903 
     24 O          23.9875  -43.8623  -55.9845 O.2       10 UNK        -0.4860 
     25 CA         23.6117  -46.1673  -56.5708 C.3       9 UNK         0.0227 
     26 CB         22.3236  -45.6922  -57.2770 C.3       9 UNK        -0.1964 
     27 N          24.4053  -47.0288  -57.4556 N.am      9 UNK        -0.4231 
     28 C          25.0599  -46.6882  -58.5764 C.2       9 UNK         0.5014 
     29 O          25.0114  -45.5650  -59.0804 O.2       9 UNK        -0.5270 
     30 CA         25.9064  -47.7934  -59.2535 C.3       8 UNK         0.0284 
     31 CB         26.9078  -47.2209  -60.2749 C.3       8 UNK        -0.1977 
     32 N          26.6464  -48.6259  -58.2981 N.am      8 UNK        -0.4342 
     33 C          26.1248  -49.5809  -57.5143 C.2       8 UNK         0.5039 
     34 O          24.9348  -49.8966  -57.5397 O.2       8 UNK        -0.5547 
     35 CA         27.0548  -50.2550  -56.4886 C.3       7 UNK         0.0281 
     36 CB         27.4977  -51.6355  -56.9960 C.3       7 UNK        -0.1963 
     37 N          28.2308  -49.4479  -56.1430 N.am      7 UNK        -0.4444 
     38 C          28.1743  -48.2546  -55.5282 C.2       7 UNK         0.5104 
     39 O          27.1197  -47.7580  -55.1300 O.2       7 UNK        -0.5100 
     40 CA         29.4841  -47.4647  -55.3335 C.3       6 UNK         0.0396 
     41 CB         29.8139  -47.3429  -53.8386 C.3       6 UNK        -0.1801 
     42 N          30.6403  -48.0211  -56.0438 N.am      6 UNK        -0.4747 
     43 C          30.7900  -48.0283  -57.3797 C.2       6 UNK         0.5012 
     44 O          29.9492  -47.5693  -58.1541 O.2       6 UNK        -0.5003 
     45 CA         32.0345  -48.7527  -57.9508 C.3       5 UNK         0.0782 
     46 C46        33.2081  -47.7853  -58.2411 C.3       11 UNK        -0.0868 
     47 S47        32.9620  -46.8081  -59.7609 S.3       11 UNK        -0.2515 
     48 C48        33.5479  -45.1622  -59.2456 C.3       11 UNK         0.0199 
     49 N          32.4883  -49.8611  -57.1048 N.am      5 UNK        -0.4607 
     50 C          31.7669  -50.9413  -56.7791 C.2       4 UNK         0.5031 
     51 O          30.6313  -51.1502  -57.2013 O.2       4 UNK        -0.5119 
     52 CA         32.3990  -51.9370  -55.7890 C.3       4 UNK         0.0263 
     53 CB         32.9731  -53.1474  -56.5425 C.3       4 UNK        -0.1967 
     54 N          33.4429  -51.3582  -54.9316 N.am      4 UNK        -0.4237 
     55 C          33.2484  -50.3705  -54.0468 C.2       3 UNK         0.4908 
     56 O          32.1679  -49.8004  -53.8795 O.2       3 UNK        -0.5102 
     57 CA         34.4774  -49.9108  -53.2586 C.3       3 UNK         0.0241 
     58 CB         35.2882  -48.8791  -54.0644 C.3       3 UNK        -0.1971 
     59 N          34.0289  -49.3147  -52.0053 N.am      3 UNK        -0.4139 
     60 C          34.7181  -49.2795  -50.8610 C.2       2 UNK         0.5016 
     61 O          35.8586  -49.7318  -50.7392 O.2       2 UNK        -0.5319 
     62 CA         34.0213  -48.6032  -49.6620 C.3       2 UNK         0.0286 
     63 CB         34.8579  -48.6744  -48.3701 C.3       2 UNK        -0.1963 
     64 N          33.7080  -47.1991  -49.9446 N.am      2 UNK        -0.4790 
     65 C          32.6631  -46.7782  -50.6690 C.2       1 UNK         0.5024 
     66 O          31.8247  -47.5457  -51.1490 O.2       1 UNK        -0.4888 
     67 H67        28.3896  -43.5880  -50.6477 H         1 UNK         0.0892 
     68 H68        28.1272  -45.3081  -50.9502 H         1 UNK         0.0892 
     69 H69        28.8984  -44.3017  -52.1773 H         1 UNK         0.0892 
     70 H70        31.0818  -44.7367  -52.3007 H         1 UNK         0.3107 
     71 H71        32.8098  -44.7634  -49.9818 H         1 UNK         0.0773 
     72 H72        33.7052  -43.7030  -51.9329 H         1 UNK         0.0680 
     73 H73        34.6196  -45.1576  -51.7178 H         1 UNK         0.0680 
     74 H74        33.7744  -43.0794  -54.4698 H         1 UNK         0.0650 
     75 H75        32.1497  -43.1582  -53.8250 H         1 UNK         0.0650 
     76 H76        34.1445  -44.7330  -56.6110 H         1 UNK         0.1397 
     77 H77        31.0073  -44.2221  -59.4884 H         1 UNK         0.1363 
     78 H78        30.4192  -42.9689  -55.4297 H         1 UNK         0.1355 
     79 H79        29.1060  -42.8857  -58.9426 H         1 UNK         0.0707 
     80 H80        28.9986  -42.0589  -57.4158 H         1 UNK         0.0707 
     81 H81        26.4256  -42.6980  -56.2087 H         1 UNK         0.1034 
     82 H82        27.9761  -42.8105  -55.4200 H         1 UNK         0.1034 
     83 H83        27.4400  -45.0503  -54.5475 H         1 UNK         0.0482 
     84 H84        24.7467  -45.1450  -53.1212 H         1 UNK         0.3460 
     85 H85        24.8904  -43.8515  -51.9559 H         1 UNK         0.3460 
     86 H86        25.9256  -46.3134  -55.4652 H         1 UNK         0.2989 
     87 H87        23.3109  -46.7934  -55.7297 H         1 UNK         0.0559 
     88 H88        21.7488  -46.5337  -57.6635 H         1 UNK         0.0848 
     89 H89        22.5408  -45.0231  -58.1102 H         1 UNK         0.0848 
     90 H90        21.6772  -45.1495  -56.5861 H         1 UNK         0.0848 
     91 H91        24.4863  -48.0014  -57.1728 H         1 UNK         0.3144 
     92 H92        25.2086  -48.4347  -59.7957 H         1 UNK         0.0727 
     93 H93        27.6212  -46.5456  -59.7993 H         1 UNK         0.0790 
     94 H94        26.3963  -46.6592  -61.0576 H         1 UNK         0.0790 
     95 H95        27.4732  -48.0133  -60.7658 H         1 UNK         0.0790 
     96 H96        27.6258  -48.3988  -58.1783 H         1 UNK         0.3215 
     97 H97        26.4759  -50.3994  -55.5738 H         1 UNK         0.0863 
     98 H98        28.1203  -52.1490  -56.2631 H         1 UNK         0.0808 
     99 H99        28.0637  -51.5606  -57.9253 H         1 UNK         0.0808 
    100 H100       26.6351  -52.2740  -57.1918 H         1 UNK         0.0808 
    101 H101       29.1320  -49.8063  -56.4394 H         1 UNK         0.3118 
    102 H102       29.3133  -46.4588  -55.7225 H         1 UNK         0.0546 
    103 H103       29.9721  -48.3188  -53.3785 H         1 UNK         0.0828 
    104 H104       29.0039  -46.8560  -53.2945 H         1 UNK         0.0828 
    105 H105       30.7130  -46.7514  -53.6775 H         1 UNK         0.0828 
    106 H106       31.3385  -48.4800  -55.4696 H         1 UNK         0.3005 
    107 H107       31.7213  -49.2031  -58.8958 H         1 UNK         0.1257 
    108 H108       33.3975  -47.1398  -57.3826 H         1 UNK         0.0775 
    109 H109       34.1301  -48.3491  -58.3921 H         1 UNK         0.0775 
    110 H110       34.5833  -45.2389  -58.9095 H         1 UNK         0.0840 
    111 H111       33.5591  -44.5040  -60.1155 H         1 UNK         0.0840 
    112 H112       33.4126  -49.7749  -56.7104 H         1 UNK         0.2987 
    113 H113       31.5968  -52.2893  -55.1369 H         1 UNK         0.0785 
    114 H114       32.2110  -53.6152  -57.1678 H         1 UNK         0.0798 
    115 H115       33.3347  -53.9106  -55.8531 H         1 UNK         0.0798 
    116 H116       33.7996  -52.8629  -57.1950 H         1 UNK         0.0798 
    117 H117       34.3663  -51.7599  -55.0152 H         1 UNK         0.3079 
    118 H118       35.0987  -50.7829  -53.0430 H         1 UNK         0.0794 
    119 H119       35.6485  -49.3040  -55.0019 H         1 UNK         0.0786 
    120 H120       36.1620  -48.5396  -53.5080 H         1 UNK         0.0786 
    121 H121       34.6891  -48.0012  -54.3101 H         1 UNK         0.0786 
    122 H122       33.0866  -48.9310  -52.0267 H         1 UNK         0.3032 
    123 H123       33.0911  -49.1482  -49.4832 H         1 UNK         0.1094 
    124 H124       34.3217  -48.2403  -47.5259 H         1 UNK         0.0794 
    125 H125       35.0852  -49.7088  -48.1087 H         1 UNK         0.0794 
    126 H126       35.8074  -48.1473  -48.4722 H         1 UNK         0.0794 
    127 H127       34.3762  -46.5178  -49.6127 H         1 UNK         0.3016 
@<TRIPOS>BOND
     1    1    2 1    
     2    1   67 1    
     3    1   68 1    
     4    1   69 1    
     5    2    3 2    
     6    2    4 am   BACKBONE|DICT|INTERRES
     7    4    5 1    
     8    4   70 1    
     9    5    6 1    
    10    5   65 1    
    11    5   71 1    
    12    6    7 1    
    13    6   72 1    
    14    6   73 1    
    15    7    8 1    
    16    8    9 1    
    17    8   74 1    
    18    8   75 1    
    19    9   10 ar   
    20    9   14 ar   
    21   10   11 ar   
    22   10   76 1    
    23   11   12 ar   
    24   11   48 1    
    25   12   13 ar   
    26   12   77 1    
    27   13   14 ar   
    28   13   15 1    
    29   14   78 1    
    30   15   16 1    
    31   15   79 1    
    32   15   80 1    
    33   16   17 1    
    34   17   18 1    
    35   17   81 1    
    36   17   82 1    
    37   18   19 1    
    38   18   22 1    
    39   18   83 1    
    40   19   20 am   BACKBONE|DICT|INTERRES
    41   19   21 2    
    42   20   84 1    
    43   20   85 1    
    44   22   23 am   BACKBONE|DICT|INTERRES
    45   22   86 1    
    46   23   24 2    
    47   23   25 1    
    48   25   26 1    
    49   25   27 1    
    50   25   87 1    
    51   26   88 1    
    52   26   89 1    
    53   26   90 1    
    54   27   28 am   BACKBONE|DICT|INTERRES
    55   27   91 1    
    56   28   29 2    
    57   28   30 1    
    58   30   31 1    
    59   30   32 1    
    60   30   92 1    
    61   31   93 1    
    62   31   94 1    
    63   31   95 1    
    64   32   33 am   BACKBONE|DICT|INTERRES
    65   32   96 1    
    66   33   34 2    
    67   33   35 1    
    68   35   36 1    
    69   35   37 1    
    70   35   97 1    
    71   36   98 1    
    72   36   99 1    
    73   36  100 1    
    74   37   38 am   BACKBONE|DICT|INTERRES
    75   37  101 1    
    76   38   39 2    
    77   38   40 1    
    78   40   41 1    
    79   40   42 1    
    80   40  102 1    
    81   41  103 1    
    82   41  104 1    
    83   41  105 1    
    84   42   43 am   BACKBONE|DICT|INTERRES
    85   42  106 1    
    86   43   44 2    
    87   43   45 1    
    88   45   46 1    
    89   45   49 1    
    90   45  107 1    
    91   46   47 1    
    92   46  108 1    
    93   46  109 1    
    94   47   48 1    
    95   48  110 1    
    96   48  111 1    
    97   49   50 am   BACKBONE|DICT|INTERRES
    98   49  112 1    
    99   50   51 2    
   100   50   52 1    
   101   52   53 1    
   102   52   54 1    
   103   52  113 1    
   104   53  114 1    
   105   53  115 1    
   106   53  116 1    
   107   54   55 am   BACKBONE|DICT|INTERRES
   108   54  117 1    
   109   55   56 2    
   110   55   57 1    
   111   57   58 1    
   112   57   59 1    
   113   57  118 1    
   114   58  119 1    
   115   58  120 1    
   116   58  121 1    
   117   59   60 am   BACKBONE|DICT|INTERRES
   118   59  122 1    
   119   60   61 2    
   120   60   62 1    
   121   62   63 1    
   122   62   64 1    
   123   62  123 1    
   124   63  124 1    
   125   63  125 1    
   126   63  126 1    
   127   64   65 am   BACKBONE|DICT|INTERRES
   128   64  127 1    
   129   65   66 2    
@<TRIPOS>SUBSTRUCTURE
     1 UNK         1 GROUP             0       ****    0 ROOT    
