@<TRIPOS>MOLECULE
3R134
127   129    1
SMALL
USER_CHARGES


@<TRIPOS>ATOM
      1 CA         32.7907  -46.9089  -50.6811 C.3       0 UNK        -0.1968 
      2 C          34.0844  -46.3565  -51.2585 C.2       0 UNK         0.4852 
      3 O          34.8936  -45.7964  -50.5168 O.2       0 UNK        -0.5359 
      4 N          34.2739  -46.5167  -52.5720 N.am      1 UNK        -0.4300 
      5 CA         35.4468  -46.0726  -53.3267 C.3       1 UNK         0.0863 
      6 C6         35.1351  -44.8472  -54.2289 C.3       11 UNK        -0.0953 
      7 S7         34.8962  -43.3389  -53.2343 S.3       11 UNK        -0.2369 
      8 C8         33.7113  -42.3953  -54.2434 C.3       11 UNK         0.0226 
      9 C9         32.2764  -42.8986  -54.1296 C.ar      11 UNK        -0.0699 
     10 C10        31.6491  -42.9910  -52.8820 C.ar      11 UNK        -0.0804 
     11 C11        30.3045  -43.3660  -52.7850 C.ar      11 UNK        -0.0871 
     12 C12        29.5844  -43.6473  -53.9496 C.ar      11 UNK        -0.1008 
     13 C13        30.2033  -43.5712  -55.2003 C.ar      11 UNK        -0.0735 
     14 C14        31.5491  -43.2020  -55.2842 C.ar      11 UNK        -0.0945 
     15 C15        29.4170  -43.8707  -56.4648 C.3       11 UNK         0.0169 
     16 S16        28.6469  -42.3645  -57.1331 S.3       11 UNK        -0.2669 
     17 C17        27.9658  -43.0245  -58.6891 C.3       11 UNK        -0.0850 
     18 CA         26.5359  -43.6267  -58.5128 C.3       10 UNK         0.0855 
     19 C          25.3934  -42.6730  -58.9788 C.2       10 UNK         0.5543 
     20 N          24.3014  -43.1793  -59.5387 N.am      10 UNK        -0.7343 
     21 O          25.4801  -41.4598  -58.8054 O.2       10 UNK        -0.5027 
     22 N          26.4499  -45.0056  -59.0210 N.am      10 UNK        -0.4495 
     23 C          26.6616  -45.4093  -60.2791 C.2       10 UNK         0.4903 
     24 O          26.9234  -44.6460  -61.2098 O.2       10 UNK        -0.4860 
     25 CA         26.6122  -46.9327  -60.5141 C.3       9 UNK         0.0227 
     26 CB         26.8165  -47.3118  -61.9932 C.3       9 UNK        -0.1964 
     27 N          27.6091  -47.6361  -59.6984 N.am      9 UNK        -0.4231 
     28 C          27.4877  -47.9060  -58.3922 C.2       9 UNK         0.5014 
     29 O          26.5034  -47.5874  -57.7192 O.2       9 UNK        -0.5270 
     30 CA         28.6909  -48.5856  -57.7165 C.3       8 UNK         0.0284 
     31 CB         29.6114  -47.5276  -57.0845 C.3       8 UNK        -0.1977 
     32 N          28.2702  -49.5199  -56.6745 N.am      8 UNK        -0.4342 
     33 C          27.5679  -50.6430  -56.8735 C.2       8 UNK         0.5039 
     34 O          27.2686  -51.0814  -57.9855 O.2       8 UNK        -0.5547 
     35 CA         27.1239  -51.4063  -55.6177 C.3       7 UNK         0.0281 
     36 CB         28.2574  -52.3122  -55.1076 C.3       7 UNK        -0.1963 
     37 N          26.7095  -50.4893  -54.5525 N.am      7 UNK        -0.4444 
     38 C          25.4618  -50.0280  -54.3886 C.2       7 UNK         0.5104 
     39 O          24.5145  -50.3571  -55.1035 O.2       7 UNK        -0.5100 
     40 CA         25.2039  -49.0628  -53.2147 C.3       6 UNK         0.0396 
     41 CB         24.5210  -49.8087  -52.0565 C.3       6 UNK        -0.1801 
     42 N          26.4216  -48.4224  -52.7104 N.am      6 UNK        -0.4747 
     43 C          26.9633  -47.3047  -53.2166 C.2       6 UNK         0.5012 
     44 O          26.4628  -46.6540  -54.1333 O.2       6 UNK        -0.5003 
     45 CA         28.3024  -46.8389  -52.6032 C.3       5 UNK         0.0782 
     46 C46        28.0421  -45.7885  -51.4953 C.3       11 UNK        -0.0868 
     47 S47        29.5734  -45.1186  -50.7586 S.3       11 UNK        -0.2515 
     48 C48        29.6246  -43.4244  -51.4245 C.3       11 UNK         0.0199 
     49 N          29.1583  -47.9393  -52.1332 N.am      5 UNK        -0.4607 
     50 C          29.6111  -48.9356  -52.9024 C.2       4 UNK         0.5031 
     51 O          29.2312  -49.1316  -54.0581 O.2       4 UNK        -0.5119 
     52 CA         30.6264  -49.9010  -52.2697 C.3       4 UNK         0.0263 
     53 CB         29.8964  -51.0669  -51.5838 C.3       4 UNK        -0.1967 
     54 N          31.5538  -50.4331  -53.2731 N.am      4 UNK        -0.4237 
     55 C          32.3982  -49.6823  -53.9924 C.2       3 UNK         0.4908 
     56 O          32.5746  -48.4718  -53.8037 O.2       3 UNK        -0.5102 
     57 CA         33.1645  -50.3960  -55.1154 C.3       3 UNK         0.0241 
     58 CB         32.2270  -50.8570  -56.2471 C.3       3 UNK        -0.1971 
     59 N          34.1323  -49.4422  -55.6363 N.am      3 UNK        -0.4139 
     60 C          35.3718  -49.6962  -56.0614 C.2       2 UNK         0.5016 
     61 O          35.8187  -50.8263  -56.2611 O.2       2 UNK        -0.5319 
     62 CA         36.2771  -48.4644  -56.2626 C.3       2 UNK         0.0286 
     63 CB         36.2747  -48.0278  -57.7365 C.3       2 UNK        -0.1963 
     64 N          35.8960  -47.3213  -55.4169 N.am      2 UNK        -0.4790 
     65 C          35.9849  -47.3043  -54.0767 C.2       1 UNK         0.5024 
     66 O          36.4599  -48.2352  -53.4233 O.2       1 UNK        -0.4888 
     67 H67        32.9654  -47.8840  -50.2276 H         1 UNK         0.0892 
     68 H68        32.4011  -46.2381  -49.9158 H         1 UNK         0.0892 
     69 H69        32.0276  -47.0138  -51.4519 H         1 UNK         0.0892 
     70 H70        33.6007  -47.0729  -53.0967 H         1 UNK         0.3107 
     71 H71        36.2480  -45.7889  -52.6407 H         1 UNK         0.0773 
     72 H72        34.2478  -45.0281  -54.8387 H         1 UNK         0.0680 
     73 H73        35.9596  -44.6436  -54.9147 H         1 UNK         0.0680 
     74 H74        34.0495  -42.3974  -55.2809 H         1 UNK         0.0650 
     75 H75        33.7352  -41.3547  -53.9175 H         1 UNK         0.0650 
     76 H76        32.2067  -42.7511  -51.9869 H         1 UNK         0.1397 
     77 H77        28.5388  -43.9157  -53.8860 H         1 UNK         0.1363 
     78 H78        32.0201  -43.1225  -56.2544 H         1 UNK         0.1355 
     79 H79        30.0774  -44.3113  -57.2132 H         1 UNK         0.0707 
     80 H80        28.6397  -44.6087  -56.2605 H         1 UNK         0.0707 
     81 H81        27.9770  -42.2316  -59.4395 H         1 UNK         0.1034 
     82 H82        28.6665  -43.7681  -59.0712 H         1 UNK         0.1034 
     83 H83        26.3474  -43.7472  -57.4455 H         1 UNK         0.0482 
     84 H84        24.2143  -44.1734  -59.6759 H         1 UNK         0.3460 
     85 H85        23.5608  -42.5604  -59.8292 H         1 UNK         0.3460 
     86 H86        26.2566  -45.7259  -58.3305 H         1 UNK         0.2989 
     87 H87        25.6163  -47.2728  -60.2222 H         1 UNK         0.0559 
     88 H88        27.7973  -47.0055  -62.3594 H         1 UNK         0.0848 
     89 H89        26.0685  -46.8322  -62.6261 H         1 UNK         0.0848 
     90 H90        26.7223  -48.3873  -62.1444 H         1 UNK         0.0848 
     91 H91        28.4674  -47.8920  -60.1657 H         1 UNK         0.3144 
     92 H92        29.2536  -49.1463  -58.4657 H         1 UNK         0.0727 
     93 H93        29.9578  -46.8101  -57.8292 H         1 UNK         0.0790 
     94 H94        30.4945  -47.9798  -56.6340 H         1 UNK         0.0790 
     95 H95        29.0955  -46.9701  -56.3018 H         1 UNK         0.0790 
     96 H96        28.5089  -49.2662  -55.7177 H         1 UNK         0.3215 
     97 H97        26.2825  -52.0459  -55.8940 H         1 UNK         0.0863 
     98 H98        29.1435  -51.7398  -54.8334 H         1 UNK         0.0808 
     99 H99        28.5578  -53.0265  -55.8753 H         1 UNK         0.0808 
    100 H100       27.9439  -52.8866  -54.2359 H         1 UNK         0.0808 
    101 H101       27.4490  -50.0951  -53.9840 H         1 UNK         0.3118 
    102 H102       24.5159  -48.2924  -53.5696 H         1 UNK         0.0546 
    103 H103       25.1540  -50.6011  -51.6551 H         1 UNK         0.0828 
    104 H104       23.5898  -50.2721  -52.3857 H         1 UNK         0.0828 
    105 H105       24.2712  -49.1310  -51.2400 H         1 UNK         0.0828 
    106 H106       26.8980  -48.8805  -51.9465 H         1 UNK         0.3005 
    107 H107       28.8519  -46.3517  -53.4114 H         1 UNK         0.1257 
    108 H108       27.4569  -46.2312  -50.6869 H         1 UNK         0.0775 
    109 H109       27.4372  -44.9663  -51.8819 H         1 UNK         0.0775 
    110 H110       28.6191  -43.0052  -51.4826 H         1 UNK         0.0840 
    111 H111       30.1643  -42.7952  -50.7149 H         1 UNK         0.0840 
    112 H112       29.4989  -47.8508  -51.1867 H         1 UNK         0.2987 
    113 H113       31.2104  -49.3615  -51.5223 H         1 UNK         0.0785 
    114 H114       29.2246  -50.7050  -50.8042 H         1 UNK         0.0798 
    115 H115       29.2957  -51.6423  -52.2889 H         1 UNK         0.0798 
    116 H116       30.6001  -51.7501  -51.1079 H         1 UNK         0.0798 
    117 H117       31.4616  -51.4124  -53.4987 H         1 UNK         0.3079 
    118 H118       33.6852  -51.2547  -54.6861 H         1 UNK         0.0794 
    119 H119       31.5075  -51.5952  -55.8921 H         1 UNK         0.0786 
    120 H120       32.7881  -51.3202  -57.0589 H         1 UNK         0.0786 
    121 H121       31.6607  -50.0259  -56.6671 H         1 UNK         0.0786 
    122 H122       33.8834  -48.4803  -55.4437 H         1 UNK         0.3032 
    123 H123       37.2930  -48.7624  -55.9927 H         1 UNK         0.1094 
    124 H124       36.5780  -48.8499  -58.3865 H         1 UNK         0.0794 
    125 H125       35.2850  -47.7042  -58.0616 H         1 UNK         0.0794 
    126 H126       36.9716  -47.2074  -57.9093 H         1 UNK         0.0794 
    127 H127       35.5087  -46.5170  -55.8896 H         1 UNK         0.3016 
@<TRIPOS>BOND
     1    1    2 1    
     2    1   67 1    
     3    1   68 1    
     4    1   69 1    
     5    2    3 2    
     6    2    4 am   BACKBONE|DICT|INTERRES
     7    4    5 1    
     8    4   70 1    
     9    5    6 1    
    10    5   65 1    
    11    5   71 1    
    12    6    7 1    
    13    6   72 1    
    14    6   73 1    
    15    7    8 1    
    16    8    9 1    
    17    8   74 1    
    18    8   75 1    
    19    9   10 ar   
    20    9   14 ar   
    21   10   11 ar   
    22   10   76 1    
    23   11   12 ar   
    24   11   48 1    
    25   12   13 ar   
    26   12   77 1    
    27   13   14 ar   
    28   13   15 1    
    29   14   78 1    
    30   15   16 1    
    31   15   79 1    
    32   15   80 1    
    33   16   17 1    
    34   17   18 1    
    35   17   81 1    
    36   17   82 1    
    37   18   19 1    
    38   18   22 1    
    39   18   83 1    
    40   19   20 am   BACKBONE|DICT|INTERRES
    41   19   21 2    
    42   20   84 1    
    43   20   85 1    
    44   22   23 am   BACKBONE|DICT|INTERRES
    45   22   86 1    
    46   23   24 2    
    47   23   25 1    
    48   25   26 1    
    49   25   27 1    
    50   25   87 1    
    51   26   88 1    
    52   26   89 1    
    53   26   90 1    
    54   27   28 am   BACKBONE|DICT|INTERRES
    55   27   91 1    
    56   28   29 2    
    57   28   30 1    
    58   30   31 1    
    59   30   32 1    
    60   30   92 1    
    61   31   93 1    
    62   31   94 1    
    63   31   95 1    
    64   32   33 am   BACKBONE|DICT|INTERRES
    65   32   96 1    
    66   33   34 2    
    67   33   35 1    
    68   35   36 1    
    69   35   37 1    
    70   35   97 1    
    71   36   98 1    
    72   36   99 1    
    73   36  100 1    
    74   37   38 am   BACKBONE|DICT|INTERRES
    75   37  101 1    
    76   38   39 2    
    77   38   40 1    
    78   40   41 1    
    79   40   42 1    
    80   40  102 1    
    81   41  103 1    
    82   41  104 1    
    83   41  105 1    
    84   42   43 am   BACKBONE|DICT|INTERRES
    85   42  106 1    
    86   43   44 2    
    87   43   45 1    
    88   45   46 1    
    89   45   49 1    
    90   45  107 1    
    91   46   47 1    
    92   46  108 1    
    93   46  109 1    
    94   47   48 1    
    95   48  110 1    
    96   48  111 1    
    97   49   50 am   BACKBONE|DICT|INTERRES
    98   49  112 1    
    99   50   51 2    
   100   50   52 1    
   101   52   53 1    
   102   52   54 1    
   103   52  113 1    
   104   53  114 1    
   105   53  115 1    
   106   53  116 1    
   107   54   55 am   BACKBONE|DICT|INTERRES
   108   54  117 1    
   109   55   56 2    
   110   55   57 1    
   111   57   58 1    
   112   57   59 1    
   113   57  118 1    
   114   58  119 1    
   115   58  120 1    
   116   58  121 1    
   117   59   60 am   BACKBONE|DICT|INTERRES
   118   59  122 1    
   119   60   61 2    
   120   60   62 1    
   121   62   63 1    
   122   62   64 1    
   123   62  123 1    
   124   63  124 1    
   125   63  125 1    
   126   63  126 1    
   127   64   65 am   BACKBONE|DICT|INTERRES
   128   64  127 1    
   129   65   66 2    
@<TRIPOS>SUBSTRUCTURE
     1 UNK         1 GROUP             0       ****    0 ROOT    
