@<TRIPOS>MOLECULE
3R134
127   129    1
SMALL
USER_CHARGES


@<TRIPOS>ATOM
      1 CA         37.9224  -49.4727  -55.4437 C.3       0 UNK        -0.1968 
      2 C          36.4867  -49.0071  -55.2569 C.2       0 UNK         0.4852 
      3 O          35.7015  -49.7003  -54.6102 O.2       0 UNK        -0.5359 
      4 N          36.1418  -47.8303  -55.8014 N.am      1 UNK        -0.4300 
      5 CA         34.8041  -47.2202  -55.7600 C.3       1 UNK         0.0863 
      6 C6         34.7752  -45.8939  -56.5585 C.3       11 UNK        -0.0953 
      7 S7         33.0970  -45.4138  -57.0929 S.3       11 UNK        -0.2369 
      8 C8         32.8372  -43.8355  -56.2207 C.3       11 UNK         0.0226 
      9 C9         31.6276  -43.8975  -55.3019 C.ar      11 UNK        -0.0699 
     10 C10        31.7831  -44.1723  -53.9403 C.ar      11 UNK        -0.0804 
     11 C11        30.6715  -44.2042  -53.0929 C.ar      11 UNK        -0.0871 
     12 C12        29.3992  -43.9523  -53.6154 C.ar      11 UNK        -0.1008 
     13 C13        29.2281  -43.6908  -54.9774 C.ar      11 UNK        -0.0735 
     14 C14        30.3487  -43.6627  -55.8140 C.ar      11 UNK        -0.0945 
     15 C15        27.8295  -43.4757  -55.5412 C.3       11 UNK         0.0169 
     16 S16        27.6984  -41.9221  -56.4848 S.3       11 UNK        -0.2669 
     17 C17        25.9013  -41.7095  -56.7634 C.3       11 UNK        -0.0850 
     18 CA         25.0382  -42.9991  -56.9301 C.3       10 UNK         0.0855 
     19 C          23.5179  -42.6735  -57.0596 C.2       10 UNK         0.5543 
     20 N          22.7420  -43.4252  -57.8315 N.am      10 UNK        -0.7343 
     21 O          23.0229  -41.7436  -56.4270 O.2       10 UNK        -0.5027 
     22 N          25.5437  -43.9328  -57.9539 N.am      10 UNK        -0.4495 
     23 C          25.7330  -43.6843  -59.2545 C.2       10 UNK         0.4903 
     24 O          25.5720  -42.5768  -59.7695 O.2       10 UNK        -0.4860 
     25 CA         26.1425  -44.8876  -60.1343 C.3       9 UNK         0.0227 
     26 CB         26.4807  -44.4720  -61.5792 C.3       9 UNK        -0.1964 
     27 N          27.2558  -45.6853  -59.6027 N.am      9 UNK        -0.4231 
     28 C          27.1998  -46.5359  -58.5691 C.2       9 UNK         0.5014 
     29 O          26.2117  -46.6608  -57.8402 O.2       9 UNK        -0.5270 
     30 CA         28.4735  -47.3597  -58.3002 C.3       8 UNK         0.0284 
     31 CB         29.4658  -46.5634  -57.4406 C.3       8 UNK        -0.1977 
     32 N          28.1935  -48.6275  -57.6265 N.am      8 UNK        -0.4342 
     33 C          27.4636  -49.6361  -58.1218 C.2       8 UNK         0.5039 
     34 O          26.9993  -49.6554  -59.2631 O.2       8 UNK        -0.5547 
     35 CA         27.2136  -50.8317  -57.1894 C.3       7 UNK         0.0281 
     36 CB         28.3262  -51.8811  -57.3469 C.3       7 UNK        -0.1963 
     37 N          27.1303  -50.4179  -55.7861 N.am      7 UNK        -0.4444 
     38 C          25.9952  -50.0712  -55.1635 C.2       7 UNK         0.5104 
     39 O          24.8856  -50.1043  -55.6968 O.2       7 UNK        -0.5100 
     40 CA         26.0977  -49.6392  -53.6881 C.3       6 UNK         0.0396 
     41 CB         25.7437  -50.8154  -52.7638 C.3       6 UNK        -0.1801 
     42 N          27.4191  -49.1247  -53.3200 N.am      6 UNK        -0.4747 
     43 C          27.8652  -47.8938  -53.6116 C.2       6 UNK         0.5012 
     44 O          27.1914  -47.0418  -54.1897 O.2       6 UNK        -0.5003 
     45 CA         29.3136  -47.5603  -53.1951 C.3       5 UNK         0.0782 
     46 C46        29.3196  -46.9009  -51.7932 C.3       11 UNK        -0.0868 
     47 S47        30.9740  -46.3053  -51.3081 S.3       11 UNK        -0.2515 
     48 C48        30.8436  -44.5150  -51.6135 C.3       11 UNK         0.0199 
     49 N          30.2350  -48.7046  -53.2605 N.am      5 UNK        -0.4607 
     50 C          30.4771  -49.4618  -54.3393 C.2       4 UNK         0.5031 
     51 O          29.8456  -49.3599  -55.3915 O.2       4 UNK        -0.5119 
     52 CA         31.5875  -50.5185  -54.2222 C.3       4 UNK         0.0263 
     53 CB         32.2718  -50.7938  -55.5744 C.3       4 UNK        -0.1967 
     54 N          32.6061  -50.1162  -53.2508 N.am      4 UNK        -0.4237 
     55 C          33.1159  -50.9013  -52.2902 C.2       3 UNK         0.4908 
     56 O          32.7089  -52.0417  -52.0629 O.2       3 UNK        -0.5102 
     57 CA         34.2767  -50.3486  -51.4394 C.3       3 UNK         0.0241 
     58 CB         35.4882  -51.2978  -51.4781 C.3       3 UNK        -0.1971 
     59 N          34.7062  -49.0251  -51.8945 N.am      3 UNK        -0.4139 
     60 C          34.4763  -47.8751  -51.2458 C.2       2 UNK         0.5016 
     61 O          33.9711  -47.8180  -50.1244 O.2       2 UNK        -0.5319 
     62 CA         34.8672  -46.5580  -51.9506 C.3       2 UNK         0.0286 
     63 CB         36.0800  -45.9142  -51.2590 C.3       2 UNK        -0.1963 
     64 N          35.1542  -46.6857  -53.3843 N.am      2 UNK        -0.4790 
     65 C          34.2651  -47.0408  -54.3239 C.2       1 UNK         0.5024 
     66 O          33.0901  -47.3043  -54.0764 O.2       1 UNK        -0.4888 
     67 H67        38.4022  -49.6043  -54.4743 H         1 UNK         0.0892 
     68 H68        37.9396  -50.4295  -55.9648 H         1 UNK         0.0892 
     69 H69        38.5119  -48.7608  -56.0211 H         1 UNK         0.0892 
     70 H70        36.8401  -47.3103  -56.3139 H         1 UNK         0.3107 
     71 H71        34.1398  -47.9287  -56.2590 H         1 UNK         0.0773 
     72 H72        35.3558  -46.0063  -57.4756 H         1 UNK         0.0680 
     73 H73        35.2636  -45.0908  -56.0049 H         1 UNK         0.0680 
     74 H74        32.6933  -43.0490  -56.9630 H         1 UNK         0.0650 
     75 H75        33.7205  -43.5469  -55.6506 H         1 UNK         0.0650 
     76 H76        32.7681  -44.3692  -53.5405 H         1 UNK         0.1397 
     77 H77        28.5372  -43.9787  -52.9631 H         1 UNK         0.1363 
     78 H78        30.2243  -43.4583  -56.8685 H         1 UNK         0.1355 
     79 H79        27.5801  -44.3214  -56.1817 H         1 UNK         0.0707 
     80 H80        27.0954  -43.4619  -54.7344 H         1 UNK         0.0707 
     81 H81        25.5284  -41.1283  -55.9180 H         1 UNK         0.1034 
     82 H82        25.7765  -41.0611  -57.6319 H         1 UNK         0.1034 
     83 H83        25.0985  -43.5533  -55.9940 H         1 UNK         0.0482 
     84 H84        23.1296  -44.2025  -58.3414 H         1 UNK         0.3460 
     85 H85        21.7589  -43.2138  -57.9002 H         1 UNK         0.3460 
     86 H86        25.6841  -44.8943  -57.6507 H         1 UNK         0.2989 
     87 H87        25.2673  -45.5390  -60.1839 H         1 UNK         0.0559 
     88 H88        27.3439  -43.8062  -61.6157 H         1 UNK         0.0848 
     89 H89        25.6446  -43.9470  -62.0436 H         1 UNK         0.0848 
     90 H90        26.6969  -45.3390  -62.2038 H         1 UNK         0.0848 
     91 H91        28.1275  -45.6112  -60.1076 H         1 UNK         0.3144 
     92 H92        28.9442  -47.5925  -59.2574 H         1 UNK         0.0727 
     93 H93        29.7387  -45.6243  -57.9223 H         1 UNK         0.0790 
     94 H94        30.3886  -47.1208  -57.2766 H         1 UNK         0.0790 
     95 H95        29.0467  -46.3253  -56.4622 H         1 UNK         0.0790 
     96 H96        28.5982  -48.7437  -56.7022 H         1 UNK         0.3215 
     97 H97        26.2711  -51.2953  -57.4896 H         1 UNK         0.0863 
     98 H98        29.3036  -51.4771  -57.0840 H         1 UNK         0.0808 
     99 H99        28.3861  -52.2318  -58.3780 H         1 UNK         0.0808 
    100 H100       28.1421  -52.7524  -56.7183 H         1 UNK         0.0808 
    101 H101       28.0098  -50.2914  -55.2997 H         1 UNK         0.3118 
    102 H102       25.3604  -48.8499  -53.5255 H         1 UNK         0.0546 
    103 H103       26.4472  -51.6419  -52.8717 H         1 UNK         0.0828 
    104 H104       24.7495  -51.2035  -52.9901 H         1 UNK         0.0828 
    105 H105       25.7390  -50.5111  -51.7170 H         1 UNK         0.0828 
    106 H106       28.0401  -49.7562  -52.8341 H         1 UNK         0.3005 
    107 H107       29.6814  -46.8306  -53.9204 H         1 UNK         0.1257 
    108 H108       28.9867  -47.6146  -51.0373 H         1 UNK         0.0775 
    109 H109       28.6141  -46.0696  -51.7464 H         1 UNK         0.0775 
    110 H110       30.0168  -44.1043  -51.0319 H         1 UNK         0.0840 
    111 H111       31.7462  -44.0284  -51.2408 H         1 UNK         0.0840 
    112 H112       30.8087  -48.8454  -52.4422 H         1 UNK         0.2987 
    113 H113       31.0953  -51.4364  -53.8955 H         1 UNK         0.0785 
    114 H114       31.5628  -51.1770  -56.3082 H         1 UNK         0.0798 
    115 H115       33.0644  -51.5354  -55.4736 H         1 UNK         0.0798 
    116 H116       32.7145  -49.8877  -55.9883 H         1 UNK         0.0798 
    117 H117       32.9566  -49.1691  -53.3628 H         1 UNK         0.3079 
    118 H118       33.9177  -50.3016  -50.4095 H         1 UNK         0.0794 
    119 H119       35.2281  -52.2843  -51.0922 H         1 UNK         0.0786 
    120 H120       36.3074  -50.9189  -50.8670 H         1 UNK         0.0786 
    121 H121       35.8623  -51.4330  -52.4937 H         1 UNK         0.0786 
    122 H122       35.1279  -48.9997  -52.8190 H         1 UNK         0.3032 
    123 H123       34.0142  -45.8844  -51.8435 H         1 UNK         0.1094 
    124 H124       35.8902  -45.7652  -50.1949 H         1 UNK         0.0794 
    125 H125       36.9715  -46.5365  -51.3466 H         1 UNK         0.0794 
    126 H126       36.3074  -44.9361  -51.6836 H         1 UNK         0.0794 
    127 H127       36.1088  -46.5215  -53.6708 H         1 UNK         0.3016 
@<TRIPOS>BOND
     1    1    2 1    
     2    1   67 1    
     3    1   68 1    
     4    1   69 1    
     5    2    3 2    
     6    2    4 am   BACKBONE|DICT|INTERRES
     7    4    5 1    
     8    4   70 1    
     9    5    6 1    
    10    5   65 1    
    11    5   71 1    
    12    6    7 1    
    13    6   72 1    
    14    6   73 1    
    15    7    8 1    
    16    8    9 1    
    17    8   74 1    
    18    8   75 1    
    19    9   10 ar   
    20    9   14 ar   
    21   10   11 ar   
    22   10   76 1    
    23   11   12 ar   
    24   11   48 1    
    25   12   13 ar   
    26   12   77 1    
    27   13   14 ar   
    28   13   15 1    
    29   14   78 1    
    30   15   16 1    
    31   15   79 1    
    32   15   80 1    
    33   16   17 1    
    34   17   18 1    
    35   17   81 1    
    36   17   82 1    
    37   18   19 1    
    38   18   22 1    
    39   18   83 1    
    40   19   20 am   BACKBONE|DICT|INTERRES
    41   19   21 2    
    42   20   84 1    
    43   20   85 1    
    44   22   23 am   BACKBONE|DICT|INTERRES
    45   22   86 1    
    46   23   24 2    
    47   23   25 1    
    48   25   26 1    
    49   25   27 1    
    50   25   87 1    
    51   26   88 1    
    52   26   89 1    
    53   26   90 1    
    54   27   28 am   BACKBONE|DICT|INTERRES
    55   27   91 1    
    56   28   29 2    
    57   28   30 1    
    58   30   31 1    
    59   30   32 1    
    60   30   92 1    
    61   31   93 1    
    62   31   94 1    
    63   31   95 1    
    64   32   33 am   BACKBONE|DICT|INTERRES
    65   32   96 1    
    66   33   34 2    
    67   33   35 1    
    68   35   36 1    
    69   35   37 1    
    70   35   97 1    
    71   36   98 1    
    72   36   99 1    
    73   36  100 1    
    74   37   38 am   BACKBONE|DICT|INTERRES
    75   37  101 1    
    76   38   39 2    
    77   38   40 1    
    78   40   41 1    
    79   40   42 1    
    80   40  102 1    
    81   41  103 1    
    82   41  104 1    
    83   41  105 1    
    84   42   43 am   BACKBONE|DICT|INTERRES
    85   42  106 1    
    86   43   44 2    
    87   43   45 1    
    88   45   46 1    
    89   45   49 1    
    90   45  107 1    
    91   46   47 1    
    92   46  108 1    
    93   46  109 1    
    94   47   48 1    
    95   48  110 1    
    96   48  111 1    
    97   49   50 am   BACKBONE|DICT|INTERRES
    98   49  112 1    
    99   50   51 2    
   100   50   52 1    
   101   52   53 1    
   102   52   54 1    
   103   52  113 1    
   104   53  114 1    
   105   53  115 1    
   106   53  116 1    
   107   54   55 am   BACKBONE|DICT|INTERRES
   108   54  117 1    
   109   55   56 2    
   110   55   57 1    
   111   57   58 1    
   112   57   59 1    
   113   57  118 1    
   114   58  119 1    
   115   58  120 1    
   116   58  121 1    
   117   59   60 am   BACKBONE|DICT|INTERRES
   118   59  122 1    
   119   60   61 2    
   120   60   62 1    
   121   62   63 1    
   122   62   64 1    
   123   62  123 1    
   124   63  124 1    
   125   63  125 1    
   126   63  126 1    
   127   64   65 am   BACKBONE|DICT|INTERRES
   128   64  127 1    
   129   65   66 2    
@<TRIPOS>SUBSTRUCTURE
     1 UNK         1 GROUP             0       ****    0 ROOT    
