@<TRIPOS>MOLECULE
3R134
127   129    1
SMALL
USER_CHARGES


@<TRIPOS>ATOM
      1 CA         35.9956  -45.8791  -51.8125 C.3       0 UNK        -0.1968 
      2 C          35.1352  -45.9706  -53.0636 C.2       0 UNK         0.4852 
      3 O          33.9962  -46.4302  -52.9836 O.2       0 UNK        -0.5359 
      4 N          35.6769  -45.5430  -54.2139 N.am      1 UNK        -0.4300 
      5 CA         35.0671  -45.5020  -55.5554 C.3       1 UNK         0.0863 
      6 C6         33.7586  -44.6731  -55.6404 C.3       11 UNK        -0.0953 
      7 S7         34.0072  -42.9169  -55.2109 S.3       11 UNK        -0.2369 
      8 C8         33.1316  -42.7830  -53.6109 C.3       11 UNK         0.0226 
      9 C9         31.6219  -43.0383  -53.6428 C.ar      11 UNK        -0.0699 
     10 C10        30.9628  -43.2800  -52.4329 C.ar      11 UNK        -0.0804 
     11 C11        29.5846  -43.5141  -52.3980 C.ar      11 UNK        -0.0871 
     12 C12        28.8585  -43.5206  -53.5925 C.ar      11 UNK        -0.1008 
     13 C13        29.5014  -43.2821  -54.8098 C.ar      11 UNK        -0.0735 
     14 C14        30.8746  -43.0266  -54.8279 C.ar      11 UNK        -0.0945 
     15 C15        28.7248  -43.3315  -56.1140 C.3       11 UNK         0.0169 
     16 S16        27.9072  -41.7509  -56.4736 S.3       11 UNK        -0.2669 
     17 C17        27.6371  -41.8895  -58.2748 C.3       11 UNK        -0.0850 
     18 CA         26.3765  -42.7168  -58.6341 C.3       10 UNK         0.0855 
     19 C          25.9354  -42.4538  -60.0990 C.2       10 UNK         0.5543 
     20 N          25.0820  -41.4634  -60.3189 N.am      10 UNK        -0.7343 
     21 O          26.3879  -43.1072  -61.0374 O.2       10 UNK        -0.5027 
     22 N          26.5930  -44.1499  -58.3944 N.am      10 UNK        -0.4495 
     23 C          25.6238  -45.0421  -58.1797 C.2       10 UNK         0.4903 
     24 O          24.4351  -44.7387  -58.0693 O.2       10 UNK        -0.4860 
     25 CA         26.0186  -46.5251  -58.0555 C.3       9 UNK         0.0227 
     26 CB         25.7894  -47.2640  -59.3878 C.3       9 UNK        -0.1964 
     27 N          27.3599  -46.8115  -57.5239 N.am      9 UNK        -0.4231 
     28 C          28.5674  -46.5968  -58.0679 C.2       9 UNK         0.5014 
     29 O          28.7573  -45.9045  -59.0681 O.2       9 UNK        -0.5270 
     30 CA         29.7673  -47.2950  -57.3941 C.3       8 UNK         0.0284 
     31 CB         30.4229  -46.3966  -56.3348 C.3       8 UNK        -0.1977 
     32 N          29.4068  -48.5790  -56.7850 N.am      8 UNK        -0.4342 
     33 C          29.0443  -49.6743  -57.4703 C.2       8 UNK         0.5039 
     34 O          29.0556  -49.7529  -58.6991 O.2       8 UNK        -0.5547 
     35 CA         28.5619  -50.8779  -56.6453 C.3       7 UNK         0.0281 
     36 CB         29.7453  -51.7455  -56.1833 C.3       7 UNK        -0.1963 
     37 N          27.7700  -50.4506  -55.4893 N.am      7 UNK        -0.4444 
     38 C          26.4833  -50.0774  -55.5558 C.2       7 UNK         0.5104 
     39 O          25.8061  -50.1315  -56.5821 O.2       7 UNK        -0.5100 
     40 CA         25.8404  -49.5387  -54.2640 C.3       6 UNK         0.0396 
     41 CB         25.1675  -50.6799  -53.4851 C.3       6 UNK        -0.1801 
     42 N          26.7869  -48.8454  -53.3858 N.am      6 UNK        -0.4747 
     43 C          27.3862  -47.6797  -53.6738 C.2       6 UNK         0.5012 
     44 O          27.1748  -47.0425  -54.7040 O.2       6 UNK        -0.5003 
     45 CA         28.4408  -47.1708  -52.6689 C.3       5 UNK         0.0782 
     46 C46        27.7688  -46.2771  -51.6005 C.3       11 UNK        -0.0868 
     47 S47        28.9865  -45.4660  -50.5118 S.3       11 UNK        -0.2515 
     48 C48        28.8845  -43.7337  -51.0641 C.3       11 UNK         0.0199 
     49 N          29.2146  -48.2675  -52.0681 N.am      5 UNK        -0.4607 
     50 C          29.9520  -49.1479  -52.7549 C.2       4 UNK         0.5031 
     51 O          30.0753  -49.1269  -53.9839 O.2       4 UNK        -0.5119 
     52 CA         30.5844  -50.2868  -51.9490 C.3       4 UNK         0.0263 
     53 CB         29.5127  -51.3192  -51.5439 C.3       4 UNK        -0.1967 
     54 N          31.5996  -50.9147  -52.7854 N.am      4 UNK        -0.4237 
     55 C          32.5565  -51.7627  -52.3915 C.2       3 UNK         0.4908 
     56 O          32.6914  -52.1561  -51.2322 O.2       3 UNK        -0.5102 
     57 CA         33.5335  -52.2630  -53.4747 C.3       3 UNK         0.0241 
     58 CB         33.0904  -53.6401  -53.9963 C.3       3 UNK        -0.1971 
     59 N          33.6764  -51.3433  -54.6098 N.am      3 UNK        -0.4139 
     60 C          34.2339  -50.1268  -54.5363 C.2       2 UNK         0.5016 
     61 O          34.7592  -49.6823  -53.5123 O.2       2 UNK        -0.5319 
     62 CA         34.1843  -49.2617  -55.8064 C.3       2 UNK         0.0286 
     63 CB         32.8584  -49.4043  -56.5837 C.3       2 UNK        -0.1963 
     64 N          34.3866  -47.8669  -55.4245 N.am      2 UNK        -0.4790 
     65 C          34.8784  -46.8948  -56.1958 C.2       1 UNK         0.5024 
     66 O          35.1961  -47.0624  -57.3742 O.2       1 UNK        -0.4888 
     67 H67        35.5025  -45.2592  -51.0642 H         1 UNK         0.0892 
     68 H68        36.1444  -46.8721  -51.3889 H         1 UNK         0.0892 
     69 H69        36.9747  -45.4473  -52.0190 H         1 UNK         0.0892 
     70 H70        36.6287  -45.2041  -54.1894 H         1 UNK         0.3107 
     71 H71        35.8048  -44.9950  -56.1800 H         1 UNK         0.0773 
     72 H72        33.3626  -44.6947  -56.6575 H         1 UNK         0.0680 
     73 H73        32.9805  -45.1070  -55.0111 H         1 UNK         0.0680 
     74 H74        33.2987  -41.7795  -53.2182 H         1 UNK         0.0650 
     75 H75        33.6000  -43.4699  -52.9057 H         1 UNK         0.0650 
     76 H76        31.5255  -43.2822  -51.5090 H         1 UNK         0.1397 
     77 H77        27.7934  -43.7069  -53.5796 H         1 UNK         0.1363 
     78 H78        31.3542  -42.8318  -55.7760 H         1 UNK         0.1355 
     79 H79        29.3921  -43.5898  -56.9368 H         1 UNK         0.0707 
     80 H80        27.9768  -44.1234  -56.0589 H         1 UNK         0.0707 
     81 H81        27.5394  -40.8682  -58.6489 H         1 UNK         0.1034 
     82 H82        28.5264  -42.2954  -58.7608 H         1 UNK         0.1034 
     83 H83        25.5639  -42.3846  -57.9840 H         1 UNK         0.0482 
     84 H84        24.7939  -41.2651  -61.2645 H         1 UNK         0.3460 
     85 H85        24.7119  -40.9149  -59.5579 H         1 UNK         0.3460 
     86 H86        27.5199  -44.5142  -58.5907 H         1 UNK         0.2989 
     87 H87        25.3335  -46.9582  -57.3246 H         1 UNK         0.0559 
     88 H88        24.7602  -47.1445  -59.7288 H         1 UNK         0.0848 
     89 H89        25.9743  -48.3334  -59.2828 H         1 UNK         0.0848 
     90 H90        26.4386  -46.8862  -60.1785 H         1 UNK         0.0848 
     91 H91        27.3519  -47.2437  -56.6038 H         1 UNK         0.3144 
     92 H92        30.5084  -47.4948  -58.1708 H         1 UNK         0.0727 
     93 H93        29.7177  -46.1120  -55.5547 H         1 UNK         0.0790 
     94 H94        30.8062  -45.4822  -56.7872 H         1 UNK         0.0790 
     95 H95        31.2667  -46.8911  -55.8538 H         1 UNK         0.0790 
     96 H96        29.4432  -48.6355  -55.7713 H         1 UNK         0.3215 
     97 H97        27.9311  -51.4921  -57.2924 H         1 UNK         0.0863 
     98 H98        29.4037  -52.6179  -55.6260 H         1 UNK         0.0808 
     99 H99        30.4365  -51.1934  -55.5493 H         1 UNK         0.0808 
    100 H100       30.3135  -52.1110  -57.0397 H         1 UNK         0.0808 
    101 H101       28.2662  -50.3244  -54.6185 H         1 UNK         0.3118 
    102 H102       25.0678  -48.8236  -54.5550 H         1 UNK         0.0546 
    103 H103       25.8916  -51.4216  -53.1455 H         1 UNK         0.0828 
    104 H104       24.4377  -51.1992  -54.1079 H         1 UNK         0.0828 
    105 H105       24.6346  -50.3046  -52.6113 H         1 UNK         0.0828 
    106 H106       27.0165  -49.2982  -52.5129 H         1 UNK         0.3005 
    107 H107       29.1430  -46.5548  -53.2353 H         1 UNK         0.1257 
    108 H108       27.0970  -46.8679  -50.9749 H         1 UNK         0.0775 
    109 H109       27.1436  -45.5150  -52.0693 H         1 UNK         0.0775 
    110 H110       27.8406  -43.4206  -51.1184 H         1 UNK         0.0840 
    111 H111       29.3449  -43.0997  -50.3048 H         1 UNK         0.0840 
    112 H112       29.1708  -48.3389  -51.0616 H         1 UNK         0.2987 
    113 H113       31.0621  -49.8678  -51.0610 H         1 UNK         0.0785 
    114 H114       28.7332  -50.8640  -50.9321 H         1 UNK         0.0798 
    115 H115       29.9414  -52.1309  -50.9562 H         1 UNK         0.0798 
    116 H116       29.0296  -51.7616  -52.4163 H         1 UNK         0.0798 
    117 H117       31.5799  -50.5959  -53.7454 H         1 UNK         0.3079 
    118 H118       34.5133  -52.3725  -53.0046 H         1 UNK         0.0794 
    119 H119       33.8120  -54.0484  -54.7042 H         1 UNK         0.0786 
    120 H120       32.1203  -53.5919  -54.4929 H         1 UNK         0.0786 
    121 H121       33.0018  -54.3567  -53.1784 H         1 UNK         0.0786 
    122 H122       33.2931  -51.6494  -55.4922 H         1 UNK         0.3032 
    123 H123       35.0126  -49.5776  -56.4446 H         1 UNK         0.1094 
    124 H124       32.0015  -49.2120  -55.9392 H         1 UNK         0.0794 
    125 H125       32.8062  -48.7051  -57.4184 H         1 UNK         0.0794 
    126 H126       32.7411  -50.4024  -57.0061 H         1 UNK         0.0794 
    127 H127       34.1957  -47.6487  -54.4470 H         1 UNK         0.3016 
@<TRIPOS>BOND
     1    1    2 1    
     2    1   67 1    
     3    1   68 1    
     4    1   69 1    
     5    2    3 2    
     6    2    4 am   BACKBONE|DICT|INTERRES
     7    4    5 1    
     8    4   70 1    
     9    5    6 1    
    10    5   65 1    
    11    5   71 1    
    12    6    7 1    
    13    6   72 1    
    14    6   73 1    
    15    7    8 1    
    16    8    9 1    
    17    8   74 1    
    18    8   75 1    
    19    9   10 ar   
    20    9   14 ar   
    21   10   11 ar   
    22   10   76 1    
    23   11   12 ar   
    24   11   48 1    
    25   12   13 ar   
    26   12   77 1    
    27   13   14 ar   
    28   13   15 1    
    29   14   78 1    
    30   15   16 1    
    31   15   79 1    
    32   15   80 1    
    33   16   17 1    
    34   17   18 1    
    35   17   81 1    
    36   17   82 1    
    37   18   19 1    
    38   18   22 1    
    39   18   83 1    
    40   19   20 am   BACKBONE|DICT|INTERRES
    41   19   21 2    
    42   20   84 1    
    43   20   85 1    
    44   22   23 am   BACKBONE|DICT|INTERRES
    45   22   86 1    
    46   23   24 2    
    47   23   25 1    
    48   25   26 1    
    49   25   27 1    
    50   25   87 1    
    51   26   88 1    
    52   26   89 1    
    53   26   90 1    
    54   27   28 am   BACKBONE|DICT|INTERRES
    55   27   91 1    
    56   28   29 2    
    57   28   30 1    
    58   30   31 1    
    59   30   32 1    
    60   30   92 1    
    61   31   93 1    
    62   31   94 1    
    63   31   95 1    
    64   32   33 am   BACKBONE|DICT|INTERRES
    65   32   96 1    
    66   33   34 2    
    67   33   35 1    
    68   35   36 1    
    69   35   37 1    
    70   35   97 1    
    71   36   98 1    
    72   36   99 1    
    73   36  100 1    
    74   37   38 am   BACKBONE|DICT|INTERRES
    75   37  101 1    
    76   38   39 2    
    77   38   40 1    
    78   40   41 1    
    79   40   42 1    
    80   40  102 1    
    81   41  103 1    
    82   41  104 1    
    83   41  105 1    
    84   42   43 am   BACKBONE|DICT|INTERRES
    85   42  106 1    
    86   43   44 2    
    87   43   45 1    
    88   45   46 1    
    89   45   49 1    
    90   45  107 1    
    91   46   47 1    
    92   46  108 1    
    93   46  109 1    
    94   47   48 1    
    95   48  110 1    
    96   48  111 1    
    97   49   50 am   BACKBONE|DICT|INTERRES
    98   49  112 1    
    99   50   51 2    
   100   50   52 1    
   101   52   53 1    
   102   52   54 1    
   103   52  113 1    
   104   53  114 1    
   105   53  115 1    
   106   53  116 1    
   107   54   55 am   BACKBONE|DICT|INTERRES
   108   54  117 1    
   109   55   56 2    
   110   55   57 1    
   111   57   58 1    
   112   57   59 1    
   113   57  118 1    
   114   58  119 1    
   115   58  120 1    
   116   58  121 1    
   117   59   60 am   BACKBONE|DICT|INTERRES
   118   59  122 1    
   119   60   61 2    
   120   60   62 1    
   121   62   63 1    
   122   62   64 1    
   123   62  123 1    
   124   63  124 1    
   125   63  125 1    
   126   63  126 1    
   127   64   65 am   BACKBONE|DICT|INTERRES
   128   64  127 1    
   129   65   66 2    
@<TRIPOS>SUBSTRUCTURE
     1 UNK         1 GROUP             0       ****    0 ROOT    
