@<TRIPOS>MOLECULE
3R134
127   129    1
SMALL
USER_CHARGES


@<TRIPOS>ATOM
      1 CA         30.2591  -44.0999  -47.6269 C.3       0 UNK        -0.1968 
      2 C          31.3964  -44.8442  -48.3114 C.2       0 UNK         0.4852 
      3 O          32.1493  -45.5559  -47.6442 O.2       0 UNK        -0.5359 
      4 N          31.5312  -44.6790  -49.6338 N.am      1 UNK        -0.4300 
      5 CA         32.5194  -45.3691  -50.4662 C.3       1 UNK         0.0863 
      6 C6         32.6856  -44.6533  -51.8281 C.3       11 UNK        -0.0953 
      7 S7         34.1228  -45.2507  -52.7794 S.3       11 UNK        -0.2369 
      8 C8         34.4779  -43.8225  -53.8477 C.3       11 UNK         0.0226 
      9 C9         33.4658  -43.6845  -54.9764 C.ar      11 UNK        -0.0699 
     10 C10        33.6875  -44.3185  -56.2021 C.ar      11 UNK        -0.0804 
     11 C11        32.7836  -44.1647  -57.2590 C.ar      11 UNK        -0.0871 
     12 C12        31.6447  -43.3727  -57.0800 C.ar      11 UNK        -0.1008 
     13 C13        31.4174  -42.7262  -55.8603 C.ar      11 UNK        -0.0735 
     14 C14        32.3283  -42.8897  -54.8123 C.ar      11 UNK        -0.0945 
     15 C15        30.2163  -41.8110  -55.6789 C.3       11 UNK         0.0169 
     16 S16        28.7811  -42.7055  -55.0150 S.3       11 UNK        -0.2669 
     17 C17        28.0095  -43.3174  -56.5498 C.3       11 UNK        -0.0850 
     18 CA         26.6297  -43.9722  -56.2743 C.3       10 UNK         0.0855 
     19 C          25.5104  -42.8990  -56.1481 C.2       10 UNK         0.5543 
     20 N          25.1691  -42.4911  -54.9338 N.am      10 UNK        -0.7343 
     21 O          24.9803  -42.4105  -57.1446 O.2       10 UNK        -0.5027 
     22 N          26.3288  -44.9969  -57.2834 N.am      10 UNK        -0.4495 
     23 C          25.2639  -45.8083  -57.2677 C.2       10 UNK         0.4903 
     24 O          24.4368  -45.8503  -56.3563 O.2       10 UNK        -0.4860 
     25 CA         25.0846  -46.7358  -58.4740 C.3       9 UNK         0.0227 
     26 CB         25.6079  -46.1439  -59.7992 C.3       9 UNK        -0.1964 
     27 N          25.7595  -48.0004  -58.2004 N.am      9 UNK        -0.4231 
     28 C          25.2122  -49.2104  -58.3674 C.2       9 UNK         0.5014 
     29 O          24.0603  -49.3970  -58.7639 O.2       9 UNK        -0.5270 
     30 CA         26.0980  -50.4300  -58.0692 C.3       8 UNK         0.0284 
     31 CB         26.9217  -50.8024  -59.3129 C.3       8 UNK        -0.1977 
     32 N          26.9913  -50.2437  -56.9229 N.am      8 UNK        -0.4342 
     33 C          26.5900  -50.2316  -55.6437 C.2       8 UNK         0.5039 
     34 O          25.4152  -50.3523  -55.2934 O.2       8 UNK        -0.5547 
     35 CA         27.6808  -50.0717  -54.5702 C.3       7 UNK         0.0281 
     36 CB         28.4501  -51.3869  -54.3644 C.3       7 UNK        -0.1963 
     37 N          28.6221  -48.9972  -54.8821 N.am      7 UNK        -0.4444 
     38 C          28.3195  -47.6927  -54.8602 C.2       7 UNK         0.5104 
     39 O          27.2283  -47.2457  -54.5089 O.2       7 UNK        -0.5100 
     40 CA         29.4113  -46.7238  -55.3382 C.3       6 UNK         0.0396 
     41 CB         30.3609  -46.3383  -54.1975 C.3       6 UNK        -0.1801 
     42 N          30.1798  -47.2573  -56.4627 N.am      6 UNK        -0.4747 
     43 C          29.6983  -47.4026  -57.7043 C.2       6 UNK         0.5012 
     44 O          28.5620  -47.0662  -58.0394 O.2       6 UNK        -0.5003 
     45 CA         30.6203  -48.0776  -58.7386 C.3       5 UNK         0.0782 
     46 C46        31.5296  -47.0507  -59.4625 C.3       11 UNK        -0.0868 
     47 S47        33.0503  -46.6178  -58.5392 S.3       11 UNK        -0.2515 
     48 C48        33.0833  -44.7988  -58.6102 C.3       11 UNK         0.0199 
     49 N          31.3860  -49.1921  -58.1710 N.am      5 UNK        -0.4607 
     50 C          30.8626  -50.3246  -57.6877 C.2       4 UNK         0.5031 
     51 O          29.6632  -50.5890  -57.7164 O.2       4 UNK        -0.5119 
     52 CA         31.8355  -51.3000  -57.0049 C.3       4 UNK         0.0263 
     53 CB         32.5110  -52.2062  -58.0460 C.3       4 UNK        -0.1967 
     54 N          32.8577  -50.6291  -56.1927 N.am      4 UNK        -0.4237 
     55 C          32.5940  -49.8300  -55.1494 C.2       3 UNK         0.4908 
     56 O          31.4533  -49.5502  -54.7752 O.2       3 UNK        -0.5102 
     57 CA         33.8076  -49.1912  -54.4539 C.3       3 UNK         0.0241 
     58 CB         34.2342  -47.9195  -55.2049 C.3       3 UNK        -0.1971 
     59 N          33.5396  -48.8501  -53.0536 N.am      3 UNK        -0.4139 
     60 C          33.2852  -49.7374  -52.0804 C.2       2 UNK         0.5016 
     61 O          33.2956  -50.9574  -52.2555 O.2       2 UNK        -0.5319 
     62 CA         33.0038  -49.1927  -50.6661 C.3       2 UNK         0.0286 
     63 CB         33.9404  -49.8433  -49.6317 C.3       2 UNK        -0.1963 
     64 N          33.1472  -47.7363  -50.5662 N.am      2 UNK        -0.4790 
     65 C          32.1390  -46.8574  -50.6300 C.2       1 UNK         0.5024 
     66 O          30.9629  -47.1733  -50.8231 O.2       1 UNK        -0.4888 
     67 H67        29.6838  -43.4974  -48.3297 H         1 UNK         0.0892 
     68 H68        29.5799  -44.8079  -47.1525 H         1 UNK         0.0892 
     69 H69        30.6537  -43.4375  -46.8569 H         1 UNK         0.0892 
     70 H70        30.8621  -44.1090  -50.1308 H         1 UNK         0.3107 
     71 H71        33.4757  -45.3141  -49.9404 H         1 UNK         0.0773 
     72 H72        31.7850  -44.7438  -52.4341 H         1 UNK         0.0680 
     73 H73        32.8235  -43.5848  -51.6555 H         1 UNK         0.0680 
     74 H74        35.4782  -43.9442  -54.2659 H         1 UNK         0.0650 
     75 H75        34.5117  -42.9111  -53.2490 H         1 UNK         0.0650 
     76 H76        34.5737  -44.9227  -56.3405 H         1 UNK         0.1397 
     77 H77        30.9495  -43.2353  -57.8967 H         1 UNK         0.1363 
     78 H78        32.1577  -42.3856  -53.8710 H         1 UNK         0.1355 
     79 H79        29.9575  -41.3252  -56.6209 H         1 UNK         0.0707 
     80 H80        30.4710  -41.0055  -54.9883 H         1 UNK         0.0707 
     81 H81        27.9231  -42.5044  -57.2739 H         1 UNK         0.1034 
     82 H82        28.6980  -44.0341  -56.9985 H         1 UNK         0.1034 
     83 H83        26.6878  -44.5128  -55.3269 H         1 UNK         0.0482 
     84 H84        25.6223  -42.8688  -54.1163 H         1 UNK         0.3460 
     85 H85        24.4557  -41.7864  -54.8327 H         1 UNK         0.3460 
     86 H86        26.9651  -45.0622  -58.0639 H         1 UNK         0.2989 
     87 H87        24.0090  -46.8904  -58.5827 H         1 UNK         0.0559 
     88 H88        26.6951  -46.0619  -59.8182 H         1 UNK         0.0848 
     89 H89        25.1945  -45.1500  -59.9767 H         1 UNK         0.0848 
     90 H90        25.3149  -46.7679  -60.6437 H         1 UNK         0.0848 
     91 H91        26.7187  -47.9255  -57.8749 H         1 UNK         0.3144 
     92 H92        25.4361  -51.2691  -57.8439 H         1 UNK         0.0727 
     93 H93        27.6237  -50.0124  -59.5830 H         1 UNK         0.0790 
     94 H94        26.2747  -50.9736  -60.1744 H         1 UNK         0.0790 
     95 H95        27.4931  -51.7166  -59.1507 H         1 UNK         0.0790 
     96 H96        27.9900  -50.2125  -57.1266 H         1 UNK         0.3215 
     97 H97        27.1865  -49.8201  -53.6292 H         1 UNK         0.0863 
     98 H98        29.1903  -51.2925  -53.5694 H         1 UNK         0.0808 
     99 H99        28.9719  -51.6980  -55.2694 H         1 UNK         0.0808 
    100 H100       27.7724  -52.1944  -54.0845 H         1 UNK         0.0808 
    101 H101       29.5796  -49.2626  -55.0999 H         1 UNK         0.3118 
    102 H102       28.9131  -45.8158  -55.6707 H         1 UNK         0.0546 
    103 H103       29.8110  -45.8645  -53.3835 H         1 UNK         0.0828 
    104 H104       31.1133  -45.6284  -54.5407 H         1 UNK         0.0828 
    105 H105       30.8775  -47.2020  -53.7796 H         1 UNK         0.0828 
    106 H106       31.1078  -47.5999  -56.2609 H         1 UNK         0.3005 
    107 H107       29.9529  -48.5057  -59.4906 H         1 UNK         0.1257 
    108 H108       30.9669  -46.1523  -59.7233 H         1 UNK         0.0775 
    109 H109       31.8504  -47.4738  -60.4156 H         1 UNK         0.0775 
    110 H110       34.0803  -44.4875  -58.9250 H         1 UNK         0.0840 
    111 H111       32.4040  -44.4283  -59.3787 H         1 UNK         0.0840 
    112 H112       32.3821  -49.0439  -58.0982 H         1 UNK         0.2987 
    113 H113       31.2479  -51.9308  -56.3348 H         1 UNK         0.0785 
    114 H114       31.7665  -52.7274  -58.6498 H         1 UNK         0.0798 
    115 H115       33.1279  -52.9679  -57.5689 H         1 UNK         0.0798 
    116 H116       33.1446  -51.6385  -58.7287 H         1 UNK         0.0798 
    117 H117       33.8208  -50.7996  -56.4453 H         1 UNK         0.3079 
    118 H118       34.6332  -49.9057  -54.4704 H         1 UNK         0.0794 
    119 H119       33.4386  -47.1730  -55.2186 H         1 UNK         0.0786 
    120 H120       34.4921  -48.1403  -56.2412 H         1 UNK         0.0786 
    121 H121       35.1132  -47.4639  -54.7487 H         1 UNK         0.0786 
    122 H122       33.4965  -47.8679  -52.8241 H         1 UNK         0.3032 
    123 H123       31.9789  -49.4801  -50.4195 H         1 UNK         0.1094 
    124 H124       34.9886  -49.6303  -49.8452 H         1 UNK         0.0794 
    125 H125       33.7239  -49.4893  -48.6235 H         1 UNK         0.0794 
    126 H126       33.8238  -50.9279  -49.6213 H         1 UNK         0.0794 
    127 H127       34.0862  -47.3878  -50.4278 H         1 UNK         0.3016 
@<TRIPOS>BOND
     1    1    2 1    
     2    1   67 1    
     3    1   68 1    
     4    1   69 1    
     5    2    3 2    
     6    2    4 am   BACKBONE|DICT|INTERRES
     7    4    5 1    
     8    4   70 1    
     9    5    6 1    
    10    5   65 1    
    11    5   71 1    
    12    6    7 1    
    13    6   72 1    
    14    6   73 1    
    15    7    8 1    
    16    8    9 1    
    17    8   74 1    
    18    8   75 1    
    19    9   10 ar   
    20    9   14 ar   
    21   10   11 ar   
    22   10   76 1    
    23   11   12 ar   
    24   11   48 1    
    25   12   13 ar   
    26   12   77 1    
    27   13   14 ar   
    28   13   15 1    
    29   14   78 1    
    30   15   16 1    
    31   15   79 1    
    32   15   80 1    
    33   16   17 1    
    34   17   18 1    
    35   17   81 1    
    36   17   82 1    
    37   18   19 1    
    38   18   22 1    
    39   18   83 1    
    40   19   20 am   BACKBONE|DICT|INTERRES
    41   19   21 2    
    42   20   84 1    
    43   20   85 1    
    44   22   23 am   BACKBONE|DICT|INTERRES
    45   22   86 1    
    46   23   24 2    
    47   23   25 1    
    48   25   26 1    
    49   25   27 1    
    50   25   87 1    
    51   26   88 1    
    52   26   89 1    
    53   26   90 1    
    54   27   28 am   BACKBONE|DICT|INTERRES
    55   27   91 1    
    56   28   29 2    
    57   28   30 1    
    58   30   31 1    
    59   30   32 1    
    60   30   92 1    
    61   31   93 1    
    62   31   94 1    
    63   31   95 1    
    64   32   33 am   BACKBONE|DICT|INTERRES
    65   32   96 1    
    66   33   34 2    
    67   33   35 1    
    68   35   36 1    
    69   35   37 1    
    70   35   97 1    
    71   36   98 1    
    72   36   99 1    
    73   36  100 1    
    74   37   38 am   BACKBONE|DICT|INTERRES
    75   37  101 1    
    76   38   39 2    
    77   38   40 1    
    78   40   41 1    
    79   40   42 1    
    80   40  102 1    
    81   41  103 1    
    82   41  104 1    
    83   41  105 1    
    84   42   43 am   BACKBONE|DICT|INTERRES
    85   42  106 1    
    86   43   44 2    
    87   43   45 1    
    88   45   46 1    
    89   45   49 1    
    90   45  107 1    
    91   46   47 1    
    92   46  108 1    
    93   46  109 1    
    94   47   48 1    
    95   48  110 1    
    96   48  111 1    
    97   49   50 am   BACKBONE|DICT|INTERRES
    98   49  112 1    
    99   50   51 2    
   100   50   52 1    
   101   52   53 1    
   102   52   54 1    
   103   52  113 1    
   104   53  114 1    
   105   53  115 1    
   106   53  116 1    
   107   54   55 am   BACKBONE|DICT|INTERRES
   108   54  117 1    
   109   55   56 2    
   110   55   57 1    
   111   57   58 1    
   112   57   59 1    
   113   57  118 1    
   114   58  119 1    
   115   58  120 1    
   116   58  121 1    
   117   59   60 am   BACKBONE|DICT|INTERRES
   118   59  122 1    
   119   60   61 2    
   120   60   62 1    
   121   62   63 1    
   122   62   64 1    
   123   62  123 1    
   124   63  124 1    
   125   63  125 1    
   126   63  126 1    
   127   64   65 am   BACKBONE|DICT|INTERRES
   128   64  127 1    
   129   65   66 2    
@<TRIPOS>SUBSTRUCTURE
     1 UNK         1 GROUP             0       ****    0 ROOT    
