@<TRIPOS>MOLECULE
3R134
127   129    1
SMALL
USER_CHARGES


@<TRIPOS>ATOM
      1 CA         35.7662  -44.6379  -50.3183 C.3       0 UNK        -0.1968 
      2 C          35.3197  -44.5815  -51.7719 C.2       0 UNK         0.4852 
      3 O          34.9071  -43.5208  -52.2432 O.2       0 UNK        -0.5359 
      4 N          35.4000  -45.7113  -52.4818 N.am      1 UNK        -0.4300 
      5 CA         35.0436  -45.8639  -53.8904 C.3       1 UNK         0.0863 
      6 C6         33.5063  -45.8437  -54.1264 C.3       11 UNK        -0.0953 
      7 S7         33.0576  -45.0637  -55.7112 S.3       11 UNK        -0.2369 
      8 C8         32.3195  -43.4975  -55.1481 C.3       11 UNK         0.0226 
      9 C9         30.9306  -43.6988  -54.5566 C.ar      11 UNK        -0.0699 
     10 C10        30.7462  -43.7389  -53.1703 C.ar      11 UNK        -0.0804 
     11 C11        29.4685  -43.9071  -52.6273 C.ar      11 UNK        -0.0871 
     12 C12        28.3673  -44.0137  -53.4825 C.ar      11 UNK        -0.1008 
     13 C13        28.5399  -43.9809  -54.8684 C.ar      11 UNK        -0.0735 
     14 C14        29.8232  -43.8254  -55.4001 C.ar      11 UNK        -0.0945 
     15 C15        27.3433  -44.1182  -55.7944 C.3       11 UNK         0.0169 
     16 S16        26.8760  -42.5070  -56.4957 S.3       11 UNK        -0.2669 
     17 C17        25.5067  -42.9796  -57.6108 C.3       11 UNK        -0.0850 
     18 CA         25.8038  -42.9341  -59.1416 C.3       10 UNK         0.0855 
     19 C          26.3731  -41.5762  -59.6589 C.2       10 UNK         0.5543 
     20 N          27.3044  -41.5607  -60.6038 N.am      10 UNK        -0.7343 
     21 O          25.9187  -40.5148  -59.2383 O.2       10 UNK        -0.5027 
     22 N          26.4284  -44.1686  -59.6548 N.am      10 UNK        -0.4495 
     23 C          27.6936  -44.5834  -59.5173 C.2       10 UNK         0.4903 
     24 O          28.5935  -43.9462  -58.9696 O.2       10 UNK        -0.4860 
     25 CA         28.0195  -45.9423  -60.1575 C.3       9 UNK         0.0227 
     26 CB         28.7962  -45.7487  -61.4704 C.3       9 UNK        -0.1964 
     27 N          28.7962  -46.7917  -59.2535 N.am      9 UNK        -0.4231 
     28 C          28.3117  -47.3608  -58.1421 C.2       9 UNK         0.5014 
     29 O          27.1452  -47.2375  -57.7588 O.2       9 UNK        -0.5270 
     30 CA         29.3139  -48.1913  -57.3189 C.3       8 UNK         0.0284 
     31 CB         30.0699  -47.2938  -56.3253 C.3       8 UNK        -0.1977 
     32 N          28.6741  -49.2755  -56.5733 N.am      8 UNK        -0.4342 
     33 C          28.0127  -50.3133  -57.1028 C.2       8 UNK         0.5039 
     34 O          27.9124  -50.5199  -58.3135 O.2       8 UNK        -0.5547 
     35 CA         27.3642  -51.3008  -56.1197 C.3       7 UNK         0.0281 
     36 CB         28.3676  -52.3974  -55.7248 C.3       7 UNK        -0.1963 
     37 N          26.8845  -50.6351  -54.9054 N.am      7 UNK        -0.4444 
     38 C          25.6111  -50.2931  -54.6669 C.2       7 UNK         0.5104 
     39 O          24.6898  -50.4956  -55.4587 O.2       7 UNK        -0.5100 
     40 CA         25.2891  -49.6466  -53.3039 C.3       6 UNK         0.0396 
     41 CB         24.6757  -50.6894  -52.3552 C.3       6 UNK        -0.1801 
     42 N          26.4544  -49.0425  -52.6523 N.am      6 UNK        -0.4747 
     43 C          26.9630  -47.8416  -52.9646 C.2       6 UNK         0.5012 
     44 O          26.4512  -47.0802  -53.7846 O.2       6 UNK        -0.5003 
     45 CA         28.2752  -47.4232  -52.2621 C.3       5 UNK         0.0782 
     46 C46        27.9765  -46.4761  -51.0746 C.3       11 UNK        -0.0868 
     47 S47        29.4852  -45.6505  -50.4636 S.3       11 UNK        -0.2515 
     48 C48        29.2793  -43.9609  -51.1176 C.3       11 UNK         0.0199 
     49 N          29.1264  -48.5535  -51.8522 N.am      5 UNK        -0.4607 
     50 C          29.6209  -49.4791  -52.6817 C.2       4 UNK         0.5031 
     51 O          29.3257  -49.5435  -53.8757 O.2       4 UNK        -0.5119 
     52 CA         30.5469  -50.5493  -52.0794 C.3       4 UNK         0.0263 
     53 CB         29.7168  -51.7363  -51.5642 C.3       4 UNK        -0.1967 
     54 N          31.5013  -51.0320  -53.0826 N.am      4 UNK        -0.4237 
     55 C          32.4705  -50.2723  -53.6083 C.2       3 UNK         0.4908 
     56 O          32.7765  -49.1628  -53.1637 O.2       3 UNK        -0.5102 
     57 CA         33.1984  -50.8252  -54.8438 C.3       3 UNK         0.0241 
     58 CB         32.2176  -51.2626  -55.9517 C.3       3 UNK        -0.1971 
     59 N          34.0698  -49.7733  -55.3560 N.am      3 UNK        -0.4139 
     60 C          35.2261  -49.9302  -56.0066 C.2       2 UNK         0.5016 
     61 O          35.6937  -51.0272  -56.3154 O.2       2 UNK        -0.5319 
     62 CA         35.9938  -48.6470  -56.3887 C.3       2 UNK         0.0286 
     63 CB         35.9326  -48.4182  -57.9083 C.3       2 UNK        -0.1963 
     64 N          35.5082  -47.4372  -55.7108 N.am      2 UNK        -0.4790 
     65 C          35.7065  -47.1506  -54.4175 C.2       1 UNK         0.5024 
     66 O          36.3641  -47.8654  -53.6552 O.2       1 UNK        -0.4888 
     67 H67        36.5856  -43.9396  -50.1500 H         1 UNK         0.0892 
     68 H68        34.9416  -44.3610  -49.6621 H         1 UNK         0.0892 
     69 H69        36.1054  -45.6339  -50.0343 H         1 UNK         0.0892 
     70 H70        35.7938  -46.5535  -52.0780 H         1 UNK         0.3107 
     71 H71        35.5085  -45.0312  -54.4230 H         1 UNK         0.0773 
     72 H72        33.0059  -45.3086  -53.3216 H         1 UNK         0.0680 
     73 H73        33.0727  -46.8422  -54.1010 H         1 UNK         0.0680 
     74 H74        32.2550  -42.8164  -55.9978 H         1 UNK         0.0650 
     75 H75        32.9843  -43.0208  -54.4256 H         1 UNK         0.0650 
     76 H76        31.5982  -43.6398  -52.5113 H         1 UNK         0.1397 
     77 H77        27.3737  -44.1309  -53.0728 H         1 UNK         0.1363 
     78 H78        29.9557  -43.7964  -56.4737 H         1 UNK         0.1355 
     79 H79        27.5859  -44.8148  -56.5953 H         1 UNK         0.0707 
     80 H80        26.4918  -44.5460  -55.2626 H         1 UNK         0.0707 
     81 H81        25.1342  -43.9672  -57.3347 H         1 UNK         0.1034 
     82 H82        24.6816  -42.2990  -57.3935 H         1 UNK         0.1034 
     83 H83        24.8219  -42.9655  -59.6156 H         1 UNK         0.0482 
     84 H84        27.6987  -42.4244  -60.9390 H         1 UNK         0.3460 
     85 H85        27.6502  -40.6777  -60.9447 H         1 UNK         0.3460 
     86 H86        25.7979  -44.7696  -60.1663 H         1 UNK         0.2989 
     87 H87        27.0871  -46.4630  -60.3875 H         1 UNK         0.0559 
     88 H88        29.7490  -45.2431  -61.3063 H         1 UNK         0.0848 
     89 H89        28.2252  -45.1442  -62.1764 H         1 UNK         0.0848 
     90 H90        29.0011  -46.7028  -61.9564 H         1 UNK         0.0848 
     91 H91        29.7760  -46.9029  -59.4704 H         1 UNK         0.3144 
     92 H92        30.0350  -48.6441  -58.0024 H         1 UNK         0.0727 
     93 H93        30.8334  -47.8509  -55.7814 H         1 UNK         0.0790 
     94 H94        29.3944  -46.8519  -55.5915 H         1 UNK         0.0790 
     95 H95        30.5719  -46.4736  -56.8395 H         1 UNK         0.0790 
     96 H96        28.7653  -49.2352  -55.5607 H         1 UNK         0.3215 
     97 H97        26.5299  -51.7797  -56.6371 H         1 UNK         0.0863 
     98 H98        29.2194  -51.9882  -55.1818 H         1 UNK         0.0808 
     99 H99        28.7562  -52.9083  -56.6069 H         1 UNK         0.0808 
    100 H100       27.8995  -53.1522  -55.0928 H         1 UNK         0.0808 
    101 H101       27.5952  -50.3592  -54.2366 H         1 UNK         0.3118 
    102 H102       24.5418  -48.8693  -53.4778 H         1 UNK         0.0546 
    103 H103       25.3734  -51.4992  -52.1376 H         1 UNK         0.0828 
    104 H104       23.7833  -51.1385  -52.7935 H         1 UNK         0.0828 
    105 H105       24.3766  -50.2387  -51.4088 H         1 UNK         0.0828 
    106 H106       26.9300  -49.5973  -51.9553 H         1 UNK         0.3005 
    107 H107       28.8416  -46.8626  -53.0099 H         1 UNK         0.1257 
    108 H108       27.5296  -47.0320  -50.2483 H         1 UNK         0.0775 
    109 H109       27.2423  -45.7163  -51.3469 H         1 UNK         0.0775 
    110 H110       28.2984  -43.5729  -50.8383 H         1 UNK         0.0840 
    111 H111       30.0075  -43.3082  -50.6338 H         1 UNK         0.0840 
    112 H112       29.4076  -48.5620  -50.8823 H         1 UNK         0.2987 
    113 H113       31.1043  -50.1117  -51.2483 H         1 UNK         0.0785 
    114 H114       29.0176  -51.4196  -50.7892 H         1 UNK         0.0798 
    115 H115       29.1327  -52.1991  -52.3611 H         1 UNK         0.0798 
    116 H116       30.3540  -52.5049  -51.1262 H         1 UNK         0.0798 
    117 H117       31.2989  -51.9249  -53.5062 H         1 UNK         0.3079 
    118 H118       33.8041  -51.6764  -54.5262 H         1 UNK         0.0794 
    119 H119       31.6392  -52.1355  -55.6497 H         1 UNK         0.0786 
    120 H120       32.7461  -51.5363  -56.8650 H         1 UNK         0.0786 
    121 H121       31.5120  -50.4686  -56.2013 H         1 UNK         0.0786 
    122 H122       33.8045  -48.8425  -55.0621 H         1 UNK         0.3032 
    123 H123       37.0375  -48.8041  -56.1064 H         1 UNK         0.1094 
    124 H124       36.3193  -49.2826  -58.4502 H         1 UNK         0.0794 
    125 H125       34.9105  -48.2502  -58.2503 H         1 UNK         0.0794 
    126 H126       36.5332  -47.5582  -58.2054 H         1 UNK         0.0794 
    127 H127       34.9462  -46.8010  -56.2615 H         1 UNK         0.3016 
@<TRIPOS>BOND
     1    1    2 1    
     2    1   67 1    
     3    1   68 1    
     4    1   69 1    
     5    2    3 2    
     6    2    4 am   BACKBONE|DICT|INTERRES
     7    4    5 1    
     8    4   70 1    
     9    5    6 1    
    10    5   65 1    
    11    5   71 1    
    12    6    7 1    
    13    6   72 1    
    14    6   73 1    
    15    7    8 1    
    16    8    9 1    
    17    8   74 1    
    18    8   75 1    
    19    9   10 ar   
    20    9   14 ar   
    21   10   11 ar   
    22   10   76 1    
    23   11   12 ar   
    24   11   48 1    
    25   12   13 ar   
    26   12   77 1    
    27   13   14 ar   
    28   13   15 1    
    29   14   78 1    
    30   15   16 1    
    31   15   79 1    
    32   15   80 1    
    33   16   17 1    
    34   17   18 1    
    35   17   81 1    
    36   17   82 1    
    37   18   19 1    
    38   18   22 1    
    39   18   83 1    
    40   19   20 am   BACKBONE|DICT|INTERRES
    41   19   21 2    
    42   20   84 1    
    43   20   85 1    
    44   22   23 am   BACKBONE|DICT|INTERRES
    45   22   86 1    
    46   23   24 2    
    47   23   25 1    
    48   25   26 1    
    49   25   27 1    
    50   25   87 1    
    51   26   88 1    
    52   26   89 1    
    53   26   90 1    
    54   27   28 am   BACKBONE|DICT|INTERRES
    55   27   91 1    
    56   28   29 2    
    57   28   30 1    
    58   30   31 1    
    59   30   32 1    
    60   30   92 1    
    61   31   93 1    
    62   31   94 1    
    63   31   95 1    
    64   32   33 am   BACKBONE|DICT|INTERRES
    65   32   96 1    
    66   33   34 2    
    67   33   35 1    
    68   35   36 1    
    69   35   37 1    
    70   35   97 1    
    71   36   98 1    
    72   36   99 1    
    73   36  100 1    
    74   37   38 am   BACKBONE|DICT|INTERRES
    75   37  101 1    
    76   38   39 2    
    77   38   40 1    
    78   40   41 1    
    79   40   42 1    
    80   40  102 1    
    81   41  103 1    
    82   41  104 1    
    83   41  105 1    
    84   42   43 am   BACKBONE|DICT|INTERRES
    85   42  106 1    
    86   43   44 2    
    87   43   45 1    
    88   45   46 1    
    89   45   49 1    
    90   45  107 1    
    91   46   47 1    
    92   46  108 1    
    93   46  109 1    
    94   47   48 1    
    95   48  110 1    
    96   48  111 1    
    97   49   50 am   BACKBONE|DICT|INTERRES
    98   49  112 1    
    99   50   51 2    
   100   50   52 1    
   101   52   53 1    
   102   52   54 1    
   103   52  113 1    
   104   53  114 1    
   105   53  115 1    
   106   53  116 1    
   107   54   55 am   BACKBONE|DICT|INTERRES
   108   54  117 1    
   109   55   56 2    
   110   55   57 1    
   111   57   58 1    
   112   57   59 1    
   113   57  118 1    
   114   58  119 1    
   115   58  120 1    
   116   58  121 1    
   117   59   60 am   BACKBONE|DICT|INTERRES
   118   59  122 1    
   119   60   61 2    
   120   60   62 1    
   121   62   63 1    
   122   62   64 1    
   123   62  123 1    
   124   63  124 1    
   125   63  125 1    
   126   63  126 1    
   127   64   65 am   BACKBONE|DICT|INTERRES
   128   64  127 1    
   129   65   66 2    
@<TRIPOS>SUBSTRUCTURE
     1 UNK         1 GROUP             0       ****    0 ROOT    
