@<TRIPOS>MOLECULE
3R134
127   129    1
SMALL
USER_CHARGES


@<TRIPOS>ATOM
      1 CA         30.8818  -49.3154  -50.3544 C.3       0 UNK        -0.1968 
      2 C          31.7352  -48.1142  -49.9720 C.2       0 UNK         0.4852 
      3 O          31.6589  -47.6517  -48.8325 O.2       0 UNK        -0.5359 
      4 N          32.5442  -47.6197  -50.9156 N.am      1 UNK        -0.4300 
      5 CA         33.5321  -46.5560  -50.7149 C.3       1 UNK         0.0863 
      6 C6         33.3735  -45.4203  -51.7632 C.3       11 UNK        -0.0953 
      7 S7         31.8722  -44.4217  -51.4995 S.3       11 UNK        -0.2369 
      8 C8         32.1122  -43.0837  -52.7129 C.3       11 UNK         0.0226 
      9 C9         31.6968  -43.4851  -54.1238 C.ar      11 UNK        -0.0699 
     10 C10        32.5705  -44.2080  -54.9407 C.ar      11 UNK        -0.0804 
     11 C11        32.2096  -44.5514  -56.2467 C.ar      11 UNK        -0.0871 
     12 C12        30.9695  -44.1430  -56.7485 C.ar      11 UNK        -0.1008 
     13 C13        30.0989  -43.3899  -55.9535 C.ar      11 UNK        -0.0735 
     14 C14        30.4596  -43.0821  -54.6370 C.ar      11 UNK        -0.0945 
     15 C15        28.8019  -42.8433  -56.5326 C.3       11 UNK         0.0169 
     16 S16        27.3761  -43.9153  -56.1796 S.3       11 UNK        -0.2669 
     17 C17        25.9962  -42.7940  -56.6047 C.3       11 UNK        -0.0850 
     18 CA         25.2749  -43.1284  -57.9358 C.3       10 UNK         0.0855 
     19 C          26.1734  -42.8927  -59.1872 C.2       10 UNK         0.5543 
     20 N          26.3994  -43.8758  -60.0508 N.am      10 UNK        -0.7343 
     21 O          26.6633  -41.7835  -59.3853 O.2       10 UNK        -0.5027 
     22 N          24.6095  -44.4389  -57.8818 N.am      10 UNK        -0.4495 
     23 C          23.5359  -44.7696  -58.6113 C.2       10 UNK         0.4903 
     24 O          22.9368  -43.9721  -59.3354 O.2       10 UNK        -0.4860 
     25 CA         23.0453  -46.2308  -58.5168 C.3       9 UNK         0.0227 
     26 CB         22.1788  -46.6365  -59.7279 C.3       9 UNK        -0.1964 
     27 N          24.1081  -47.2248  -58.3118 N.am      9 UNK        -0.4231 
     28 C          25.2130  -47.4152  -59.0471 C.2       9 UNK         0.5014 
     29 O          25.5450  -46.6873  -59.9848 O.2       9 UNK        -0.5270 
     30 CA         26.0881  -48.6249  -58.6622 C.3       8 UNK         0.0284 
     31 CB         27.3994  -48.6902  -59.4685 C.3       8 UNK        -0.1977 
     32 N          26.3933  -48.6772  -57.2265 N.am      8 UNK        -0.4342 
     33 C          25.5622  -49.1457  -56.2821 C.2       8 UNK         0.5039 
     34 O          24.4018  -49.4810  -56.5258 O.2       8 UNK        -0.5547 
     35 CA         26.0750  -49.2710  -54.8365 C.3       7 UNK         0.0281 
     36 CB         26.2091  -50.7520  -54.4437 C.3       7 UNK        -0.1963 
     37 N          27.3617  -48.6083  -54.6285 N.am      7 UNK        -0.4444 
     38 C          27.5025  -47.3254  -54.2642 C.2       7 UNK         0.5104 
     39 O          26.5537  -46.5853  -54.0049 O.2       7 UNK        -0.5100 
     40 CA         28.9400  -46.7746  -54.1590 C.3       6 UNK         0.0396 
     41 CB         29.4146  -46.8657  -52.7045 C.3       6 UNK        -0.1801 
     42 N          29.9150  -47.4641  -55.0083 N.am      6 UNK        -0.4747 
     43 C          29.8323  -47.6090  -56.3387 C.2       6 UNK         0.5012 
     44 O          28.9446  -47.1055  -57.0243 O.2       6 UNK        -0.5003 
     45 CA         30.8445  -48.5611  -57.0107 C.3       5 UNK         0.0782 
     46 C46        31.9492  -47.7868  -57.7715 C.3       11 UNK        -0.0868 
     47 S47        33.2521  -47.0844  -56.6976 S.3       11 UNK        -0.2515 
     48 C48        33.1936  -45.3146  -57.1206 C.3       11 UNK         0.0199 
     49 N          31.4014  -49.5815  -56.1103 N.am      5 UNK        -0.4607 
     50 C          30.7055  -50.4655  -55.3807 C.2       4 UNK         0.5031 
     51 O          29.4767  -50.5381  -55.4081 O.2       4 UNK        -0.5119 
     52 CA         31.4871  -51.4092  -54.4438 C.3       4 UNK         0.0263 
     53 CB         31.1993  -52.8789  -54.7948 C.3       4 UNK        -0.1967 
     54 N          32.9403  -51.2014  -54.4298 N.am      4 UNK        -0.4237 
     55 C          33.5767  -50.1499  -53.8983 C.2       3 UNK         0.4908 
     56 O          33.0024  -49.2006  -53.3503 O.2       3 UNK        -0.5102 
     57 CA         35.1076  -50.1586  -54.0292 C.3       3 UNK         0.0241 
     58 CB         35.5664  -50.1541  -55.5005 C.3       3 UNK        -0.1971 
     59 N          35.6272  -48.9795  -53.3538 N.am      3 UNK        -0.4139 
     60 C          36.8090  -48.8543  -52.7408 C.2       2 UNK         0.5016 
     61 O          37.6837  -49.7214  -52.7463 O.2       2 UNK        -0.5319 
     62 CA         37.0496  -47.5343  -51.9798 C.3       2 UNK         0.0286 
     63 CB         37.9569  -46.5997  -52.7965 C.3       2 UNK        -0.1963 
     64 N          35.7994  -46.8319  -51.6621 N.am      2 UNK        -0.4790 
     65 C          34.9132  -47.2434  -50.7424 C.2       1 UNK         0.5024 
     66 O          35.1434  -48.1678  -49.9598 O.2       1 UNK        -0.4888 
     67 H67        29.8291  -49.1042  -50.1687 H         1 UNK         0.0892 
     68 H68        31.1658  -50.1808  -49.7564 H         1 UNK         0.0892 
     69 H69        30.9964  -49.5790  -51.4056 H         1 UNK         0.0892 
     70 H70        32.6024  -48.1002  -51.8104 H         1 UNK         0.3107 
     71 H71        33.4328  -46.1165  -49.7203 H         1 UNK         0.0773 
     72 H72        33.3449  -45.8407  -52.7691 H         1 UNK         0.0680 
     73 H73        34.2174  -44.7294  -51.7208 H         1 UNK         0.0680 
     74 H74        31.5299  -42.2204  -52.3875 H         1 UNK         0.0650 
     75 H75        33.1539  -42.7597  -52.7070 H         1 UNK         0.0650 
     76 H76        33.5426  -44.4959  -54.5673 H         1 UNK         0.1397 
     77 H77        30.6909  -44.3870  -57.7646 H         1 UNK         0.1363 
     78 H78        29.7866  -42.5008  -54.0215 H         1 UNK         0.1355 
     79 H79        28.8938  -42.7154  -57.6123 H         1 UNK         0.0707 
     80 H80        28.6224  -41.8486  -56.1221 H         1 UNK         0.0707 
     81 H81        26.3436  -41.7595  -56.6169 H         1 UNK         0.1034 
     82 H82        25.2755  -42.8372  -55.7867 H         1 UNK         0.1034 
     83 H83        24.4827  -42.3828  -58.0294 H         1 UNK         0.0482 
     84 H84        26.0067  -44.8021  -59.9106 H         1 UNK         0.3460 
     85 H85        26.9773  -43.6979  -60.8559 H         1 UNK         0.3460 
     86 H86        25.0706  -45.1484  -57.3310 H         1 UNK         0.2989 
     87 H87        22.4136  -46.2773  -57.6287 H         1 UNK         0.0559 
     88 H88        21.8118  -47.6581  -59.6300 H         1 UNK         0.0848 
     89 H89        22.7381  -46.5691  -60.6619 H         1 UNK         0.0848 
     90 H90        21.3051  -45.9905  -59.8234 H         1 UNK         0.0848 
     91 H91        23.9515  -47.8992  -57.5659 H         1 UNK         0.3144 
     92 H92        25.5127  -49.5166  -58.9202 H         1 UNK         0.0727 
     93 H93        28.0079  -49.5452  -59.1740 H         1 UNK         0.0790 
     94 H94        27.9980  -47.7878  -59.3431 H         1 UNK         0.0790 
     95 H95        27.1938  -48.7926  -60.5348 H         1 UNK         0.0790 
     96 H96        27.2953  -48.3035  -56.9492 H         1 UNK         0.3215 
     97 H97        25.3235  -48.8193  -54.1852 H         1 UNK         0.0863 
     98 H98        26.5541  -50.8613  -53.4155 H         1 UNK         0.0808 
     99 H99        26.9095  -51.2809  -55.0911 H         1 UNK         0.0808 
    100 H100       25.2487  -51.2640  -54.5186 H         1 UNK         0.0808 
    101 H101       28.1911  -49.1619  -54.8282 H         1 UNK         0.3118 
    102 H102       28.9314  -45.7259  -54.4572 H         1 UNK         0.0546 
    103 H103       28.8319  -46.2059  -52.0606 H         1 UNK         0.0828 
    104 H104       30.4585  -46.5743  -52.6143 H         1 UNK         0.0828 
    105 H105       29.3151  -47.8783  -52.3145 H         1 UNK         0.0828 
    106 H106       30.6905  -47.9110  -54.5400 H         1 UNK         0.3005 
    107 H107       30.2654  -49.1083  -57.7580 H         1 UNK         0.1257 
    108 H108       31.5094  -47.0062  -58.3953 H         1 UNK         0.0775 
    109 H109       32.4425  -48.4652  -58.4692 H         1 UNK         0.0775 
    110 H110       34.1910  -44.8950  -56.9810 H         1 UNK         0.0840 
    111 H111       32.9645  -45.1838  -58.1792 H         1 UNK         0.0840 
    112 H112       32.4046  -49.5621  -56.0032 H         1 UNK         0.2987 
    113 H113       31.1142  -51.2239  -53.4345 H         1 UNK         0.0785 
    114 H114       31.5487  -53.1303  -55.7970 H         1 UNK         0.0798 
    115 H115       30.1292  -53.0893  -54.7612 H         1 UNK         0.0798 
    116 H116       31.6798  -53.5576  -54.0898 H         1 UNK         0.0798 
    117 H117       33.4936  -51.9260  -54.8653 H         1 UNK         0.3079 
    118 H118       35.4806  -51.0550  -53.5291 H         1 UNK         0.0794 
    119 H119       35.1961  -49.2797  -56.0360 H         1 UNK         0.0786 
    120 H120       35.2193  -51.0389  -56.0347 H         1 UNK         0.0786 
    121 H121       36.6543  -50.1473  -55.5725 H         1 UNK         0.0786 
    122 H122       34.9468  -48.2388  -53.2497 H         1 UNK         0.3032 
    123 H123       37.5589  -47.7832  -51.0457 H         1 UNK         0.1094 
    124 H124       37.4991  -46.3177  -53.7455 H         1 UNK         0.0794 
    125 H125       38.1841  -45.6861  -52.2466 H         1 UNK         0.0794 
    126 H126       38.9082  -47.0826  -53.0250 H         1 UNK         0.0794 
    127 H127       35.5601  -46.0483  -52.2526 H         1 UNK         0.3016 
@<TRIPOS>BOND
     1    1    2 1    
     2    1   67 1    
     3    1   68 1    
     4    1   69 1    
     5    2    3 2    
     6    2    4 am   BACKBONE|DICT|INTERRES
     7    4    5 1    
     8    4   70 1    
     9    5    6 1    
    10    5   65 1    
    11    5   71 1    
    12    6    7 1    
    13    6   72 1    
    14    6   73 1    
    15    7    8 1    
    16    8    9 1    
    17    8   74 1    
    18    8   75 1    
    19    9   10 ar   
    20    9   14 ar   
    21   10   11 ar   
    22   10   76 1    
    23   11   12 ar   
    24   11   48 1    
    25   12   13 ar   
    26   12   77 1    
    27   13   14 ar   
    28   13   15 1    
    29   14   78 1    
    30   15   16 1    
    31   15   79 1    
    32   15   80 1    
    33   16   17 1    
    34   17   18 1    
    35   17   81 1    
    36   17   82 1    
    37   18   19 1    
    38   18   22 1    
    39   18   83 1    
    40   19   20 am   BACKBONE|DICT|INTERRES
    41   19   21 2    
    42   20   84 1    
    43   20   85 1    
    44   22   23 am   BACKBONE|DICT|INTERRES
    45   22   86 1    
    46   23   24 2    
    47   23   25 1    
    48   25   26 1    
    49   25   27 1    
    50   25   87 1    
    51   26   88 1    
    52   26   89 1    
    53   26   90 1    
    54   27   28 am   BACKBONE|DICT|INTERRES
    55   27   91 1    
    56   28   29 2    
    57   28   30 1    
    58   30   31 1    
    59   30   32 1    
    60   30   92 1    
    61   31   93 1    
    62   31   94 1    
    63   31   95 1    
    64   32   33 am   BACKBONE|DICT|INTERRES
    65   32   96 1    
    66   33   34 2    
    67   33   35 1    
    68   35   36 1    
    69   35   37 1    
    70   35   97 1    
    71   36   98 1    
    72   36   99 1    
    73   36  100 1    
    74   37   38 am   BACKBONE|DICT|INTERRES
    75   37  101 1    
    76   38   39 2    
    77   38   40 1    
    78   40   41 1    
    79   40   42 1    
    80   40  102 1    
    81   41  103 1    
    82   41  104 1    
    83   41  105 1    
    84   42   43 am   BACKBONE|DICT|INTERRES
    85   42  106 1    
    86   43   44 2    
    87   43   45 1    
    88   45   46 1    
    89   45   49 1    
    90   45  107 1    
    91   46   47 1    
    92   46  108 1    
    93   46  109 1    
    94   47   48 1    
    95   48  110 1    
    96   48  111 1    
    97   49   50 am   BACKBONE|DICT|INTERRES
    98   49  112 1    
    99   50   51 2    
   100   50   52 1    
   101   52   53 1    
   102   52   54 1    
   103   52  113 1    
   104   53  114 1    
   105   53  115 1    
   106   53  116 1    
   107   54   55 am   BACKBONE|DICT|INTERRES
   108   54  117 1    
   109   55   56 2    
   110   55   57 1    
   111   57   58 1    
   112   57   59 1    
   113   57  118 1    
   114   58  119 1    
   115   58  120 1    
   116   58  121 1    
   117   59   60 am   BACKBONE|DICT|INTERRES
   118   59  122 1    
   119   60   61 2    
   120   60   62 1    
   121   62   63 1    
   122   62   64 1    
   123   62  123 1    
   124   63  124 1    
   125   63  125 1    
   126   63  126 1    
   127   64   65 am   BACKBONE|DICT|INTERRES
   128   64  127 1    
   129   65   66 2    
@<TRIPOS>SUBSTRUCTURE
     1 UNK         1 GROUP             0       ****    0 ROOT    
