@<TRIPOS>MOLECULE
3R134
127   129    1
SMALL
USER_CHARGES


@<TRIPOS>ATOM
      1 CA         36.9566  -45.4144  -55.3413 C.3       0 UNK        -0.1968 
      2 C          36.1639  -45.2036  -54.0598 C.2       0 UNK         0.4852 
      3 O          36.7519  -45.1672  -52.9784 O.2       0 UNK        -0.5359 
      4 N          34.8344  -45.0791  -54.1815 N.am      1 UNK        -0.4300 
      5 CA         33.8660  -44.8382  -53.0968 C.3       1 UNK         0.0863 
      6 C6         34.0611  -43.4835  -52.3535 C.3       11 UNK        -0.0953 
      7 S7         34.2784  -42.0575  -53.4784 S.3       11 UNK        -0.2369 
      8 C8         32.5825  -41.4037  -53.6324 C.3       11 UNK         0.0226 
      9 C9         31.6077  -42.4113  -54.2304 C.ar      11 UNK        -0.0699 
     10 C10        31.8937  -43.0504  -55.4430 C.ar      11 UNK        -0.0804 
     11 C11        31.0259  -44.0179  -55.9574 C.ar      11 UNK        -0.0871 
     12 C12        29.8396  -44.3047  -55.2781 C.ar      11 UNK        -0.1008 
     13 C13        29.5146  -43.6351  -54.0956 C.ar      11 UNK        -0.0735 
     14 C14        30.4122  -42.7038  -53.5663 C.ar      11 UNK        -0.0945 
     15 C15        28.1955  -43.9192  -53.3894 C.3       11 UNK         0.0169 
     16 S16        27.0100  -42.5417  -53.5470 S.3       11 UNK        -0.2669 
     17 C17        26.6272  -42.5597  -55.3341 C.3       11 UNK        -0.0850 
     18 CA         25.3468  -43.3797  -55.6768 C.3       10 UNK         0.0855 
     19 C          24.0426  -42.5411  -55.6003 C.2       10 UNK         0.5543 
     20 N          23.7425  -41.9648  -54.4457 N.am      10 UNK        -0.7343 
     21 O          23.3026  -42.4037  -56.5741 O.2       10 UNK        -0.5027 
     22 N          25.4624  -44.0597  -56.9732 N.am      10 UNK        -0.4495 
     23 C          26.1976  -45.1512  -57.1990 C.2       10 UNK         0.4903 
     24 O          26.8575  -45.7149  -56.3299 O.2       10 UNK        -0.4860 
     25 CA         26.2287  -45.6777  -58.6380 C.3       9 UNK         0.0227 
     26 CB         27.0225  -44.7229  -59.5521 C.3       9 UNK        -0.1964 
     27 N          26.8431  -47.0056  -58.6640 N.am      9 UNK        -0.4231 
     28 C          26.6686  -47.9168  -59.6291 C.2       9 UNK         0.5014 
     29 O          25.9285  -47.7492  -60.6000 O.2       9 UNK        -0.5270 
     30 CA         27.4529  -49.2326  -59.5135 C.3       8 UNK         0.0284 
     31 CB         28.8852  -49.0570  -60.0467 C.3       8 UNK        -0.1977 
     32 N          27.5011  -49.7350  -58.1399 N.am      8 UNK        -0.4342 
     33 C          26.6084  -50.5831  -57.6107 C.2       8 UNK         0.5039 
     34 O          25.6302  -51.0130  -58.2240 O.2       8 UNK        -0.5547 
     35 CA         26.8455  -51.0641  -56.1660 C.3       7 UNK         0.0281 
     36 CB         27.5514  -52.4299  -56.1699 C.3       7 UNK        -0.1963 
     37 N          27.6273  -50.1271  -55.3593 N.am      7 UNK        -0.4444 
     38 C          27.1810  -48.9441  -54.9193 C.2       7 UNK         0.5104 
     39 O          26.0184  -48.5622  -55.0532 O.2       7 UNK        -0.5100 
     40 CA         28.2113  -48.0269  -54.2342 C.3       6 UNK         0.0396 
     41 CB         28.2196  -48.2561  -52.7161 C.3       6 UNK        -0.1801 
     42 N          29.5754  -48.1616  -54.7578 N.am      6 UNK        -0.4747 
     43 C          29.9498  -47.9516  -56.0304 C.2       6 UNK         0.5012 
     44 O          29.1759  -47.6473  -56.9367 O.2       6 UNK        -0.5003 
     45 CA         31.4365  -48.1843  -56.3485 C.3       5 UNK         0.0782 
     46 C46        32.3215  -47.0233  -55.8172 C.3       11 UNK        -0.0868 
     47 S47        32.8153  -45.8316  -57.1053 S.3       11 UNK        -0.2515 
     48 C48        31.3570  -44.7452  -57.2532 C.3       11 UNK         0.0199 
     49 N          31.8485  -49.4811  -55.8089 N.am      5 UNK        -0.4607 
     50 C          31.5262  -50.6676  -56.3421 C.2       4 UNK         0.5031 
     51 O          30.9296  -50.7960  -57.4105 O.2       4 UNK        -0.5119 
     52 CA         31.9140  -51.9242  -55.5400 C.3       4 UNK         0.0263 
     53 CB         33.2812  -52.4531  -56.0014 C.3       4 UNK        -0.1967 
     54 N          31.9442  -51.7005  -54.0909 N.am      4 UNK        -0.4237 
     55 C          30.8634  -51.4397  -53.3406 C.2       3 UNK         0.4908 
     56 O          29.7157  -51.4231  -53.7827 O.2       3 UNK        -0.5102 
     57 CA         31.1077  -51.0804  -51.8621 C.3       3 UNK         0.0241 
     58 CB         31.1360  -52.3513  -50.9984 C.3       3 UNK        -0.1971 
     59 N          32.3288  -50.2971  -51.6274 N.am      3 UNK        -0.4139 
     60 C          32.6138  -49.1230  -52.2093 C.2       2 UNK         0.5016 
     61 O          31.8650  -48.5701  -53.0196 O.2       2 UNK        -0.5319 
     62 CA         33.9855  -48.5065  -51.8807 C.3       2 UNK         0.0286 
     63 CB         35.1278  -49.4391  -52.3245 C.3       2 UNK        -0.1963 
     64 N          34.1618  -47.2230  -52.5605 N.am      2 UNK        -0.4790 
     65 C          33.7087  -46.0376  -52.1304 C.2       1 UNK         0.5024 
     66 O          33.1649  -45.8794  -51.0358 O.2       1 UNK        -0.4888 
     67 H67        37.5050  -46.3548  -55.2934 H         1 UNK         0.0892 
     68 H68        36.3127  -45.4418  -56.2205 H         1 UNK         0.0892 
     69 H69        37.6755  -44.6064  -55.4735 H         1 UNK         0.0892 
     70 H70        34.4272  -45.1134  -55.1066 H         1 UNK         0.3107 
     71 H71        32.8983  -44.7875  -53.5926 H         1 UNK         0.0773 
     72 H72        34.9391  -43.5316  -51.7074 H         1 UNK         0.0680 
     73 H73        33.2139  -43.2817  -51.6957 H         1 UNK         0.0680 
     74 H74        32.6048  -40.5177  -54.2680 H         1 UNK         0.0650 
     75 H75        32.2465  -41.0707  -52.6492 H         1 UNK         0.0650 
     76 H76        32.8112  -42.8210  -55.9677 H         1 UNK         0.1397 
     77 H77        29.1605  -45.0430  -55.6785 H         1 UNK         0.1363 
     78 H78        30.1695  -42.1995  -52.6408 H         1 UNK         0.1355 
     79 H79        27.7311  -44.8247  -53.7790 H         1 UNK         0.0707 
     80 H80        28.3869  -44.1039  -52.3315 H         1 UNK         0.0707 
     81 H81        26.5383  -41.5299  -55.6849 H         1 UNK         0.1034 
     82 H82        27.4930  -42.9551  -55.8641 H         1 UNK         0.1034 
     83 H83        25.2231  -44.1714  -54.9346 H         1 UNK         0.0482 
     84 H84        22.9017  -41.4140  -54.3700 H         1 UNK         0.3460 
     85 H85        24.3609  -42.0571  -53.6535 H         1 UNK         0.3460 
     86 H86        24.8977  -43.6589  -57.7110 H         1 UNK         0.2989 
     87 H87        25.1975  -45.7518  -58.9893 H         1 UNK         0.0559 
     88 H88        28.0587  -44.6269  -59.2248 H         1 UNK         0.0848 
     89 H89        27.0299  -45.0722  -60.5846 H         1 UNK         0.0848 
     90 H90        26.5876  -43.7229  -59.5571 H         1 UNK         0.0848 
     91 H91        27.4608  -47.2053  -57.8788 H         1 UNK         0.3144 
     92 H92        26.9571  -49.9708  -60.1478 H         1 UNK         0.0727 
     93 H93        29.4453  -49.9909  -59.9923 H         1 UNK         0.0790 
     94 H94        29.4410  -48.3030  -59.4890 H         1 UNK         0.0790 
     95 H95        28.8746  -48.7446  -61.0918 H         1 UNK         0.0790 
     96 H96        28.2446  -49.3729  -57.5534 H         1 UNK         0.3215 
     97 H97        25.8676  -51.1851  -55.6950 H         1 UNK         0.0863 
     98 H98        27.6575  -52.8246  -55.1592 H         1 UNK         0.0808 
     99 H99        28.5472  -52.3667  -56.6109 H         1 UNK         0.0808 
    100 H100       26.9841  -53.1624  -56.7458 H         1 UNK         0.0808 
    101 H101       28.5635  -50.4157  -55.0921 H         1 UNK         0.3118 
    102 H102       27.9040  -46.9986  -54.4120 H         1 UNK         0.0546 
    103 H103       28.4691  -49.2872  -52.4683 H         1 UNK         0.0828 
    104 H104       27.2382  -48.0484  -52.2880 H         1 UNK         0.0828 
    105 H105       28.9372  -47.6043  -52.2171 H         1 UNK         0.0828 
    106 H106       30.3013  -48.3967  -54.0839 H         1 UNK         0.3005 
    107 H107       31.5330  -48.2381  -57.4358 H         1 UNK         0.1257 
    108 H108       33.2552  -47.4255  -55.4224 H         1 UNK         0.0775 
    109 H109       31.8671  -46.4992  -54.9744 H         1 UNK         0.0775 
    110 H110       31.5495  -44.0069  -58.0328 H         1 UNK         0.0840 
    111 H111       30.5054  -45.3320  -57.6008 H         1 UNK         0.0840 
    112 H112       32.2561  -49.4590  -54.8833 H         1 UNK         0.2987 
    113 H113       31.1623  -52.6892  -55.7471 H         1 UNK         0.0785 
    114 H114       33.2797  -52.6523  -57.0742 H         1 UNK         0.0798 
    115 H115       33.5350  -53.3878  -55.5012 H         1 UNK         0.0798 
    116 H116       34.0803  -51.7371  -55.8044 H         1 UNK         0.0798 
    117 H117       32.8494  -51.7065  -53.6444 H         1 UNK         0.3079 
    118 H118       30.2666  -50.4684  -51.5330 H         1 UNK         0.0794 
    119 H119       31.1985  -52.1093  -49.9372 H         1 UNK         0.0786 
    120 H120       31.9821  -52.9928  -51.2480 H         1 UNK         0.0786 
    121 H121       30.2280  -52.9394  -51.1405 H         1 UNK         0.0786 
    122 H122       32.9937  -50.6883  -50.9753 H         1 UNK         0.3032 
    123 H123       34.0428  -48.3547  -50.8003 H         1 UNK         0.1094 
    124 H124       35.0736  -49.6695  -53.3894 H         1 UNK         0.0794 
    125 H125       36.1015  -48.9873  -52.1320 H         1 UNK         0.0794 
    126 H126       35.1079  -50.3855  -51.7831 H         1 UNK         0.0794 
    127 H127       34.5849  -47.2545  -53.4752 H         1 UNK         0.3016 
@<TRIPOS>BOND
     1    1    2 1    
     2    1   67 1    
     3    1   68 1    
     4    1   69 1    
     5    2    3 2    
     6    2    4 am   BACKBONE|DICT|INTERRES
     7    4    5 1    
     8    4   70 1    
     9    5    6 1    
    10    5   65 1    
    11    5   71 1    
    12    6    7 1    
    13    6   72 1    
    14    6   73 1    
    15    7    8 1    
    16    8    9 1    
    17    8   74 1    
    18    8   75 1    
    19    9   10 ar   
    20    9   14 ar   
    21   10   11 ar   
    22   10   76 1    
    23   11   12 ar   
    24   11   48 1    
    25   12   13 ar   
    26   12   77 1    
    27   13   14 ar   
    28   13   15 1    
    29   14   78 1    
    30   15   16 1    
    31   15   79 1    
    32   15   80 1    
    33   16   17 1    
    34   17   18 1    
    35   17   81 1    
    36   17   82 1    
    37   18   19 1    
    38   18   22 1    
    39   18   83 1    
    40   19   20 am   BACKBONE|DICT|INTERRES
    41   19   21 2    
    42   20   84 1    
    43   20   85 1    
    44   22   23 am   BACKBONE|DICT|INTERRES
    45   22   86 1    
    46   23   24 2    
    47   23   25 1    
    48   25   26 1    
    49   25   27 1    
    50   25   87 1    
    51   26   88 1    
    52   26   89 1    
    53   26   90 1    
    54   27   28 am   BACKBONE|DICT|INTERRES
    55   27   91 1    
    56   28   29 2    
    57   28   30 1    
    58   30   31 1    
    59   30   32 1    
    60   30   92 1    
    61   31   93 1    
    62   31   94 1    
    63   31   95 1    
    64   32   33 am   BACKBONE|DICT|INTERRES
    65   32   96 1    
    66   33   34 2    
    67   33   35 1    
    68   35   36 1    
    69   35   37 1    
    70   35   97 1    
    71   36   98 1    
    72   36   99 1    
    73   36  100 1    
    74   37   38 am   BACKBONE|DICT|INTERRES
    75   37  101 1    
    76   38   39 2    
    77   38   40 1    
    78   40   41 1    
    79   40   42 1    
    80   40  102 1    
    81   41  103 1    
    82   41  104 1    
    83   41  105 1    
    84   42   43 am   BACKBONE|DICT|INTERRES
    85   42  106 1    
    86   43   44 2    
    87   43   45 1    
    88   45   46 1    
    89   45   49 1    
    90   45  107 1    
    91   46   47 1    
    92   46  108 1    
    93   46  109 1    
    94   47   48 1    
    95   48  110 1    
    96   48  111 1    
    97   49   50 am   BACKBONE|DICT|INTERRES
    98   49  112 1    
    99   50   51 2    
   100   50   52 1    
   101   52   53 1    
   102   52   54 1    
   103   52  113 1    
   104   53  114 1    
   105   53  115 1    
   106   53  116 1    
   107   54   55 am   BACKBONE|DICT|INTERRES
   108   54  117 1    
   109   55   56 2    
   110   55   57 1    
   111   57   58 1    
   112   57   59 1    
   113   57  118 1    
   114   58  119 1    
   115   58  120 1    
   116   58  121 1    
   117   59   60 am   BACKBONE|DICT|INTERRES
   118   59  122 1    
   119   60   61 2    
   120   60   62 1    
   121   62   63 1    
   122   62   64 1    
   123   62  123 1    
   124   63  124 1    
   125   63  125 1    
   126   63  126 1    
   127   64   65 am   BACKBONE|DICT|INTERRES
   128   64  127 1    
   129   65   66 2    
@<TRIPOS>SUBSTRUCTURE
     1 UNK         1 GROUP             0       ****    0 ROOT    
