@<TRIPOS>MOLECULE
3R134
127   129    1
SMALL
USER_CHARGES


@<TRIPOS>ATOM
      1 CA         34.2370  -42.1567  -56.8090 C.3       0 UNK        -0.1968 
      2 C          33.9388  -43.2225  -55.7659 C.2       0 UNK         0.4852 
      3 O          33.3989  -44.2765  -56.1023 O.2       0 UNK        -0.5359 
      4 N          34.3085  -42.9727  -54.5022 N.am      1 UNK        -0.4300 
      5 CA         34.0096  -43.8356  -53.3487 C.3       1 UNK         0.0863 
      6 C6         34.2187  -43.1069  -51.9960 C.3       11 UNK        -0.0953 
      7 S7         33.2619  -41.5571  -51.8637 S.3       11 UNK        -0.2369 
      8 C8         31.7362  -42.1219  -51.0414 C.3       11 UNK         0.0226 
      9 C9         30.9101  -43.0230  -51.9477 C.ar      11 UNK        -0.0699 
     10 C10        30.8966  -44.4069  -51.7484 C.ar      11 UNK        -0.0804 
     11 C11        30.1805  -45.2397  -52.6131 C.ar      11 UNK        -0.0871 
     12 C12        29.4575  -44.6793  -53.6711 C.ar      11 UNK        -0.1008 
     13 C13        29.4447  -43.2943  -53.8656 C.ar      11 UNK        -0.0735 
     14 C14        30.1732  -42.4724  -53.0004 C.ar      11 UNK        -0.0945 
     15 C15        28.6167  -42.6769  -54.9839 C.3       11 UNK         0.0169 
     16 S16        29.6416  -41.9621  -56.3112 S.3       11 UNK        -0.2669 
     17 C17        30.2932  -43.4383  -57.1654 C.3       11 UNK        -0.0850 
     18 CA         29.4727  -43.8125  -58.4278 C.3       10 UNK         0.0855 
     19 C          30.2389  -44.8471  -59.3058 C.2       10 UNK         0.5543 
     20 N          29.7669  -46.0788  -59.4651 N.am      10 UNK        -0.7343 
     21 O          31.2812  -44.5163  -59.8648 O.2       10 UNK        -0.5027 
     22 N          28.1050  -44.2146  -58.0725 N.am      10 UNK        -0.4495 
     23 C          27.0725  -44.2970  -58.9197 C.2       10 UNK         0.4903 
     24 O          27.1150  -43.9099  -60.0885 O.2       10 UNK        -0.4860 
     25 CA         25.7765  -44.9261  -58.3614 C.3       9 UNK         0.0227 
     26 CB         24.9473  -45.6245  -59.4601 C.3       9 UNK        -0.1964 
     27 N          25.9899  -45.8382  -57.2239 N.am      9 UNK        -0.4231 
     28 C          26.7479  -46.9469  -57.2016 C.2       9 UNK         0.5014 
     29 O          27.4222  -47.3347  -58.1582 O.2       9 UNK        -0.5270 
     30 CA         26.8276  -47.7267  -55.8748 C.3       8 UNK         0.0284 
     31 CB         25.8789  -47.2187  -54.7647 C.3       8 UNK        -0.1977 
     32 N          26.6693  -49.1681  -56.0854 N.am      8 UNK        -0.4342 
     33 C          25.6104  -49.8112  -56.6023 C.2       8 UNK         0.5039 
     34 O          24.5606  -49.2637  -56.9419 O.2       8 UNK        -0.5547 
     35 CA         25.7410  -51.3359  -56.7435 C.3       7 UNK         0.0281 
     36 CB         26.6078  -51.6963  -57.9621 C.3       7 UNK        -0.1963 
     37 N          26.3311  -51.9143  -55.5356 N.am      7 UNK        -0.4444 
     38 C          25.6372  -52.4806  -54.5376 C.2       7 UNK         0.5104 
     39 O          24.4254  -52.6957  -54.5761 O.2       7 UNK        -0.5100 
     40 CA         26.4267  -52.8550  -53.2661 C.3       6 UNK         0.0396 
     41 CB         26.9624  -54.2918  -53.3678 C.3       6 UNK        -0.1801 
     42 N          27.5399  -51.9378  -53.0060 N.am      6 UNK        -0.4747 
     43 C          27.3981  -50.6409  -52.6917 C.2       6 UNK         0.5012 
     44 O          26.3168  -50.1337  -52.3942 O.2       6 UNK        -0.5003 
     45 CA         28.6530  -49.7430  -52.7769 C.3       5 UNK         0.0782 
     46 C46        29.0254  -49.0850  -51.4188 C.3       11 UNK        -0.0868 
     47 S47        28.7465  -47.2850  -51.4463 S.3       11 UNK        -0.2515 
     48 C48        30.1943  -46.7452  -52.4081 C.3       11 UNK         0.0199 
     49 N          29.8187  -50.3808  -53.4047 N.am      5 UNK        -0.4607 
     50 C          29.9113  -50.7080  -54.6982 C.2       4 UNK         0.5031 
     51 O          28.9761  -50.6077  -55.4943 O.2       4 UNK        -0.5119 
     52 CA         31.2731  -51.2214  -55.1863 C.3       4 UNK         0.0263 
     53 CB         31.1103  -52.4658  -56.0764 C.3       4 UNK        -0.1967 
     54 N          31.9726  -50.1766  -55.9343 N.am      4 UNK        -0.4237 
     55 C          32.4699  -49.0537  -55.3982 C.2       3 UNK         0.4908 
     56 O          32.4286  -48.7892  -54.1942 O.2       3 UNK        -0.5102 
     57 CA         33.0732  -48.0426  -56.3896 C.3       3 UNK         0.0241 
     58 CB         31.9698  -47.1084  -56.9115 C.3       3 UNK        -0.1971 
     59 N          34.1405  -47.2306  -55.7981 N.am      3 UNK        -0.4139 
     60 C          35.2984  -47.7062  -55.3104 C.2       2 UNK         0.5016 
     61 O          35.6377  -48.8880  -55.3948 O.2       2 UNK        -0.5319 
     62 CA         36.2595  -46.7092  -54.6277 C.3       2 UNK         0.0286 
     63 CB         37.5009  -46.4685  -55.5031 C.3       2 UNK        -0.1963 
     64 N          35.6418  -45.4169  -54.3219 N.am      2 UNK        -0.4790 
     65 C          34.7295  -45.2042  -53.3627 C.2       1 UNK         0.5024 
     66 O          34.4273  -46.0516  -52.5221 O.2       1 UNK        -0.4888 
     67 H67        34.7438  -42.6005  -57.6655 H         1 UNK         0.0892 
     68 H68        33.3087  -41.7052  -57.1578 H         1 UNK         0.0892 
     69 H69        34.8721  -41.3651  -56.4119 H         1 UNK         0.0892 
     70 H70        34.7518  -42.0930  -54.2783 H         1 UNK         0.3107 
     71 H71        32.9522  -44.0831  -53.4361 H         1 UNK         0.0773 
     72 H72        35.2738  -42.8633  -51.8588 H         1 UNK         0.0680 
     73 H73        33.9479  -43.7531  -51.1589 H         1 UNK         0.0680 
     74 H74        31.1433  -41.2497  -50.7625 H         1 UNK         0.0650 
     75 H75        31.9895  -42.6299  -50.1095 H         1 UNK         0.0650 
     76 H76        31.4628  -44.8390  -50.9343 H         1 UNK         0.1397 
     77 H77        28.8950  -45.3233  -54.3325 H         1 UNK         0.1363 
     78 H78        30.1763  -41.4019  -53.1548 H         1 UNK         0.1355 
     79 H79        27.9984  -41.8829  -54.5626 H         1 UNK         0.0707 
     80 H80        27.9212  -43.4043  -55.4025 H         1 UNK         0.0707 
     81 H81        31.3215  -43.2067  -57.4463 H         1 UNK         0.1034 
     82 H82        30.3612  -44.2786  -56.4731 H         1 UNK         0.1034 
     83 H83        29.3911  -42.9140  -59.0428 H         1 UNK         0.0482 
     84 H84        28.9072  -46.3794  -59.0164 H         1 UNK         0.3460 
     85 H85        30.2746  -46.7238  -60.0479 H         1 UNK         0.3460 
     86 H86        27.9756  -44.5633  -57.1371 H         1 UNK         0.2989 
     87 H87        25.1822  -44.0959  -57.9773 H         1 UNK         0.0559 
     88 H88        25.5070  -46.4302  -59.9365 H         1 UNK         0.0848 
     89 H89        24.6584  -44.9221  -60.2430 H         1 UNK         0.0848 
     90 H90        24.0292  -46.0499  -59.0549 H         1 UNK         0.0848 
     91 H91        25.4818  -45.6070  -56.3811 H         1 UNK         0.3144 
     92 H92        27.8492  -47.5904  -55.5172 H         1 UNK         0.0727 
     93 H93        24.8307  -47.2797  -55.0599 H         1 UNK         0.0790 
     94 H94        26.0948  -46.1841  -54.4952 H         1 UNK         0.0790 
     95 H95        25.9939  -47.8067  -53.8543 H         1 UNK         0.0790 
     96 H96        27.5119  -49.7172  -55.9183 H         1 UNK         0.3215 
     97 H97        24.7419  -51.7457  -56.9075 H         1 UNK         0.0863 
     98 H98        26.6626  -52.7759  -58.1018 H         1 UNK         0.0808 
     99 H99        27.6270  -51.3198  -57.8650 H         1 UNK         0.0808 
    100 H100       26.1895  -51.2715  -58.8757 H         1 UNK         0.0808 
    101 H101       27.3217  -51.7462  -55.3993 H         1 UNK         0.3118 
    102 H102       25.7394  -52.8050  -52.4188 H         1 UNK         0.0546 
    103 H103       27.6686  -54.4047  -54.1914 H         1 UNK         0.0828 
    104 H104       26.1490  -54.9987  -53.5378 H         1 UNK         0.0828 
    105 H105       27.4649  -54.5947  -52.4491 H         1 UNK         0.0828 
    106 H106       28.4694  -52.2769  -53.2069 H         1 UNK         0.3005 
    107 H107       28.3497  -48.9558  -53.4700 H         1 UNK         0.1257 
    108 H108       30.0689  -49.2647  -51.1540 H         1 UNK         0.0775 
    109 H109       28.4491  -49.4991  -50.5887 H         1 UNK         0.0775 
    110 H110       31.1101  -47.0515  -51.8992 H         1 UNK         0.0840 
    111 H111       30.2038  -47.2473  -53.3768 H         1 UNK         0.0840 
    112 H112       30.6420  -50.4728  -52.8264 H         1 UNK         0.2987 
    113 H113       31.8824  -51.4981  -54.3230 H         1 UNK         0.0785 
    114 H114       30.5872  -53.2611  -55.5435 H         1 UNK         0.0798 
    115 H115       32.0781  -52.8645  -56.3811 H         1 UNK         0.0798 
    116 H116       30.5381  -52.2494  -56.9798 H         1 UNK         0.0798 
    117 H117       32.0118  -50.2950  -56.9364 H         1 UNK         0.3079 
    118 H118       33.5021  -48.5901  -57.2312 H         1 UNK         0.0794 
    119 H119       31.1611  -47.6709  -57.3802 H         1 UNK         0.0786 
    120 H120       32.3587  -46.4164  -57.6588 H         1 UNK         0.0786 
    121 H121       31.5321  -46.5170  -56.1058 H         1 UNK         0.0786 
    122 H122       33.9485  -46.2379  -55.7104 H         1 UNK         0.3032 
    123 H123       36.5819  -47.1670  -53.6896 H         1 UNK         0.1094 
    124 H124       38.2203  -45.8196  -55.0031 H         1 UNK         0.0794 
    125 H125       38.0126  -47.4068  -55.7221 H         1 UNK         0.0794 
    126 H126       37.2392  -46.0100  -56.4576 H         1 UNK         0.0794 
    127 H127       35.8211  -44.6637  -54.9703 H         1 UNK         0.3016 
@<TRIPOS>BOND
     1    1    2 1    
     2    1   67 1    
     3    1   68 1    
     4    1   69 1    
     5    2    3 2    
     6    2    4 am   BACKBONE|DICT|INTERRES
     7    4    5 1    
     8    4   70 1    
     9    5    6 1    
    10    5   65 1    
    11    5   71 1    
    12    6    7 1    
    13    6   72 1    
    14    6   73 1    
    15    7    8 1    
    16    8    9 1    
    17    8   74 1    
    18    8   75 1    
    19    9   10 ar   
    20    9   14 ar   
    21   10   11 ar   
    22   10   76 1    
    23   11   12 ar   
    24   11   48 1    
    25   12   13 ar   
    26   12   77 1    
    27   13   14 ar   
    28   13   15 1    
    29   14   78 1    
    30   15   16 1    
    31   15   79 1    
    32   15   80 1    
    33   16   17 1    
    34   17   18 1    
    35   17   81 1    
    36   17   82 1    
    37   18   19 1    
    38   18   22 1    
    39   18   83 1    
    40   19   20 am   BACKBONE|DICT|INTERRES
    41   19   21 2    
    42   20   84 1    
    43   20   85 1    
    44   22   23 am   BACKBONE|DICT|INTERRES
    45   22   86 1    
    46   23   24 2    
    47   23   25 1    
    48   25   26 1    
    49   25   27 1    
    50   25   87 1    
    51   26   88 1    
    52   26   89 1    
    53   26   90 1    
    54   27   28 am   BACKBONE|DICT|INTERRES
    55   27   91 1    
    56   28   29 2    
    57   28   30 1    
    58   30   31 1    
    59   30   32 1    
    60   30   92 1    
    61   31   93 1    
    62   31   94 1    
    63   31   95 1    
    64   32   33 am   BACKBONE|DICT|INTERRES
    65   32   96 1    
    66   33   34 2    
    67   33   35 1    
    68   35   36 1    
    69   35   37 1    
    70   35   97 1    
    71   36   98 1    
    72   36   99 1    
    73   36  100 1    
    74   37   38 am   BACKBONE|DICT|INTERRES
    75   37  101 1    
    76   38   39 2    
    77   38   40 1    
    78   40   41 1    
    79   40   42 1    
    80   40  102 1    
    81   41  103 1    
    82   41  104 1    
    83   41  105 1    
    84   42   43 am   BACKBONE|DICT|INTERRES
    85   42  106 1    
    86   43   44 2    
    87   43   45 1    
    88   45   46 1    
    89   45   49 1    
    90   45  107 1    
    91   46   47 1    
    92   46  108 1    
    93   46  109 1    
    94   47   48 1    
    95   48  110 1    
    96   48  111 1    
    97   49   50 am   BACKBONE|DICT|INTERRES
    98   49  112 1    
    99   50   51 2    
   100   50   52 1    
   101   52   53 1    
   102   52   54 1    
   103   52  113 1    
   104   53  114 1    
   105   53  115 1    
   106   53  116 1    
   107   54   55 am   BACKBONE|DICT|INTERRES
   108   54  117 1    
   109   55   56 2    
   110   55   57 1    
   111   57   58 1    
   112   57   59 1    
   113   57  118 1    
   114   58  119 1    
   115   58  120 1    
   116   58  121 1    
   117   59   60 am   BACKBONE|DICT|INTERRES
   118   59  122 1    
   119   60   61 2    
   120   60   62 1    
   121   62   63 1    
   122   62   64 1    
   123   62  123 1    
   124   63  124 1    
   125   63  125 1    
   126   63  126 1    
   127   64   65 am   BACKBONE|DICT|INTERRES
   128   64  127 1    
   129   65   66 2    
@<TRIPOS>SUBSTRUCTURE
     1 UNK         1 GROUP             0       ****    0 ROOT    
