@<TRIPOS>MOLECULE
3R134
127   129    1
SMALL
USER_CHARGES


@<TRIPOS>ATOM
      1 CA         34.2427  -45.6915  -49.5175 C.3       0 UNK        -0.1968 
      2 C          34.1204  -46.1582  -50.9608 C.2       0 UNK         0.4852 
      3 O          33.4145  -47.1319  -51.2211 O.2       0 UNK        -0.5359 
      4 N          34.7930  -45.4579  -51.8864 N.am      1 UNK        -0.4300 
      5 CA         34.8563  -45.7178  -53.3314 C.3       1 UNK         0.0863 
      6 C6         33.4538  -45.8553  -53.9944 C.3       11 UNK        -0.0953 
      7 S7         33.3841  -45.1279  -55.6659 S.3       11 UNK        -0.2369 
      8 C8         33.0861  -43.3665  -55.2998 C.3       11 UNK         0.0226 
      9 C9         31.7110  -43.1339  -54.6930 C.ar      11 UNK        -0.0699 
     10 C10        31.5616  -43.0232  -53.3083 C.ar      11 UNK        -0.0804 
     11 C11        30.2947  -42.8746  -52.7392 C.ar      11 UNK        -0.0871 
     12 C12        29.1730  -42.7836  -53.5695 C.ar      11 UNK        -0.1008 
     13 C13        29.3136  -42.8742  -54.9585 C.ar      11 UNK        -0.0735 
     14 C14        30.5848  -43.0485  -55.5143 C.ar      11 UNK        -0.0945 
     15 C15        28.0932  -42.7968  -55.8634 C.3       11 UNK         0.0169 
     16 S16        27.0933  -44.3186  -55.8191 S.3       11 UNK        -0.2669 
     17 C17        28.2669  -45.5881  -56.4114 C.3       11 UNK        -0.0850 
     18 CA         28.4134  -45.6173  -57.9545 C.3       10 UNK         0.0855 
     19 C          29.5269  -46.6120  -58.3972 C.2       10 UNK         0.5543 
     20 N          29.2435  -47.6338  -59.1982 N.am      10 UNK        -0.7343 
     21 O          30.6815  -46.4421  -58.0178 O.2       10 UNK        -0.5027 
     22 N          27.1207  -45.8285  -58.6231 N.am      10 UNK        -0.4495 
     23 C          26.8417  -45.4335  -59.8729 C.2       10 UNK         0.4903 
     24 O          27.6107  -44.7571  -60.5583 O.2       10 UNK        -0.4860 
     25 CA         25.4795  -45.8660  -60.4606 C.3       9 UNK         0.0227 
     26 CB         25.4928  -45.9233  -62.0034 C.3       9 UNK        -0.1964 
     27 N          24.9664  -47.1256  -59.9042 N.am      9 UNK        -0.4231 
     28 C          25.5779  -48.3187  -59.9132 C.2       9 UNK         0.5014 
     29 O          26.6737  -48.5391  -60.4349 O.2       9 UNK        -0.5270 
     30 CA         24.8666  -49.4482  -59.1512 C.3       8 UNK         0.0284 
     31 CB         24.5311  -50.6195  -60.0894 C.3       8 UNK        -0.1977 
     32 N          25.6827  -49.9328  -58.0352 N.am      8 UNK        -0.4342 
     33 C          26.1029  -49.1840  -57.0063 C.2       8 UNK         0.5039 
     34 O          25.8371  -47.9857  -56.8749 O.2       8 UNK        -0.5547 
     35 CA         26.9954  -49.8948  -55.9745 C.3       7 UNK         0.0281 
     36 CB         28.4614  -49.8944  -56.4374 C.3       7 UNK        -0.1963 
     37 N          26.8998  -49.2816  -54.6459 N.am      7 UNK        -0.4444 
     38 C          25.8217  -49.3825  -53.8517 C.2       7 UNK         0.5104 
     39 O          24.8176  -50.0278  -54.1591 O.2       7 UNK        -0.5100 
     40 CA         25.8575  -48.6967  -52.4706 C.3       6 UNK         0.0396 
     41 CB         25.6560  -49.7311  -51.3490 C.3       6 UNK        -0.1801 
     42 N          27.1085  -47.9815  -52.2168 N.am      6 UNK        -0.4747 
     43 C          27.3164  -46.6728  -52.4206 C.2       6 UNK         0.5012 
     44 O          26.4364  -45.8951  -52.7867 O.2       6 UNK        -0.5003 
     45 CA         28.7453  -46.1383  -52.1584 C.3       5 UNK         0.0782 
     46 C46        28.7584  -45.2842  -50.8651 C.3       11 UNK        -0.0868 
     47 S47        30.3712  -44.5082  -50.5118 S.3       11 UNK        -0.2515 
     48 C48        30.1526  -42.8444  -51.2256 C.3       11 UNK         0.0199 
     49 N          29.7601  -47.2059  -52.1428 N.am      5 UNK        -0.4607 
     50 C          30.0965  -47.9249  -53.2198 C.2       4 UNK         0.5031 
     51 O          29.6086  -47.7425  -54.3363 O.2       4 UNK        -0.5119 
     52 CA         31.0556  -49.0985  -53.0124 C.3       4 UNK         0.0263 
     53 CB         30.2880  -50.3462  -52.5336 C.3       4 UNK        -0.1967 
     54 N          31.7024  -49.3587  -54.2925 N.am      4 UNK        -0.4237 
     55 C          32.8375  -50.0374  -54.4829 C.2       3 UNK         0.4908 
     56 O          33.4450  -50.6214  -53.5848 O.2       3 UNK        -0.5102 
     57 CA         33.4160  -50.0426  -55.9080 C.3       3 UNK         0.0241 
     58 CB         32.3925  -49.6736  -57.0035 C.3       3 UNK        -0.1971 
     59 N          34.5195  -49.0876  -55.9446 N.am      3 UNK        -0.4139 
     60 C          35.8113  -49.3773  -55.7353 C.2       2 UNK         0.5016 
     61 O          36.2615  -50.5203  -55.6463 O.2       2 UNK        -0.5319 
     62 CA         36.7628  -48.1758  -55.5852 C.3       2 UNK         0.0286 
     63 CB         37.3560  -47.7798  -56.9470 C.3       2 UNK        -0.1963 
     64 N          36.0872  -47.0165  -54.9928 N.am      2 UNK        -0.4790 
     65 C          35.7781  -46.9033  -53.6933 C.2       1 UNK         0.5024 
     66 O          36.1818  -47.6855  -52.8298 O.2       1 UNK        -0.4888 
     67 H67        34.6538  -46.4892  -48.8994 H         1 UNK         0.0892 
     68 H68        34.8895  -44.8196  -49.4215 H         1 UNK         0.0892 
     69 H69        33.2599  -45.4286  -49.1265 H         1 UNK         0.0892 
     70 H70        35.3734  -44.6914  -51.5754 H         1 UNK         0.3107 
     71 H71        35.3439  -44.8276  -53.7319 H         1 UNK         0.0773 
     72 H72        32.6836  -45.3928  -53.3809 H         1 UNK         0.0680 
     73 H73        33.1480  -46.9004  -54.0584 H         1 UNK         0.0680 
     74 H74        33.1771  -42.7963  -56.2254 H         1 UNK         0.0650 
     75 H75        33.8673  -42.9942  -54.6356 H         1 UNK         0.0650 
     76 H76        32.4289  -43.0975  -52.6663 H         1 UNK         0.1397 
     77 H77        28.1872  -42.6703  -53.1387 H         1 UNK         0.1363 
     78 H78        30.6984  -43.1396  -56.5860 H         1 UNK         0.1355 
     79 H79        27.4685  -41.9581  -55.5528 H         1 UNK         0.0707 
     80 H80        28.3863  -42.5903  -56.8938 H         1 UNK         0.0707 
     81 H81        29.2335  -45.4425  -55.9270 H         1 UNK         0.1034 
     82 H82        27.9123  -46.5553  -56.0535 H         1 UNK         0.1034 
     83 H83        28.7790  -44.6330  -58.2521 H         1 UNK         0.0482 
     84 H84        29.9865  -48.2516  -59.4800 H         1 UNK         0.3460 
     85 H85        28.3040  -47.7868  -59.5490 H         1 UNK         0.3460 
     86 H86        26.4587  -46.4098  -58.1192 H         1 UNK         0.2989 
     87 H87        24.7685  -45.0930  -60.1658 H         1 UNK         0.0559 
     88 H88        25.7361  -44.9499  -62.4312 H         1 UNK         0.0848 
     89 H89        24.5195  -46.2133  -62.3991 H         1 UNK         0.0848 
     90 H90        26.2314  -46.6346  -62.3745 H         1 UNK         0.0848 
     91 H91        24.0900  -47.0509  -59.4053 H         1 UNK         0.3144 
     92 H92        23.9315  -49.0670  -58.7353 H         1 UNK         0.0727 
     93 H93        25.4305  -51.0696  -60.5123 H         1 UNK         0.0790 
     94 H94        23.9124  -50.2850  -60.9234 H         1 UNK         0.0790 
     95 H95        23.9764  -51.4006  -59.5691 H         1 UNK         0.0790 
     96 H96        25.9803  -50.8964  -58.0855 H         1 UNK         0.3215 
     97 H97        26.6641  -50.9322  -55.8888 H         1 UNK         0.0863 
     98 H98        29.1045  -50.4133  -55.7271 H         1 UNK         0.0808 
     99 H99        28.8438  -48.8816  -56.5594 H         1 UNK         0.0808 
    100 H100       28.5710  -50.3961  -57.3996 H         1 UNK         0.0808 
    101 H101       27.6662  -48.6814  -54.3669 H         1 UNK         0.3118 
    102 H102       25.0195  -47.9976  -52.4375 H         1 UNK         0.0546 
    103 H103       26.4440  -50.4852  -51.3475 H         1 UNK         0.0828 
    104 H104       24.7055  -50.2542  -51.4625 H         1 UNK         0.0828 
    105 H105       25.6436  -49.2555  -50.3682 H         1 UNK         0.0828 
    106 H106       27.8879  -48.5373  -51.8963 H         1 UNK         0.3005 
    107 H107       28.9808  -45.4860  -53.0020 H         1 UNK         0.1257 
    108 H108       28.4940  -45.9012  -50.0042 H         1 UNK         0.0775 
    109 H109       27.9987  -44.5016  -50.9140 H         1 UNK         0.0775 
    110 H110       29.1889  -42.4292  -50.9268 H         1 UNK         0.0840 
    111 H111       30.9106  -42.1806  -50.8070 H         1 UNK         0.0840 
    112 H112       30.2179  -47.3810  -51.2593 H         1 UNK         0.2987 
    113 H113       31.8114  -48.8217  -52.2768 H         1 UNK         0.0785 
    114 H114       29.8046  -50.1655  -51.5730 H         1 UNK         0.0798 
    115 H115       30.9556  -51.1973  -52.3988 H         1 UNK         0.0798 
    116 H116       29.5126  -50.6408  -53.2419 H         1 UNK         0.0798 
    117 H117       31.2607  -48.8802  -55.0691 H         1 UNK         0.3079 
    118 H118       33.7809  -51.0518  -56.1111 H         1 UNK         0.0794 
    119 H119       32.8341  -49.7745  -57.9951 H         1 UNK         0.0786 
    120 H120       32.0337  -48.6472  -56.9126 H         1 UNK         0.0786 
    121 H121       31.5260  -50.3357  -56.9733 H         1 UNK         0.0786 
    122 H122       34.2623  -48.1127  -55.9900 H         1 UNK         0.3032 
    123 H123       37.5814  -48.4814  -54.9290 H         1 UNK         0.1094 
    124 H124       36.5849  -47.4598  -57.6490 H         1 UNK         0.0794 
    125 H125       38.0759  -46.9675  -56.8448 H         1 UNK         0.0794 
    126 H126       37.8815  -48.6210  -57.4015 H         1 UNK         0.0794 
    127 H127       35.7376  -46.3154  -55.6328 H         1 UNK         0.3016 
@<TRIPOS>BOND
     1    1    2 1    
     2    1   67 1    
     3    1   68 1    
     4    1   69 1    
     5    2    3 2    
     6    2    4 am   BACKBONE|DICT|INTERRES
     7    4    5 1    
     8    4   70 1    
     9    5    6 1    
    10    5   65 1    
    11    5   71 1    
    12    6    7 1    
    13    6   72 1    
    14    6   73 1    
    15    7    8 1    
    16    8    9 1    
    17    8   74 1    
    18    8   75 1    
    19    9   10 ar   
    20    9   14 ar   
    21   10   11 ar   
    22   10   76 1    
    23   11   12 ar   
    24   11   48 1    
    25   12   13 ar   
    26   12   77 1    
    27   13   14 ar   
    28   13   15 1    
    29   14   78 1    
    30   15   16 1    
    31   15   79 1    
    32   15   80 1    
    33   16   17 1    
    34   17   18 1    
    35   17   81 1    
    36   17   82 1    
    37   18   19 1    
    38   18   22 1    
    39   18   83 1    
    40   19   20 am   BACKBONE|DICT|INTERRES
    41   19   21 2    
    42   20   84 1    
    43   20   85 1    
    44   22   23 am   BACKBONE|DICT|INTERRES
    45   22   86 1    
    46   23   24 2    
    47   23   25 1    
    48   25   26 1    
    49   25   27 1    
    50   25   87 1    
    51   26   88 1    
    52   26   89 1    
    53   26   90 1    
    54   27   28 am   BACKBONE|DICT|INTERRES
    55   27   91 1    
    56   28   29 2    
    57   28   30 1    
    58   30   31 1    
    59   30   32 1    
    60   30   92 1    
    61   31   93 1    
    62   31   94 1    
    63   31   95 1    
    64   32   33 am   BACKBONE|DICT|INTERRES
    65   32   96 1    
    66   33   34 2    
    67   33   35 1    
    68   35   36 1    
    69   35   37 1    
    70   35   97 1    
    71   36   98 1    
    72   36   99 1    
    73   36  100 1    
    74   37   38 am   BACKBONE|DICT|INTERRES
    75   37  101 1    
    76   38   39 2    
    77   38   40 1    
    78   40   41 1    
    79   40   42 1    
    80   40  102 1    
    81   41  103 1    
    82   41  104 1    
    83   41  105 1    
    84   42   43 am   BACKBONE|DICT|INTERRES
    85   42  106 1    
    86   43   44 2    
    87   43   45 1    
    88   45   46 1    
    89   45   49 1    
    90   45  107 1    
    91   46   47 1    
    92   46  108 1    
    93   46  109 1    
    94   47   48 1    
    95   48  110 1    
    96   48  111 1    
    97   49   50 am   BACKBONE|DICT|INTERRES
    98   49  112 1    
    99   50   51 2    
   100   50   52 1    
   101   52   53 1    
   102   52   54 1    
   103   52  113 1    
   104   53  114 1    
   105   53  115 1    
   106   53  116 1    
   107   54   55 am   BACKBONE|DICT|INTERRES
   108   54  117 1    
   109   55   56 2    
   110   55   57 1    
   111   57   58 1    
   112   57   59 1    
   113   57  118 1    
   114   58  119 1    
   115   58  120 1    
   116   58  121 1    
   117   59   60 am   BACKBONE|DICT|INTERRES
   118   59  122 1    
   119   60   61 2    
   120   60   62 1    
   121   62   63 1    
   122   62   64 1    
   123   62  123 1    
   124   63  124 1    
   125   63  125 1    
   126   63  126 1    
   127   64   65 am   BACKBONE|DICT|INTERRES
   128   64  127 1    
   129   65   66 2    
@<TRIPOS>SUBSTRUCTURE
     1 UNK         1 GROUP             0       ****    0 ROOT    
