@<TRIPOS>MOLECULE
3R134
127   129    1
SMALL
USER_CHARGES


@<TRIPOS>ATOM
      1 CA         36.0571  -43.5106  -50.4592 C.3       0 UNK        -0.1968 
      2 C          36.6716  -44.3866  -51.5414 C.2       0 UNK         0.4852 
      3 O          37.8711  -44.6656  -51.4950 O.2       0 UNK        -0.5359 
      4 N          35.8605  -44.8141  -52.5163 N.am      1 UNK        -0.4300 
      5 CA         36.2476  -45.7329  -53.5895 C.3       1 UNK         0.0863 
      6 C6         35.3402  -45.5743  -54.8390 C.3       11 UNK        -0.0953 
      7 S7         33.5501  -45.7850  -54.5294 S.3       11 UNK        -0.2369 
      8 C8         32.9907  -44.0542  -54.5644 C.3       11 UNK         0.0226 
      9 C9         31.4787  -43.9586  -54.4399 C.ar      11 UNK        -0.0699 
     10 C10        30.8692  -43.9753  -53.1812 C.ar      11 UNK        -0.0804 
     11 C11        29.4790  -43.8760  -53.0653 C.ar      11 UNK        -0.0871 
     12 C12        28.6993  -43.7691  -54.2207 C.ar      11 UNK        -0.1008 
     13 C13        29.2978  -43.7476  -55.4839 C.ar      11 UNK        -0.0735 
     14 C14        30.6886  -43.8384  -55.5867 C.ar      11 UNK        -0.0945 
     15 C15        28.4383  -43.6373  -56.7337 C.3       11 UNK         0.0169 
     16 S16        27.5897  -42.0299  -56.8051 S.3       11 UNK        -0.2669 
     17 C17        26.7639  -42.0971  -58.4302 C.3       11 UNK        -0.0850 
     18 CA         25.3443  -42.7362  -58.3493 C.3       10 UNK         0.0855 
     19 C          24.3841  -42.2644  -59.4882 C.2       10 UNK         0.5543 
     20 N          23.4143  -43.0696  -59.9053 N.am      10 UNK        -0.7343 
     21 O          24.4890  -41.1419  -59.9771 O.2       10 UNK        -0.5027 
     22 N          25.4005  -44.1992  -58.1527 N.am      10 UNK        -0.4495 
     23 C          25.8374  -45.0932  -59.0516 C.2       10 UNK         0.4903 
     24 O          26.2437  -44.7950  -60.1757 O.2       10 UNK        -0.4860 
     25 CA         25.7814  -46.5675  -58.6166 C.3       9 UNK         0.0227 
     26 CB         25.2726  -47.4856  -59.7464 C.3       9 UNK        -0.1964 
     27 N          27.0540  -47.0600  -58.0784 N.am      9 UNK        -0.4231 
     28 C          28.2410  -47.1809  -58.6970 C.2       9 UNK         0.5014 
     29 O          28.4847  -46.7956  -59.8403 O.2       9 UNK        -0.5270 
     30 CA         29.3439  -47.9232  -57.9191 C.3       8 UNK         0.0284 
     31 CB         30.0543  -46.9899  -56.9277 C.3       8 UNK        -0.1977 
     32 N          28.8351  -49.0959  -57.2060 N.am      8 UNK        -0.4342 
     33 C          28.3104  -50.1855  -57.7860 C.2       8 UNK         0.5039 
     34 O          28.2789  -50.3741  -59.0026 O.2       8 UNK        -0.5547 
     35 CA         27.6933  -51.2322  -56.8467 C.3       7 UNK         0.0281 
     36 CB         28.7750  -52.1595  -56.2672 C.3       7 UNK        -0.1963 
     37 N          26.9438  -50.5934  -55.7621 N.am      7 UNK        -0.4444 
     38 C          25.7012  -50.1058  -55.8904 C.2       7 UNK         0.5104 
     39 O          25.0258  -50.2129  -56.9139 O.2       7 UNK        -0.5100 
     40 CA         25.1030  -49.3718  -54.6756 C.3       6 UNK         0.0396 
     41 CB         24.2661  -50.3405  -53.8253 C.3       6 UNK        -0.1801 
     42 N          26.1103  -48.7309  -53.8260 N.am      6 UNK        -0.4747 
     43 C          26.8170  -47.6434  -54.1685 C.2       6 UNK         0.5012 
     44 O          26.6772  -47.0459  -55.2359 O.2       6 UNK        -0.5003 
     45 CA         27.9044  -47.1861  -53.1744 C.3       5 UNK         0.0782 
     46 C46        27.3124  -46.2179  -52.1229 C.3       11 UNK        -0.0868 
     47 S47        28.5959  -45.5356  -51.0189 S.3       11 UNK        -0.2515 
     48 C48        28.8220  -43.8596  -51.6923 C.3       11 UNK         0.0199 
     49 N          28.6152  -48.3118  -52.5507 N.am      5 UNK        -0.4607 
     50 C          29.3101  -49.2345  -53.2236 C.2       4 UNK         0.5031 
     51 O          29.3513  -49.2919  -54.4541 O.2       4 UNK        -0.5119 
     52 CA         30.0301  -50.3089  -52.3968 C.3       4 UNK         0.0263 
     53 CB         29.1180  -51.5309  -52.2005 C.3       4 UNK        -0.1967 
     54 N          31.2528  -50.7237  -53.0851 N.am      4 UNK        -0.4237 
     55 C          32.3676  -49.9851  -53.1248 C.2       3 UNK         0.4908 
     56 O          32.5512  -48.9763  -52.4386 O.2       3 UNK        -0.5102 
     57 CA         33.4382  -50.4315  -54.1249 C.3       3 UNK         0.0241 
     58 CB         33.0689  -49.9756  -55.5510 C.3       3 UNK        -0.1971 
     59 N          34.7158  -49.8493  -53.7291 N.am      3 UNK        -0.4139 
     60 C          35.9282  -50.2846  -54.0841 C.2       2 UNK         0.5016 
     61 O          36.1114  -51.2559  -54.8209 O.2       2 UNK        -0.5319 
     62 CA         37.1335  -49.4893  -53.5385 C.3       2 UNK         0.0286 
     63 CB         38.4785  -49.9880  -54.1011 C.3       2 UNK        -0.1963 
     64 N          37.0112  -48.0531  -53.8126 N.am      2 UNK        -0.4790 
     65 C          36.2938  -47.1896  -53.0821 C.2       1 UNK         0.5024 
     66 O          35.6648  -47.5217  -52.0739 O.2       1 UNK        -0.4888 
     67 H67        36.1644  -43.9876  -49.4854 H         1 UNK         0.0892 
     68 H68        36.5633  -42.5462  -50.4245 H         1 UNK         0.0892 
     69 H69        34.9964  -43.3303  -50.6332 H         1 UNK         0.0892 
     70 H70        34.8740  -44.6067  -52.4704 H         1 UNK         0.3107 
     71 H71        37.2639  -45.4748  -53.8958 H         1 UNK         0.0773 
     72 H72        35.5106  -44.5913  -55.2805 H         1 UNK         0.0680 
     73 H73        35.6307  -46.2850  -55.6147 H         1 UNK         0.0680 
     74 H74        33.3184  -43.5874  -55.4947 H         1 UNK         0.0650 
     75 H75        33.4658  -43.4972  -53.7561 H         1 UNK         0.0650 
     76 H76        31.4771  -44.0650  -52.2912 H         1 UNK         0.1397 
     77 H77        27.6236  -43.6905  -54.1425 H         1 UNK         0.1363 
     78 H78        31.1586  -43.8221  -56.5605 H         1 UNK         0.1355 
     79 H79        29.0387  -43.7730  -57.6346 H         1 UNK         0.0707 
     80 H80        27.7046  -44.4430  -56.7212 H         1 UNK         0.0707 
     81 H81        27.3952  -42.6102  -59.1568 H         1 UNK         0.1034 
     82 H82        26.7085  -41.0631  -58.7744 H         1 UNK         0.1034 
     83 H83        24.8684  -42.3465  -57.4486 H         1 UNK         0.0482 
     84 H84        23.3057  -43.9876  -59.5057 H         1 UNK         0.3460 
     85 H85        22.7897  -42.7561  -60.6315 H         1 UNK         0.3460 
     86 H86        25.0655  -44.5307  -57.2594 H         1 UNK         0.2989 
     87 H87        25.0645  -46.6457  -57.7975 H         1 UNK         0.0559 
     88 H88        25.9449  -47.4888  -60.6050 H         1 UNK         0.0848 
     89 H89        24.2943  -47.1604  -60.1022 H         1 UNK         0.0848 
     90 H90        25.1683  -48.5145  -59.4009 H         1 UNK         0.0848 
     91 H91        27.0143  -47.3258  -57.0974 H         1 UNK         0.3144 
     92 H92        30.0831  -48.2739  -58.6423 H         1 UNK         0.0727 
     93 H93        30.8738  -47.4973  -56.4179 H         1 UNK         0.0790 
     94 H94        29.3714  -46.6157  -56.1650 H         1 UNK         0.0790 
     95 H95        30.4782  -46.1283  -57.4439 H         1 UNK         0.0790 
     96 H96        28.8997  -49.0765  -56.1890 H         1 UNK         0.3215 
     97 H97        27.0061  -51.8457  -57.4340 H         1 UNK         0.0863 
     98 H98        29.5223  -51.6114  -55.6941 H         1 UNK         0.0808 
     99 H99        29.3021  -52.6829  -57.0660 H         1 UNK         0.0808 
    100 H100       28.3401  -52.9181  -55.6164 H         1 UNK         0.0808 
    101 H101       27.4507  -50.4038  -54.9090 H         1 UNK         0.3118 
    102 H102       24.4379  -48.5940  -55.0573 H         1 UNK         0.0546 
    103 H103       23.7686  -49.8219  -53.0057 H         1 UNK         0.0828 
    104 H104       24.8766  -51.1375  -53.3991 H         1 UNK         0.0828 
    105 H105       23.4876  -50.8132  -54.4261 H         1 UNK         0.0828 
    106 H106       26.2956  -49.1600  -52.9305 H         1 UNK         0.3005 
    107 H107       28.6441  -46.6366  -53.7612 H         1 UNK         0.1257 
    108 H108       26.5746  -46.7316  -51.5035 H         1 UNK         0.0775 
    109 H109       26.7778  -45.3974  -52.6048 H         1 UNK         0.0775 
    110 H110       27.8598  -43.3462  -51.7297 H         1 UNK         0.0840 
    111 H111       29.4407  -43.2854  -51.0008 H         1 UNK         0.0840 
    112 H112       28.6282  -48.3208  -51.5408 H         1 UNK         0.2987 
    113 H113       30.2901  -49.8978  -51.4187 H         1 UNK         0.0785 
    114 H114       29.6145  -52.3040  -51.6136 H         1 UNK         0.0798 
    115 H115       28.2067  -51.2580  -51.6667 H         1 UNK         0.0798 
    116 H116       28.8187  -51.9737  -53.1511 H         1 UNK         0.0798 
    117 H117       31.1726  -51.5157  -53.7055 H         1 UNK         0.3079 
    118 H118       33.5146  -51.5204  -54.0905 H         1 UNK         0.0794 
    119 H119       32.0986  -50.3705  -55.8556 H         1 UNK         0.0786 
    120 H120       33.8010  -50.3186  -56.2822 H         1 UNK         0.0786 
    121 H121       33.0122  -48.8882  -55.6195 H         1 UNK         0.0786 
    122 H122       34.6391  -49.0612  -53.0904 H         1 UNK         0.3032 
    123 H123       37.1510  -49.6465  -52.4573 H         1 UNK         0.1094 
    124 H124       38.5287  -49.8796  -55.1853 H         1 UNK         0.0794 
    125 H125       39.3168  -49.4410  -53.6692 H         1 UNK         0.0794 
    126 H126       38.6319  -51.0433  -53.8711 H         1 UNK         0.0794 
    127 H127       37.4706  -47.7187  -54.6483 H         1 UNK         0.3016 
@<TRIPOS>BOND
     1    1    2 1    
     2    1   67 1    
     3    1   68 1    
     4    1   69 1    
     5    2    3 2    
     6    2    4 am   BACKBONE|DICT|INTERRES
     7    4    5 1    
     8    4   70 1    
     9    5    6 1    
    10    5   65 1    
    11    5   71 1    
    12    6    7 1    
    13    6   72 1    
    14    6   73 1    
    15    7    8 1    
    16    8    9 1    
    17    8   74 1    
    18    8   75 1    
    19    9   10 ar   
    20    9   14 ar   
    21   10   11 ar   
    22   10   76 1    
    23   11   12 ar   
    24   11   48 1    
    25   12   13 ar   
    26   12   77 1    
    27   13   14 ar   
    28   13   15 1    
    29   14   78 1    
    30   15   16 1    
    31   15   79 1    
    32   15   80 1    
    33   16   17 1    
    34   17   18 1    
    35   17   81 1    
    36   17   82 1    
    37   18   19 1    
    38   18   22 1    
    39   18   83 1    
    40   19   20 am   BACKBONE|DICT|INTERRES
    41   19   21 2    
    42   20   84 1    
    43   20   85 1    
    44   22   23 am   BACKBONE|DICT|INTERRES
    45   22   86 1    
    46   23   24 2    
    47   23   25 1    
    48   25   26 1    
    49   25   27 1    
    50   25   87 1    
    51   26   88 1    
    52   26   89 1    
    53   26   90 1    
    54   27   28 am   BACKBONE|DICT|INTERRES
    55   27   91 1    
    56   28   29 2    
    57   28   30 1    
    58   30   31 1    
    59   30   32 1    
    60   30   92 1    
    61   31   93 1    
    62   31   94 1    
    63   31   95 1    
    64   32   33 am   BACKBONE|DICT|INTERRES
    65   32   96 1    
    66   33   34 2    
    67   33   35 1    
    68   35   36 1    
    69   35   37 1    
    70   35   97 1    
    71   36   98 1    
    72   36   99 1    
    73   36  100 1    
    74   37   38 am   BACKBONE|DICT|INTERRES
    75   37  101 1    
    76   38   39 2    
    77   38   40 1    
    78   40   41 1    
    79   40   42 1    
    80   40  102 1    
    81   41  103 1    
    82   41  104 1    
    83   41  105 1    
    84   42   43 am   BACKBONE|DICT|INTERRES
    85   42  106 1    
    86   43   44 2    
    87   43   45 1    
    88   45   46 1    
    89   45   49 1    
    90   45  107 1    
    91   46   47 1    
    92   46  108 1    
    93   46  109 1    
    94   47   48 1    
    95   48  110 1    
    96   48  111 1    
    97   49   50 am   BACKBONE|DICT|INTERRES
    98   49  112 1    
    99   50   51 2    
   100   50   52 1    
   101   52   53 1    
   102   52   54 1    
   103   52  113 1    
   104   53  114 1    
   105   53  115 1    
   106   53  116 1    
   107   54   55 am   BACKBONE|DICT|INTERRES
   108   54  117 1    
   109   55   56 2    
   110   55   57 1    
   111   57   58 1    
   112   57   59 1    
   113   57  118 1    
   114   58  119 1    
   115   58  120 1    
   116   58  121 1    
   117   59   60 am   BACKBONE|DICT|INTERRES
   118   59  122 1    
   119   60   61 2    
   120   60   62 1    
   121   62   63 1    
   122   62   64 1    
   123   62  123 1    
   124   63  124 1    
   125   63  125 1    
   126   63  126 1    
   127   64   65 am   BACKBONE|DICT|INTERRES
   128   64  127 1    
   129   65   66 2    
@<TRIPOS>SUBSTRUCTURE
     1 UNK         1 GROUP             0       ****    0 ROOT    
