@<TRIPOS>MOLECULE
3R134
127   129    1
SMALL
USER_CHARGES


@<TRIPOS>ATOM
      1 CA         36.8537  -40.8247  -56.1485 C.3       0 UNK        -0.1968 
      2 C          35.9428  -42.0397  -56.0477 C.2       0 UNK         0.4852 
      3 O          35.3479  -42.4403  -57.0491 O.2       0 UNK        -0.5359 
      4 N          35.8258  -42.6213  -54.8466 N.am      1 UNK        -0.4300 
      5 CA         35.0539  -43.8361  -54.5711 C.3       1 UNK         0.0863 
      6 C6         34.8077  -44.0021  -53.0478 C.3       11 UNK        -0.0953 
      7 S7         33.2205  -44.8219  -52.7049 S.3       11 UNK        -0.2369 
      8 C8         32.2091  -43.3909  -52.2183 C.3       11 UNK         0.0226 
      9 C9         30.7328  -43.7446  -52.2276 C.ar      11 UNK        -0.0699 
     10 C10        30.0863  -44.1525  -51.0571 C.ar      11 UNK        -0.0804 
     11 C11        28.7307  -44.4981  -51.0812 C.ar      11 UNK        -0.0871 
     12 C12        28.0229  -44.4297  -52.2843 C.ar      11 UNK        -0.1008 
     13 C13        28.6683  -44.0449  -53.4624 C.ar      11 UNK        -0.0735 
     14 C14        30.0167  -43.6829  -53.4244 C.ar      11 UNK        -0.0945 
     15 C15        27.9212  -44.0587  -54.7846 C.3       11 UNK         0.0169 
     16 S16        27.7506  -45.7508  -55.4330 S.3       11 UNK        -0.2669 
     17 C17        29.4842  -46.2138  -55.8001 C.3       11 UNK        -0.0850 
     18 CA         29.9461  -45.7588  -57.2103 C.3       10 UNK         0.0855 
     19 C          31.4644  -46.0283  -57.4240 C.2       10 UNK         0.5543 
     20 N          31.8693  -46.7586  -58.4559 N.am      10 UNK        -0.7343 
     21 O          32.2921  -45.5630  -56.6429 O.2       10 UNK        -0.5027 
     22 N          29.0687  -46.3149  -58.2516 N.am      10 UNK        -0.4495 
     23 C          28.8791  -45.8167  -59.4804 C.2       10 UNK         0.4903 
     24 O          29.4662  -44.8266  -59.9169 O.2       10 UNK        -0.4860 
     25 CA         27.8537  -46.5400  -60.3799 C.3       9 UNK         0.0227 
     26 CB         28.5683  -47.5164  -61.3280 C.3       9 UNK        -0.1964 
     27 N          26.8402  -47.2702  -59.6117 N.am      9 UNK        -0.4231 
     28 C          25.8972  -46.6921  -58.8568 C.2       9 UNK         0.5014 
     29 O          25.6410  -45.4877  -58.9088 O.2       9 UNK        -0.5270 
     30 CA         25.1064  -47.5726  -57.8627 C.3       8 UNK         0.0284 
     31 CB         23.6265  -47.6472  -58.2781 C.3       8 UNK        -0.1977 
     32 N          25.5808  -48.9415  -57.5953 N.am      8 UNK        -0.4342 
     33 C          26.8150  -49.3506  -57.2690 C.2       8 UNK         0.5039 
     34 O          27.8232  -48.6511  -57.3409 O.2       8 UNK        -0.5547 
     35 CA         26.9274  -50.7840  -56.7371 C.3       7 UNK         0.0281 
     36 CB         28.3464  -51.3600  -56.8964 C.3       7 UNK        -0.1963 
     37 N          26.5755  -50.7671  -55.3194 N.am      7 UNK        -0.4444 
     38 C          25.3372  -50.9492  -54.8411 C.2       7 UNK         0.5104 
     39 O          24.3667  -51.2026  -55.5566 O.2       7 UNK        -0.5100 
     40 CA         25.1306  -50.8364  -53.3185 C.3       6 UNK         0.0396 
     41 CB         25.1162  -52.2338  -52.6787 C.3       6 UNK        -0.1801 
     42 N          26.1387  -50.0142  -52.6460 N.am      6 UNK        -0.4747 
     43 C          26.2205  -48.6775  -52.7256 C.2       6 UNK         0.5012 
     44 O          25.4061  -47.9813  -53.3320 O.2       6 UNK        -0.5003 
     45 CA         27.4039  -48.0031  -51.9938 C.3       5 UNK         0.0782 
     46 C46        26.9213  -47.4562  -50.6232 C.3       11 UNK        -0.0868 
     47 S47        28.2443  -46.7582  -49.5717 S.3       11 UNK        -0.2515 
     48 C48        28.0405  -44.9649  -49.8101 C.3       11 UNK         0.0199 
     49 N          28.6016  -48.8472  -51.8608 N.am      5 UNK        -0.4607 
     50 C          29.2703  -49.4288  -52.8640 C.2       4 UNK         0.5031 
     51 O          28.8643  -49.4767  -54.0255 O.2       4 UNK        -0.5119 
     52 CA         30.5887  -50.1252  -52.4887 C.3       4 UNK         0.0263 
     53 CB         30.3111  -51.5469  -51.9723 C.3       4 UNK        -0.1967 
     54 N          31.5062  -50.2033  -53.6282 N.am      4 UNK        -0.4237 
     55 C          32.0897  -49.1484  -54.2117 C.2       3 UNK         0.4908 
     56 O          31.9947  -47.9890  -53.8028 O.2       3 UNK        -0.5102 
     57 CA         32.9083  -49.4463  -55.4720 C.3       3 UNK         0.0241 
     58 CB         31.9896  -49.7921  -56.6608 C.3       3 UNK        -0.1971 
     59 N          33.7338  -48.2834  -55.7922 N.am      3 UNK        -0.4139 
     60 C          34.8765  -48.3193  -56.4870 C.2       2 UNK         0.5016 
     61 O          35.3484  -49.3567  -56.9557 O.2       2 UNK        -0.5319 
     62 CA         35.6414  -47.0025  -56.7027 C.3       2 UNK         0.0286 
     63 CB         35.7221  -46.6407  -58.1968 C.3       2 UNK        -0.1963 
     64 N          35.0703  -45.8647  -55.9728 N.am      2 UNK        -0.4790 
     65 C          35.7775  -45.0598  -55.1701 C.2       1 UNK         0.5024 
     66 O          36.9679  -45.2382  -54.8974 O.2       1 UNK        -0.4888 
     67 H67        37.3052  -40.5716  -55.1894 H         1 UNK         0.0892 
     68 H68        37.6559  -41.0159  -56.8607 H         1 UNK         0.0892 
     69 H69        36.2886  -39.9599  -56.4954 H         1 UNK         0.0892 
     70 H70        36.3696  -42.2664  -54.0732 H         1 UNK         0.3107 
     71 H71        34.0910  -43.7186  -55.0750 H         1 UNK         0.0773 
     72 H72        35.6092  -44.5615  -52.5608 H         1 UNK         0.0680 
     73 H73        34.7977  -43.0300  -52.5519 H         1 UNK         0.0680 
     74 H74        32.3897  -42.5637  -52.9069 H         1 UNK         0.0650 
     75 H75        32.5170  -43.0472  -51.2296 H         1 UNK         0.0650 
     76 H76        30.6417  -44.2163  -50.1313 H         1 UNK         0.1397 
     77 H77        26.9788  -44.7106  -52.3144 H         1 UNK         0.1363 
     78 H78        30.5220  -43.3895  -54.3346 H         1 UNK         0.1355 
     79 H79        28.4236  -43.4344  -55.5249 H         1 UNK         0.0707 
     80 H80        26.9271  -43.6312  -54.6466 H         1 UNK         0.0707 
     81 H81        29.5590  -47.3002  -55.7179 H         1 UNK         0.1034 
     82 H82        30.1435  -45.8277  -55.0230 H         1 UNK         0.1034 
     83 H83        29.8419  -44.6734  -57.2499 H         1 UNK         0.0482 
     84 H84        31.1928  -47.1329  -59.1003 H         1 UNK         0.3460 
     85 H85        32.8500  -46.9266  -58.5967 H         1 UNK         0.3460 
     86 H86        28.5501  -47.1473  -57.9691 H         1 UNK         0.2989 
     87 H87        27.3477  -45.7834  -60.9832 H         1 UNK         0.0559 
     88 H88        29.0813  -48.3090  -60.7816 H         1 UNK         0.0848 
     89 H89        29.3162  -46.9983  -61.9301 H         1 UNK         0.0848 
     90 H90        27.8667  -47.9841  -62.0189 H         1 UNK         0.0848 
     91 H91        27.0131  -48.2526  -59.4517 H         1 UNK         0.3144 
     92 H92        25.1572  -47.0502  -56.9053 H         1 UNK         0.0727 
     93 H93        23.0200  -48.1257  -57.5087 H         1 UNK         0.0790 
     94 H94        23.4985  -48.2067  -59.2056 H         1 UNK         0.0790 
     95 H95        23.2093  -46.6518  -58.4381 H         1 UNK         0.0790 
     96 H96        24.8455  -49.6263  -57.4793 H         1 UNK         0.3215 
     97 H97        26.2413  -51.4234  -57.2971 H         1 UNK         0.0863 
     98 H98        28.3991  -52.3884  -56.5395 H         1 UNK         0.0808 
     99 H99        29.0822  -50.7768  -56.3428 H         1 UNK         0.0808 
    100 H100       28.6522  -51.3603  -57.9433 H         1 UNK         0.0808 
    101 H101       27.3065  -50.4416  -54.6912 H         1 UNK         0.3118 
    102 H102       24.1530  -50.3783  -53.1539 H         1 UNK         0.0546 
    103 H103       24.3531  -52.8646  -53.1370 H         1 UNK         0.0828 
    104 H104       24.8921  -52.1814  -51.6131 H         1 UNK         0.0828 
    105 H105       26.0733  -52.7432  -52.7976 H         1 UNK         0.0828 
    106 H106       26.8529  -50.5013  -52.1240 H         1 UNK         0.3005 
    107 H107       27.7023  -47.1586  -52.6176 H         1 UNK         0.1257 
    108 H108       26.4542  -48.2563  -50.0450 H         1 UNK         0.0775 
    109 H109       26.1426  -46.7052  -50.7685 H         1 UNK         0.0775 
    110 H110       26.9822  -44.6997  -49.8208 H         1 UNK         0.0840 
    111 H111       28.4696  -44.4477  -48.9505 H         1 UNK         0.0840 
    112 H112       29.0025  -48.8689  -50.9338 H         1 UNK         0.2987 
    113 H113       31.0761  -49.5477  -51.7001 H         1 UNK         0.0785 
    114 H114       29.6618  -51.5276  -51.0960 H         1 UNK         0.0798 
    115 H115       31.2325  -52.0493  -51.6772 H         1 UNK         0.0798 
    116 H116       29.8199  -52.1619  -52.7279 H         1 UNK         0.0798 
    117 H117       31.6130  -51.1118  -54.0545 H         1 UNK         0.3079 
    118 H118       33.5620  -50.2946  -55.2572 H         1 UNK         0.0794 
    119 H119       31.2195  -49.0344  -56.8105 H         1 UNK         0.0786 
    120 H120       31.4814  -50.7420  -56.4960 H         1 UNK         0.0786 
    121 H121       32.5504  -49.8878  -57.5904 H         1 UNK         0.0786 
    122 H122       33.4100  -47.4141  -55.3838 H         1 UNK         0.3032 
    123 H123       36.6573  -47.2045  -56.3559 H         1 UNK         0.1094 
    124 H124       34.7448  -46.3880  -58.6065 H         1 UNK         0.0794 
    125 H125       36.3787  -45.7853  -58.3573 H         1 UNK         0.0794 
    126 H126       36.1225  -47.4680  -58.7846 H         1 UNK         0.0794 
    127 H127       34.0924  -45.6478  -56.1634 H         1 UNK         0.3016 
@<TRIPOS>BOND
     1    1    2 1    
     2    1   67 1    
     3    1   68 1    
     4    1   69 1    
     5    2    3 2    
     6    2    4 am   BACKBONE|DICT|INTERRES
     7    4    5 1    
     8    4   70 1    
     9    5    6 1    
    10    5   65 1    
    11    5   71 1    
    12    6    7 1    
    13    6   72 1    
    14    6   73 1    
    15    7    8 1    
    16    8    9 1    
    17    8   74 1    
    18    8   75 1    
    19    9   10 ar   
    20    9   14 ar   
    21   10   11 ar   
    22   10   76 1    
    23   11   12 ar   
    24   11   48 1    
    25   12   13 ar   
    26   12   77 1    
    27   13   14 ar   
    28   13   15 1    
    29   14   78 1    
    30   15   16 1    
    31   15   79 1    
    32   15   80 1    
    33   16   17 1    
    34   17   18 1    
    35   17   81 1    
    36   17   82 1    
    37   18   19 1    
    38   18   22 1    
    39   18   83 1    
    40   19   20 am   BACKBONE|DICT|INTERRES
    41   19   21 2    
    42   20   84 1    
    43   20   85 1    
    44   22   23 am   BACKBONE|DICT|INTERRES
    45   22   86 1    
    46   23   24 2    
    47   23   25 1    
    48   25   26 1    
    49   25   27 1    
    50   25   87 1    
    51   26   88 1    
    52   26   89 1    
    53   26   90 1    
    54   27   28 am   BACKBONE|DICT|INTERRES
    55   27   91 1    
    56   28   29 2    
    57   28   30 1    
    58   30   31 1    
    59   30   32 1    
    60   30   92 1    
    61   31   93 1    
    62   31   94 1    
    63   31   95 1    
    64   32   33 am   BACKBONE|DICT|INTERRES
    65   32   96 1    
    66   33   34 2    
    67   33   35 1    
    68   35   36 1    
    69   35   37 1    
    70   35   97 1    
    71   36   98 1    
    72   36   99 1    
    73   36  100 1    
    74   37   38 am   BACKBONE|DICT|INTERRES
    75   37  101 1    
    76   38   39 2    
    77   38   40 1    
    78   40   41 1    
    79   40   42 1    
    80   40  102 1    
    81   41  103 1    
    82   41  104 1    
    83   41  105 1    
    84   42   43 am   BACKBONE|DICT|INTERRES
    85   42  106 1    
    86   43   44 2    
    87   43   45 1    
    88   45   46 1    
    89   45   49 1    
    90   45  107 1    
    91   46   47 1    
    92   46  108 1    
    93   46  109 1    
    94   47   48 1    
    95   48  110 1    
    96   48  111 1    
    97   49   50 am   BACKBONE|DICT|INTERRES
    98   49  112 1    
    99   50   51 2    
   100   50   52 1    
   101   52   53 1    
   102   52   54 1    
   103   52  113 1    
   104   53  114 1    
   105   53  115 1    
   106   53  116 1    
   107   54   55 am   BACKBONE|DICT|INTERRES
   108   54  117 1    
   109   55   56 2    
   110   55   57 1    
   111   57   58 1    
   112   57   59 1    
   113   57  118 1    
   114   58  119 1    
   115   58  120 1    
   116   58  121 1    
   117   59   60 am   BACKBONE|DICT|INTERRES
   118   59  122 1    
   119   60   61 2    
   120   60   62 1    
   121   62   63 1    
   122   62   64 1    
   123   62  123 1    
   124   63  124 1    
   125   63  125 1    
   126   63  126 1    
   127   64   65 am   BACKBONE|DICT|INTERRES
   128   64  127 1    
   129   65   66 2    
@<TRIPOS>SUBSTRUCTURE
     1 UNK         1 GROUP             0       ****    0 ROOT    
