@<TRIPOS>MOLECULE
3R134
127   129    1
SMALL
USER_CHARGES


@<TRIPOS>ATOM
      1 CA         33.3883  -46.8344  -50.3429 C.3       0 UNK        -0.1968 
      2 C          34.3711  -46.1175  -51.2556 C.2       0 UNK         0.4852 
      3 O          35.0486  -45.1860  -50.8177 O.2       0 UNK        -0.5359 
      4 N          34.4516  -46.5538  -52.5146 N.am      1 UNK        -0.4300 
      5 CA         35.3725  -46.0608  -53.5366 C.3       1 UNK         0.0863 
      6 C6         34.6664  -45.1179  -54.5520 C.3       11 UNK        -0.0953 
      7 S7         33.2169  -45.8453  -55.4026 S.3       11 UNK        -0.2369 
      8 C8         32.3414  -44.3418  -55.9424 C.3       11 UNK         0.0226 
      9 C9         31.1634  -43.9475  -55.0538 C.ar      11 UNK        -0.0699 
     10 C10        31.2371  -43.9881  -53.6548 C.ar      11 UNK        -0.0804 
     11 C11        30.1483  -43.5854  -52.8723 C.ar      11 UNK        -0.0871 
     12 C12        28.9795  -43.1378  -53.4953 C.ar      11 UNK        -0.1008 
     13 C13        28.8980  -43.0812  -54.8879 C.ar      11 UNK        -0.0735 
     14 C14        29.9898  -43.4876  -55.6583 C.ar      11 UNK        -0.0945 
     15 C15        27.6481  -42.5529  -55.5710 C.3       11 UNK         0.0169 
     16 S16        26.6390  -43.9120  -56.2319 S.3       11 UNK        -0.2669 
     17 C17        25.6789  -43.0418  -57.5215 C.3       11 UNK        -0.0850 
     18 CA         26.2219  -43.2512  -58.9622 C.3       10 UNK         0.0855 
     19 C          27.5475  -42.4734  -59.2109 C.2       10 UNK         0.5543 
     20 N          27.4625  -41.1659  -59.4160 N.am      10 UNK        -0.7343 
     21 O          28.6450  -43.0277  -59.1850 O.2       10 UNK        -0.5027 
     22 N          26.2988  -44.6792  -59.2987 N.am      10 UNK        -0.4495 
     23 C          26.5529  -45.1852  -60.5099 C.2       10 UNK         0.4903 
     24 O          26.6538  -44.4987  -61.5286 O.2       10 UNK        -0.4860 
     25 CA         26.7200  -46.7164  -60.5908 C.3       9 UNK         0.0227 
     26 CB         27.1168  -47.1958  -62.0004 C.3       9 UNK        -0.1964 
     27 N          27.7007  -47.2237  -59.6245 N.am      9 UNK        -0.4231 
     28 C          27.4613  -47.4566  -58.3278 C.2       9 UNK         0.5014 
     29 O          26.3840  -47.2114  -57.7791 O.2       9 UNK        -0.5270 
     30 CA         28.6311  -48.0297  -57.5067 C.3       8 UNK         0.0284 
     31 CB         29.3618  -46.9051  -56.7527 C.3       8 UNK        -0.1977 
     32 N          28.1932  -49.0395  -56.5414 N.am      8 UNK        -0.4342 
     33 C          27.5485  -50.1790  -56.8305 C.2       8 UNK         0.5039 
     34 O          27.3035  -50.5599  -57.9765 O.2       8 UNK        -0.5547 
     35 CA         27.1102  -51.0549  -55.6463 C.3       7 UNK         0.0281 
     36 CB         28.2083  -52.0746  -55.3006 C.3       7 UNK        -0.1963 
     37 N          26.7970  -50.2587  -54.4563 N.am      7 UNK        -0.4444 
     38 C          25.5688  -49.8464  -54.1121 C.2       7 UNK         0.5104 
     39 O          24.5565  -50.1005  -54.7660 O.2       7 UNK        -0.5100 
     40 CA         25.4236  -49.0440  -52.8030 C.3       6 UNK         0.0396 
     41 CB         24.8823  -49.9491  -51.6843 C.3       6 UNK        -0.1801 
     42 N          26.6779  -48.4355  -52.3528 N.am      6 UNK        -0.4747 
     43 C          27.1735  -47.2777  -52.8148 C.2       6 UNK         0.5012 
     44 O          26.5761  -46.5527  -53.6079 O.2       6 UNK        -0.5003 
     45 CA         28.5850  -46.8752  -52.3311 C.3       5 UNK         0.0782 
     46 C46        28.4988  -45.8408  -51.1826 C.3       11 UNK        -0.0868 
     47 S47        30.1515  -45.2731  -50.6544 S.3       11 UNK        -0.2515 
     48 C48        30.2425  -43.5952  -51.3526 C.3       11 UNK         0.0199 
     49 N          29.4282  -48.0258  -51.9665 N.am      5 UNK        -0.4607 
     50 C          29.8051  -48.9877  -52.8140 C.2       4 UNK         0.5031 
     51 O          29.3853  -49.0745  -53.9689 O.2       4 UNK        -0.5119 
     52 CA         30.7589  -50.0659  -52.2747 C.3       4 UNK         0.0263 
     53 CB         29.9596  -51.2384  -51.6836 C.3       4 UNK        -0.1967 
     54 N          31.6256  -50.5612  -53.3467 N.am      4 UNK        -0.4237 
     55 C          32.5761  -49.8179  -53.9254 C.2       3 UNK         0.4908 
     56 O          32.9432  -48.7236  -53.4855 O.2       3 UNK        -0.5102 
     57 CA         33.1930  -50.3741  -55.2177 C.3       3 UNK         0.0241 
     58 CB         32.1432  -50.4566  -56.3423 C.3       3 UNK        -0.1971 
     59 N          34.2557  -49.4668  -55.6324 N.am      3 UNK        -0.4139 
     60 C          35.4926  -49.7960  -56.0186 C.2       2 UNK         0.5016 
     61 O          35.8685  -50.9517  -56.2183 O.2       2 UNK        -0.5319 
     62 CA         36.4877  -48.6301  -56.1982 C.3       2 UNK         0.0286 
     63 CB         36.6609  -48.2936  -57.6881 C.3       2 UNK        -0.1963 
     64 N          36.0755  -47.4179  -55.4783 N.am      2 UNK        -0.4790 
     65 C          36.0863  -47.2859  -54.1439 C.2       1 UNK         0.5024 
     66 O          36.6114  -48.1111  -53.3930 O.2       1 UNK        -0.4888 
     67 H67        33.9119  -47.5639  -49.7260 H         1 UNK         0.0892 
     68 H68        32.8948  -46.1214  -49.6832 H         1 UNK         0.0892 
     69 H69        32.6194  -47.3545  -50.9143 H         1 UNK         0.0892 
     70 H70        33.8789  -47.3450  -52.8123 H         1 UNK         0.3107 
     71 H71        36.1684  -45.4848  -53.0603 H         1 UNK         0.0773 
     72 H72        34.3380  -44.2240  -54.0202 H         1 UNK         0.0680 
     73 H73        35.3731  -44.7581  -55.3017 H         1 UNK         0.0680 
     74 H74        31.9925  -44.5233  -56.9602 H         1 UNK         0.0650 
     75 H75        33.0371  -43.5044  -56.0069 H         1 UNK         0.0650 
     76 H76        32.1400  -44.3301  -53.1691 H         1 UNK         0.1397 
     77 H77        28.1366  -42.8187  -52.8974 H         1 UNK         0.1363 
     78 H78        29.9210  -43.4378  -56.7369 H         1 UNK         0.1355 
     79 H79        27.9442  -41.8780  -56.3748 H         1 UNK         0.0707 
     80 H80        27.0456  -41.9617  -54.8797 H         1 UNK         0.0707 
     81 H81        24.6548  -43.4145  -57.4704 H         1 UNK         0.1034 
     82 H82        25.6060  -41.9795  -57.2810 H         1 UNK         0.1034 
     83 H83        25.4850  -42.8250  -59.6461 H         1 UNK         0.0482 
     84 H84        26.5712  -40.6954  -59.4397 H         1 UNK         0.3460 
     85 H85        28.3088  -40.6400  -59.5684 H         1 UNK         0.3460 
     86 H86        26.2602  -45.3238  -58.5154 H         1 UNK         0.2989 
     87 H87        25.7460  -47.1533  -60.3606 H         1 UNK         0.0559 
     88 H88        28.0787  -46.7864  -62.3115 H         1 UNK         0.0848 
     89 H89        26.3770  -46.8887  -62.7411 H         1 UNK         0.0848 
     90 H90        27.1828  -48.2830  -62.0468 H         1 UNK         0.0848 
     91 H91        28.6267  -47.4062  -59.9842 H         1 UNK         0.3144 
     92 H92        29.3370  -48.5128  -58.1850 H         1 UNK         0.0727 
     93 H93        30.2250  -47.2834  -56.2039 H         1 UNK         0.0790 
     94 H94        28.7041  -46.4096  -56.0363 H         1 UNK         0.0790 
     95 H95        29.7246  -46.1404  -57.4408 H         1 UNK         0.0790 
     96 H96        28.4287  -48.8620  -55.5690 H         1 UNK         0.3215 
     97 H97        26.2239  -51.6117  -55.9588 H         1 UNK         0.0863 
     98 H98        27.8946  -52.7367  -54.4936 H         1 UNK         0.0808 
     99 H99        29.1332  -51.5858  -54.9954 H         1 UNK         0.0808 
    100 H100       28.4412  -52.7019  -56.1621 H         1 UNK         0.0808 
    101 H101       27.5892  -49.9343  -53.9141 H         1 UNK         0.3118 
    102 H102       24.6902  -48.2545  -52.9813 H         1 UNK         0.0546 
    103 H103       23.9288  -50.3953  -51.9704 H         1 UNK         0.0828 
    104 H104       24.7110  -49.3868  -50.7662 H         1 UNK         0.0828 
    105 H105       25.5679  -50.7662  -51.4564 H         1 UNK         0.0828 
    106 H106       27.2285  -48.9584  -51.6869 H         1 UNK         0.3005 
    107 H107       29.0667  -46.3881  -53.1834 H         1 UNK         0.1257 
    108 H108       27.9976  -46.2742  -50.3152 H         1 UNK         0.0775 
    109 H109       27.8973  -44.9796  -51.4791 H         1 UNK         0.0775 
    110 H110       29.4569  -42.9807  -50.9099 H         1 UNK         0.0840 
    111 H111       31.1869  -43.1412  -51.0490 H         1 UNK         0.0840 
    112 H112       29.8026  -48.0149  -51.0288 H         1 UNK         0.2987 
    113 H113       31.3846  -49.6312  -51.4921 H         1 UNK         0.0785 
    114 H114       29.3314  -50.9067  -50.8559 H         1 UNK         0.0798 
    115 H115       30.6216  -52.0118  -51.2936 H         1 UNK         0.0798 
    116 H116       29.3053  -51.7002  -52.4239 H         1 UNK         0.0798 
    117 H117       31.3665  -51.4393  -53.7705 H         1 UNK         0.3079 
    118 H118       33.5984  -51.3663  -55.0085 H         1 UNK         0.0794 
    119 H119       31.6584  -49.4938  -56.5120 H         1 UNK         0.0786 
    120 H120       31.3604  -51.1773  -56.1056 H         1 UNK         0.0786 
    121 H121       32.5954  -50.7724  -57.2826 H         1 UNK         0.0786 
    122 H122       34.0680  -48.4944  -55.4239 H         1 UNK         0.3032 
    123 H123       37.4513  -48.9593  -55.8023 H         1 UNK         0.1094 
    124 H124       35.7266  -47.9541  -58.1373 H         1 UNK         0.0794 
    125 H125       37.4084  -47.5138  -57.8349 H         1 UNK         0.0794 
    126 H126       36.9931  -49.1683  -58.2490 H         1 UNK         0.0794 
    127 H127       35.6143  -46.7008  -56.0220 H         1 UNK         0.3016 
@<TRIPOS>BOND
     1    1    2 1    
     2    1   67 1    
     3    1   68 1    
     4    1   69 1    
     5    2    3 2    
     6    2    4 am   BACKBONE|DICT|INTERRES
     7    4    5 1    
     8    4   70 1    
     9    5    6 1    
    10    5   65 1    
    11    5   71 1    
    12    6    7 1    
    13    6   72 1    
    14    6   73 1    
    15    7    8 1    
    16    8    9 1    
    17    8   74 1    
    18    8   75 1    
    19    9   10 ar   
    20    9   14 ar   
    21   10   11 ar   
    22   10   76 1    
    23   11   12 ar   
    24   11   48 1    
    25   12   13 ar   
    26   12   77 1    
    27   13   14 ar   
    28   13   15 1    
    29   14   78 1    
    30   15   16 1    
    31   15   79 1    
    32   15   80 1    
    33   16   17 1    
    34   17   18 1    
    35   17   81 1    
    36   17   82 1    
    37   18   19 1    
    38   18   22 1    
    39   18   83 1    
    40   19   20 am   BACKBONE|DICT|INTERRES
    41   19   21 2    
    42   20   84 1    
    43   20   85 1    
    44   22   23 am   BACKBONE|DICT|INTERRES
    45   22   86 1    
    46   23   24 2    
    47   23   25 1    
    48   25   26 1    
    49   25   27 1    
    50   25   87 1    
    51   26   88 1    
    52   26   89 1    
    53   26   90 1    
    54   27   28 am   BACKBONE|DICT|INTERRES
    55   27   91 1    
    56   28   29 2    
    57   28   30 1    
    58   30   31 1    
    59   30   32 1    
    60   30   92 1    
    61   31   93 1    
    62   31   94 1    
    63   31   95 1    
    64   32   33 am   BACKBONE|DICT|INTERRES
    65   32   96 1    
    66   33   34 2    
    67   33   35 1    
    68   35   36 1    
    69   35   37 1    
    70   35   97 1    
    71   36   98 1    
    72   36   99 1    
    73   36  100 1    
    74   37   38 am   BACKBONE|DICT|INTERRES
    75   37  101 1    
    76   38   39 2    
    77   38   40 1    
    78   40   41 1    
    79   40   42 1    
    80   40  102 1    
    81   41  103 1    
    82   41  104 1    
    83   41  105 1    
    84   42   43 am   BACKBONE|DICT|INTERRES
    85   42  106 1    
    86   43   44 2    
    87   43   45 1    
    88   45   46 1    
    89   45   49 1    
    90   45  107 1    
    91   46   47 1    
    92   46  108 1    
    93   46  109 1    
    94   47   48 1    
    95   48  110 1    
    96   48  111 1    
    97   49   50 am   BACKBONE|DICT|INTERRES
    98   49  112 1    
    99   50   51 2    
   100   50   52 1    
   101   52   53 1    
   102   52   54 1    
   103   52  113 1    
   104   53  114 1    
   105   53  115 1    
   106   53  116 1    
   107   54   55 am   BACKBONE|DICT|INTERRES
   108   54  117 1    
   109   55   56 2    
   110   55   57 1    
   111   57   58 1    
   112   57   59 1    
   113   57  118 1    
   114   58  119 1    
   115   58  120 1    
   116   58  121 1    
   117   59   60 am   BACKBONE|DICT|INTERRES
   118   59  122 1    
   119   60   61 2    
   120   60   62 1    
   121   62   63 1    
   122   62   64 1    
   123   62  123 1    
   124   63  124 1    
   125   63  125 1    
   126   63  126 1    
   127   64   65 am   BACKBONE|DICT|INTERRES
   128   64  127 1    
   129   65   66 2    
@<TRIPOS>SUBSTRUCTURE
     1 UNK         1 GROUP             0       ****    0 ROOT    
