@<TRIPOS>MOLECULE
3R134
127   129    1
SMALL
USER_CHARGES


@<TRIPOS>ATOM
      1 CA         37.9833  -45.8469  -55.0169 C.3       0 UNK        -0.1968 
      2 C          36.4963  -45.9970  -54.7289 C.2       0 UNK         0.4852 
      3 O          36.1320  -46.3813  -53.6174 O.2       0 UNK        -0.5359 
      4 N          35.6498  -45.6904  -55.7233 N.am      1 UNK        -0.4300 
      5 CA         34.1811  -45.7661  -55.6840 C.3       1 UNK         0.0863 
      6 C6         33.5244  -44.7772  -54.6819 C.3       11 UNK        -0.0953 
      7 S7         33.9335  -43.0457  -55.0798 S.3       11 UNK        -0.2369 
      8 C8         33.3372  -42.1850  -53.5901 C.3       11 UNK         0.0226 
      9 C9         31.8303  -42.3102  -53.4008 C.ar      11 UNK        -0.0699 
     10 C10        31.3124  -42.8506  -52.2195 C.ar      11 UNK        -0.0804 
     11 C11        29.9306  -42.9518  -52.0294 C.ar      11 UNK        -0.0871 
     12 C12        29.0637  -42.5213  -53.0374 C.ar      11 UNK        -0.1008 
     13 C13        29.5694  -41.9754  -54.2204 C.ar      11 UNK        -0.0735 
     14 C14        30.9517  -41.8647  -54.3938 C.ar      11 UNK        -0.0945 
     15 C15        28.6205  -41.4959  -55.3051 C.3       11 UNK         0.0169 
     16 S16        28.4094  -42.7635  -56.5884 S.3       11 UNK        -0.2669 
     17 C17        26.9287  -42.1112  -57.4377 C.3       11 UNK        -0.0850 
     18 CA         26.3758  -43.0569  -58.5365 C.3       10 UNK         0.0855 
     19 C          27.1911  -42.9645  -59.8616 C.2       10 UNK         0.5543 
     20 N          27.7547  -44.0449  -60.3889 N.am      10 UNK        -0.7343 
     21 O          27.2993  -41.8834  -60.4355 O.2       10 UNK        -0.5027 
     22 N          26.1833  -44.4151  -58.0115 N.am      10 UNK        -0.4495 
     23 C          25.3582  -45.3397  -58.5117 C.2       10 UNK         0.4903 
     24 O          24.5587  -45.1238  -59.4240 O.2       10 UNK        -0.4860 
     25 CA         25.4630  -46.7436  -57.8816 C.3       9 UNK         0.0227 
     26 CB         24.8411  -47.8422  -58.7685 C.3       9 UNK        -0.1964 
     27 N          26.8333  -47.1143  -57.4986 N.am      9 UNK        -0.4231 
     28 C          27.9141  -47.1722  -58.2946 C.2       9 UNK         0.5014 
     29 O          27.9238  -46.8247  -59.4761 O.2       9 UNK        -0.5270 
     30 CA         29.2038  -47.7259  -57.6657 C.3       8 UNK         0.0284 
     31 CB         29.9352  -46.6308  -56.8721 C.3       8 UNK        -0.1977 
     32 N          28.9479  -48.8854  -56.8064 N.am      8 UNK        -0.4342 
     33 C          28.4836  -50.0679  -57.2410 C.2       8 UNK         0.5039 
     34 O          28.3342  -50.3546  -58.4292 O.2       8 UNK        -0.5547 
     35 CA         28.0882  -51.0959  -56.1693 C.3       7 UNK         0.0281 
     36 CB         29.2972  -51.9445  -55.7389 C.3       7 UNK        -0.1963 
     37 N          27.4852  -50.4422  -55.0047 N.am      7 UNK        -0.4444 
     38 C          26.2105  -50.0270  -54.9540 C.2       7 UNK         0.5104 
     39 O          25.3874  -50.2375  -55.8445 O.2       7 UNK        -0.5100 
     40 CA         25.7701  -49.2376  -53.7070 C.3       6 UNK         0.0396 
     41 CB         25.1123  -50.1782  -52.6851 C.3       6 UNK        -0.1801 
     42 N          26.8620  -48.5090  -53.0567 N.am      6 UNK        -0.4747 
     43 C          27.4770  -47.4292  -53.5631 C.2       6 UNK         0.5012 
     44 O          27.1676  -46.9096  -54.6356 O.2       6 UNK        -0.5003 
     45 CA         28.6774  -46.8850  -52.7562 C.3       5 UNK         0.0782 
     46 C46        28.1887  -45.8886  -51.6745 C.3       11 UNK        -0.0868 
     47 S47        29.5363  -45.2948  -50.5923 S.3       11 UNK        -0.2515 
     48 C48        29.3786  -43.4878  -50.7172 C.3       11 UNK         0.0199 
     49 N          29.4934  -47.9632  -52.1778 N.am      5 UNK        -0.4607 
     50 C          30.0850  -48.9451  -52.8657 C.2       4 UNK         0.5031 
     51 O          29.9789  -49.0876  -54.0872 O.2       4 UNK        -0.5119 
     52 CA         30.8487  -49.9868  -52.0430 C.3       4 UNK         0.0263 
     53 CB         29.8587  -50.9558  -51.3638 C.3       4 UNK        -0.1967 
     54 N          31.7290  -50.7095  -52.9521 N.am      4 UNK        -0.4237 
     55 C          32.6949  -51.5765  -52.6269 C.2       3 UNK         0.4908 
     56 O          32.9908  -51.8747  -51.4692 O.2       3 UNK        -0.5102 
     57 CA         33.4562  -52.2383  -53.7910 C.3       3 UNK         0.0241 
     58 CB         32.8668  -53.6266  -54.0916 C.3       3 UNK        -0.1971 
     59 N          33.4318  -51.4325  -55.0151 N.am      3 UNK        -0.4139 
     60 C          34.1693  -50.3314  -55.2114 C.2       2 UNK         0.5016 
     61 O          35.0473  -49.9554  -54.4313 O.2       2 UNK        -0.5319 
     62 CA         33.8985  -49.5361  -56.5067 C.3       2 UNK         0.0286 
     63 CB         32.4565  -49.7045  -57.0427 C.3       2 UNK        -0.1963 
     64 N          34.2238  -48.1085  -56.3802 N.am      2 UNK        -0.4790 
     65 C          33.6876  -47.2211  -55.5248 C.2       1 UNK         0.5024 
     66 O          32.8404  -47.5028  -54.6758 O.2       1 UNK        -0.4888 
     67 H67        38.4292  -45.1349  -54.3228 H         1 UNK         0.0892 
     68 H68        38.4874  -46.8050  -54.8933 H         1 UNK         0.0892 
     69 H69        38.1709  -45.4935  -56.0307 H         1 UNK         0.0892 
     70 H70        36.0333  -45.3677  -56.6009 H         1 UNK         0.3107 
     71 H71        33.8453  -45.4686  -56.6790 H         1 UNK         0.0773 
     72 H72        32.4368  -44.8720  -54.7078 H         1 UNK         0.0680 
     73 H73        33.8284  -44.9964  -53.6573 H         1 UNK         0.0680 
     74 H74        33.5953  -41.1282  -53.6689 H         1 UNK         0.0650 
     75 H75        33.8751  -42.5700  -52.7224 H         1 UNK         0.0650 
     76 H76        31.9829  -43.1862  -51.4399 H         1 UNK         0.1397 
     77 H77        27.9940  -42.5987  -52.8978 H         1 UNK         0.1363 
     78 H78        31.3452  -41.4418  -55.3082 H         1 UNK         0.1355 
     79 H79        27.6515  -41.2474  -54.8692 H         1 UNK         0.0707 
     80 H80        28.9996  -40.5791  -55.7595 H         1 UNK         0.0707 
     81 H81        26.1518  -41.9545  -56.6876 H         1 UNK         0.1034 
     82 H82        27.1487  -41.1205  -57.8407 H         1 UNK         0.1034 
     83 H83        25.3852  -42.6793  -58.7973 H         1 UNK         0.0482 
     84 H84        28.2693  -43.9558  -61.2500 H         1 UNK         0.3460 
     85 H85        27.6744  -44.9555  -59.9469 H         1 UNK         0.3460 
     86 H86        26.8183  -44.6835  -57.2732 H         1 UNK         0.2989 
     87 H87        24.8910  -46.7044  -56.9535 H         1 UNK         0.0559 
     88 H88        23.7847  -47.6461  -58.9556 H         1 UNK         0.0848 
     89 H89        24.9083  -48.8203  -58.2917 H         1 UNK         0.0848 
     90 H90        25.3380  -47.9074  -59.7371 H         1 UNK         0.0848 
     91 H91        26.9669  -47.3169  -56.5107 H         1 UNK         0.3144 
     92 H92        29.8577  -48.0522  -58.4771 H         1 UNK         0.0727 
     93 H93        29.3304  -46.2431  -56.0527 H         1 UNK         0.0790 
     94 H94        30.1870  -45.7861  -57.5149 H         1 UNK         0.0790 
     95 H95        30.8654  -47.0056  -56.4493 H         1 UNK         0.0790 
     96 H96        29.1249  -48.7740  -55.8119 H         1 UNK         0.3215 
     97 H97        27.3506  -51.7699  -56.6111 H         1 UNK         0.0863 
     98 H98        29.0220  -52.6692  -54.9725 H         1 UNK         0.0808 
     99 H99        30.1095  -51.3349  -55.3482 H         1 UNK         0.0808 
    100 H100       29.6946  -52.5047  -56.5862 H         1 UNK         0.0808 
    101 H101       28.1136  -50.1736  -54.2597 H         1 UNK         0.3118 
    102 H102       25.0229  -48.5085  -54.0281 H         1 UNK         0.0546 
    103 H103       25.8141  -50.9243  -52.3104 H         1 UNK         0.0828 
    104 H104       24.2748  -50.7154  -53.1326 H         1 UNK         0.0828 
    105 H105       24.7197  -49.6258  -51.8312 H         1 UNK         0.0828 
    106 H106       27.1866  -48.8696  -52.1709 H         1 UNK         0.3005 
    107 H107       29.3162  -46.3422  -53.4572 H         1 UNK         0.1257 
    108 H108       27.4381  -46.3535  -51.0321 H         1 UNK         0.0775 
    109 H109       27.6953  -45.0371  -52.1463 H         1 UNK         0.0775 
    110 H110       28.3348  -43.1997  -50.5818 H         1 UNK         0.0840 
    111 H111       29.9243  -43.0328  -49.8892 H         1 UNK         0.0840 
    112 H112       29.6350  -47.9097  -51.1792 H         1 UNK         0.2987 
    113 H113       31.4549  -49.4743  -51.2934 H         1 UNK         0.0785 
    114 H114       29.1694  -50.4233  -50.7075 H         1 UNK         0.0798 
    115 H115       30.3752  -51.6914  -50.7475 H         1 UNK         0.0798 
    116 H116       29.2605  -51.4986  -52.0969 H         1 UNK         0.0798 
    117 H117       31.5840  -50.4620  -53.9226 H         1 UNK         0.3079 
    118 H118       34.4944  -52.3675  -53.4771 H         1 UNK         0.0794 
    119 H119       33.4304  -54.1369  -54.8730 H         1 UNK         0.0786 
    120 H120       31.8259  -53.5650  -54.4122 H         1 UNK         0.0786 
    121 H121       32.8969  -54.2625  -53.2056 H         1 UNK         0.0786 
    122 H122       32.7676  -51.7025  -55.7255 H         1 UNK         0.3032 
    123 H123       34.5823  -49.9403  -57.2551 H         1 UNK         0.1094 
    124 H124       31.7135  -49.4355  -56.2914 H         1 UNK         0.0794 
    125 H125       32.2839  -49.0723  -57.9138 H         1 UNK         0.0794 
    126 H126       32.2567  -50.7289  -57.3581 H         1 UNK         0.0794 
    127 H127       34.9504  -47.7764  -56.9988 H         1 UNK         0.3016 
@<TRIPOS>BOND
     1    1    2 1    
     2    1   67 1    
     3    1   68 1    
     4    1   69 1    
     5    2    3 2    
     6    2    4 am   BACKBONE|DICT|INTERRES
     7    4    5 1    
     8    4   70 1    
     9    5    6 1    
    10    5   65 1    
    11    5   71 1    
    12    6    7 1    
    13    6   72 1    
    14    6   73 1    
    15    7    8 1    
    16    8    9 1    
    17    8   74 1    
    18    8   75 1    
    19    9   10 ar   
    20    9   14 ar   
    21   10   11 ar   
    22   10   76 1    
    23   11   12 ar   
    24   11   48 1    
    25   12   13 ar   
    26   12   77 1    
    27   13   14 ar   
    28   13   15 1    
    29   14   78 1    
    30   15   16 1    
    31   15   79 1    
    32   15   80 1    
    33   16   17 1    
    34   17   18 1    
    35   17   81 1    
    36   17   82 1    
    37   18   19 1    
    38   18   22 1    
    39   18   83 1    
    40   19   20 am   BACKBONE|DICT|INTERRES
    41   19   21 2    
    42   20   84 1    
    43   20   85 1    
    44   22   23 am   BACKBONE|DICT|INTERRES
    45   22   86 1    
    46   23   24 2    
    47   23   25 1    
    48   25   26 1    
    49   25   27 1    
    50   25   87 1    
    51   26   88 1    
    52   26   89 1    
    53   26   90 1    
    54   27   28 am   BACKBONE|DICT|INTERRES
    55   27   91 1    
    56   28   29 2    
    57   28   30 1    
    58   30   31 1    
    59   30   32 1    
    60   30   92 1    
    61   31   93 1    
    62   31   94 1    
    63   31   95 1    
    64   32   33 am   BACKBONE|DICT|INTERRES
    65   32   96 1    
    66   33   34 2    
    67   33   35 1    
    68   35   36 1    
    69   35   37 1    
    70   35   97 1    
    71   36   98 1    
    72   36   99 1    
    73   36  100 1    
    74   37   38 am   BACKBONE|DICT|INTERRES
    75   37  101 1    
    76   38   39 2    
    77   38   40 1    
    78   40   41 1    
    79   40   42 1    
    80   40  102 1    
    81   41  103 1    
    82   41  104 1    
    83   41  105 1    
    84   42   43 am   BACKBONE|DICT|INTERRES
    85   42  106 1    
    86   43   44 2    
    87   43   45 1    
    88   45   46 1    
    89   45   49 1    
    90   45  107 1    
    91   46   47 1    
    92   46  108 1    
    93   46  109 1    
    94   47   48 1    
    95   48  110 1    
    96   48  111 1    
    97   49   50 am   BACKBONE|DICT|INTERRES
    98   49  112 1    
    99   50   51 2    
   100   50   52 1    
   101   52   53 1    
   102   52   54 1    
   103   52  113 1    
   104   53  114 1    
   105   53  115 1    
   106   53  116 1    
   107   54   55 am   BACKBONE|DICT|INTERRES
   108   54  117 1    
   109   55   56 2    
   110   55   57 1    
   111   57   58 1    
   112   57   59 1    
   113   57  118 1    
   114   58  119 1    
   115   58  120 1    
   116   58  121 1    
   117   59   60 am   BACKBONE|DICT|INTERRES
   118   59  122 1    
   119   60   61 2    
   120   60   62 1    
   121   62   63 1    
   122   62   64 1    
   123   62  123 1    
   124   63  124 1    
   125   63  125 1    
   126   63  126 1    
   127   64   65 am   BACKBONE|DICT|INTERRES
   128   64  127 1    
   129   65   66 2    
@<TRIPOS>SUBSTRUCTURE
     1 UNK         1 GROUP             0       ****    0 ROOT    
