@<TRIPOS>MOLECULE
3R134
127   129    1
SMALL
USER_CHARGES


@<TRIPOS>ATOM
      1 CA         35.4563  -43.8267  -48.0644 C.3       0 UNK        -0.1968 
      2 C          35.1057  -44.2654  -49.4788 C.2       0 UNK         0.4852 
      3 O          35.9990  -44.3921  -50.3180 O.2       0 UNK        -0.5359 
      4 N          33.8133  -44.4899  -49.7505 N.am      1 UNK        -0.4300 
      5 CA         33.2994  -44.9815  -51.0310 C.3       1 UNK         0.0863 
      6 C6         31.7725  -44.7349  -51.1408 C.3       11 UNK        -0.0953 
      7 S7         31.1579  -44.8564  -52.8506 S.3       11 UNK        -0.2369 
      8 C8         31.3565  -43.1392  -53.4179 C.3       11 UNK         0.0226 
      9 C9         31.2530  -43.0586  -54.9322 C.ar      11 UNK        -0.0699 
     10 C10        32.2253  -43.6781  -55.7210 C.ar      11 UNK        -0.0804 
     11 C11        32.1289  -43.6586  -57.1132 C.ar      11 UNK        -0.0871 
     12 C12        31.0693  -42.9799  -57.7200 C.ar      11 UNK        -0.1008 
     13 C13        30.1020  -42.3352  -56.9439 C.ar      11 UNK        -0.0735 
     14 C14        30.1967  -42.3793  -55.5478 C.ar      11 UNK        -0.0945 
     15 C15        28.9665  -41.5866  -57.6262 C.3       11 UNK         0.0169 
     16 S16        27.5661  -42.6836  -58.0174 S.3       11 UNK        -0.2669 
     17 C17        26.7940  -42.8795  -56.3761 C.3       11 UNK        -0.0850 
     18 CA         26.9111  -44.3266  -55.8067 C.3       10 UNK         0.0855 
     19 C          26.5190  -44.3893  -54.2957 C.2       10 UNK         0.5543 
     20 N          25.9972  -45.4986  -53.7890 N.am      10 UNK        -0.7343 
     21 O          26.7063  -43.4242  -53.5584 O.2       10 UNK        -0.5027 
     22 N          26.2452  -45.3336  -56.6604 N.am      10 UNK        -0.4495 
     23 C          24.9310  -45.3795  -56.9247 C.2       10 UNK         0.4903 
     24 O          24.1215  -44.5751  -56.4600 O.2       10 UNK        -0.4860 
     25 CA         24.3779  -46.4976  -57.8315 C.3       9 UNK         0.0227 
     26 CB         23.7106  -45.9132  -59.0942 C.3       9 UNK        -0.1964 
     27 N          25.3011  -47.5855  -58.1772 N.am      9 UNK        -0.4231 
     28 C          26.3694  -47.5784  -58.9854 C.2       9 UNK         0.5014 
     29 O          26.7961  -46.5684  -59.5458 O.2       9 UNK        -0.5270 
     30 CA         27.0613  -48.9438  -59.2128 C.3       8 UNK         0.0284 
     31 CB         28.3637  -48.8202  -60.0251 C.3       8 UNK        -0.1977 
     32 N          27.3428  -49.6559  -57.9609 N.am      8 UNK        -0.4342 
     33 C          26.4369  -50.2788  -57.1940 C.2       8 UNK         0.5039 
     34 O          25.2501  -50.3920  -57.5042 O.2       8 UNK        -0.5547 
     35 CA         26.9053  -50.7811  -55.8185 C.3       7 UNK         0.0281 
     36 CB         27.5196  -52.1853  -55.9272 C.3       7 UNK        -0.1963 
     37 N          27.8500  -49.8630  -55.1745 N.am      7 UNK        -0.4444 
     38 C          27.5611  -48.6012  -54.8175 C.2       7 UNK         0.5104 
     39 O          26.4421  -48.0979  -54.9244 O.2       7 UNK        -0.5100 
     40 CA         28.7247  -47.7427  -54.2917 C.3       6 UNK         0.0396 
     41 CB         29.0204  -48.0709  -52.8201 C.3       6 UNK        -0.1801 
     42 N          29.9367  -47.9006  -55.0954 N.am      6 UNK        -0.4747 
     43 C          30.0521  -47.5628  -56.3892 C.2       6 UNK         0.5012 
     44 O          29.1694  -46.9823  -57.0202 O.2       6 UNK        -0.5003 
     45 CA         31.3310  -48.0295  -57.1174 C.3       5 UNK         0.0782 
     46 C46        32.4797  -46.9895  -57.0708 C.3       11 UNK        -0.0868 
     47 S47        32.5201  -45.9666  -58.5816 S.3       11 UNK        -0.2515 
     48 C48        33.1615  -44.3813  -57.9617 C.3       11 UNK         0.0199 
     49 N          31.7689  -49.3380  -56.6270 N.am      5 UNK        -0.4607 
     50 C          31.1887  -50.4968  -56.9614 C.2       4 UNK         0.5031 
     51 O          30.2261  -50.5814  -57.7233 O.2       4 UNK        -0.5119 
     52 CA         31.7664  -51.7705  -56.3217 C.3       4 UNK         0.0263 
     53 CB         32.9563  -52.2933  -57.1418 C.3       4 UNK        -0.1967 
     54 N          32.1784  -51.5721  -54.9290 N.am      4 UNK        -0.4237 
     55 C          31.3231  -51.3393  -53.9241 C.2       3 UNK         0.4908 
     56 O          30.1018  -51.2912  -54.0650 O.2       3 UNK        -0.5102 
     57 CA         31.9283  -51.0798  -52.5341 C.3       3 UNK         0.0241 
     58 CB         32.2373  -52.4084  -51.8253 C.3       3 UNK        -0.1971 
     59 N          33.1246  -50.2275  -52.5287 N.am      3 UNK        -0.4139 
     60 C          33.1953  -48.9933  -53.0468 C.2       2 UNK         0.5016 
     61 O          32.3055  -48.4780  -53.7244 O.2       2 UNK        -0.5319 
     62 CA         34.4857  -48.2005  -52.7969 C.3       2 UNK         0.0286 
     63 CB         35.3566  -48.1822  -54.0635 C.3       2 UNK        -0.1963 
     64 N          34.1705  -46.8237  -52.4090 N.am      2 UNK        -0.4790 
     65 C          33.6686  -46.4695  -51.2178 C.2       1 UNK         0.5024 
     66 O          33.4922  -47.2610  -50.2875 O.2       1 UNK        -0.4888 
     67 H67        36.1338  -44.5465  -47.6058 H         1 UNK         0.0892 
     68 H68        34.5727  -43.7424  -47.4320 H         1 UNK         0.0892 
     69 H69        35.9521  -42.8565  -48.0845 H         1 UNK         0.0892 
     70 H70        33.1311  -44.4019  -49.0110 H         1 UNK         0.3107 
     71 H71        33.7940  -44.4023  -51.8141 H         1 UNK         0.0773 
     72 H72        31.2157  -45.4381  -50.5183 H         1 UNK         0.0680 
     73 H73        31.5207  -43.7417  -50.7648 H         1 UNK         0.0680 
     74 H74        30.6031  -42.5132  -52.9373 H         1 UNK         0.0650 
     75 H75        32.3299  -42.7573  -53.1070 H         1 UNK         0.0650 
     76 H76        33.0424  -44.2017  -55.2442 H         1 UNK         0.1397 
     77 H77        30.9912  -42.9636  -58.7987 H         1 UNK         0.1363 
     78 H78        29.4491  -41.8892  -54.9399 H         1 UNK         0.1355 
     79 H79        29.3291  -41.1436  -58.5551 H         1 UNK         0.0707 
     80 H80        28.6288  -40.7517  -57.0102 H         1 UNK         0.0707 
     81 H81        25.7494  -42.5756  -56.4499 H         1 UNK         0.1034 
     82 H82        27.2454  -42.1587  -55.6945 H         1 UNK         0.1034 
     83 H83        27.9687  -44.5928  -55.8224 H         1 UNK         0.0482 
     84 H84        25.9162  -46.3371  -54.3558 H         1 UNK         0.3460 
     85 H85        25.7460  -45.5232  -52.8144 H         1 UNK         0.3460 
     86 H86        26.8538  -46.0245  -57.0800 H         1 UNK         0.2989 
     87 H87        23.5917  -46.9790  -57.2480 H         1 UNK         0.0559 
     88 H88        23.2600  -46.6948  -59.7056 H         1 UNK         0.0848 
     89 H89        24.4232  -45.3684  -59.7142 H         1 UNK         0.0848 
     90 H90        22.9166  -45.2139  -58.8290 H         1 UNK         0.0848 
     91 H91        25.0707  -48.4889  -57.7692 H         1 UNK         0.3144 
     92 H92        26.3691  -49.5522  -59.7985 H         1 UNK         0.0727 
     93 H93        28.8332  -49.7922  -60.1779 H         1 UNK         0.0790 
     94 H94        29.0856  -48.1721  -59.5287 H         1 UNK         0.0790 
     95 H95        28.1704  -48.3952  -61.0108 H         1 UNK         0.0790 
     96 H96        28.3048  -49.6384  -57.6414 H         1 UNK         0.3215 
     97 H97        26.0243  -50.8461  -55.1765 H         1 UNK         0.0863 
     98 H98        27.7800  -52.5809  -54.9453 H         1 UNK         0.0808 
     99 H99        28.4217  -52.1878  -56.5385 H         1 UNK         0.0808 
    100 H100       26.8161  -52.8842  -56.3815 H         1 UNK         0.0808 
    101 H101       28.7772  -50.2280  -54.9712 H         1 UNK         0.3118 
    102 H102       28.4361  -46.6934  -54.3529 H         1 UNK         0.0546 
    103 H103       28.1523  -47.8590  -52.1950 H         1 UNK         0.0828 
    104 H104       29.8497  -47.4779  -52.4363 H         1 UNK         0.0828 
    105 H105       29.2736  -49.1214  -52.6811 H         1 UNK         0.0828 
    106 H106       30.7499  -48.2960  -54.6245 H         1 UNK         0.3005 
    107 H107       31.0476  -48.1753  -58.1623 H         1 UNK         0.1257 
    108 H108       33.4488  -47.4879  -57.0179 H         1 UNK         0.0775 
    109 H109       32.4228  -46.3730  -56.1732 H         1 UNK         0.0775 
    110 H110       34.0812  -44.5534  -57.4001 H         1 UNK         0.0840 
    111 H111       33.4360  -43.7542  -58.8113 H         1 UNK         0.0840 
    112 H112       32.4963  -49.3375  -55.9265 H         1 UNK         0.2987 
    113 H113       30.9827  -52.5311  -56.3371 H         1 UNK         0.0785 
    114 H114       33.7869  -51.5864  -57.1491 H         1 UNK         0.0798 
    115 H115       32.6671  -52.4667  -58.1795 H         1 UNK         0.0798 
    116 H116       33.3241  -53.2409  -56.7477 H         1 UNK         0.0798 
    117 H117       33.1676  -51.5963  -54.7284 H         1 UNK         0.3079 
    118 H118       31.1682  -50.5580  -51.9492 H         1 UNK         0.0794 
    119 H119       33.0322  -52.9610  -52.3278 H         1 UNK         0.0786 
    120 H120       31.3569  -53.0526  -51.8020 H         1 UNK         0.0786 
    121 H121       32.5425  -52.2456  -50.7914 H         1 UNK         0.0786 
    122 H122       33.9151  -50.5756  -52.0052 H         1 UNK         0.3032 
    123 H123       35.0496  -48.6707  -51.9879 H         1 UNK         0.1094 
    124 H124       36.2904  -47.6456  -53.8943 H         1 UNK         0.0794 
    125 H125       35.6183  -49.1947  -54.3739 H         1 UNK         0.0794 
    126 H126       34.8441  -47.7063  -54.9004 H         1 UNK         0.0794 
    127 H127       34.2415  -46.1250  -53.1337 H         1 UNK         0.3016 
@<TRIPOS>BOND
     1    1    2 1    
     2    1   67 1    
     3    1   68 1    
     4    1   69 1    
     5    2    3 2    
     6    2    4 am   BACKBONE|DICT|INTERRES
     7    4    5 1    
     8    4   70 1    
     9    5    6 1    
    10    5   65 1    
    11    5   71 1    
    12    6    7 1    
    13    6   72 1    
    14    6   73 1    
    15    7    8 1    
    16    8    9 1    
    17    8   74 1    
    18    8   75 1    
    19    9   10 ar   
    20    9   14 ar   
    21   10   11 ar   
    22   10   76 1    
    23   11   12 ar   
    24   11   48 1    
    25   12   13 ar   
    26   12   77 1    
    27   13   14 ar   
    28   13   15 1    
    29   14   78 1    
    30   15   16 1    
    31   15   79 1    
    32   15   80 1    
    33   16   17 1    
    34   17   18 1    
    35   17   81 1    
    36   17   82 1    
    37   18   19 1    
    38   18   22 1    
    39   18   83 1    
    40   19   20 am   BACKBONE|DICT|INTERRES
    41   19   21 2    
    42   20   84 1    
    43   20   85 1    
    44   22   23 am   BACKBONE|DICT|INTERRES
    45   22   86 1    
    46   23   24 2    
    47   23   25 1    
    48   25   26 1    
    49   25   27 1    
    50   25   87 1    
    51   26   88 1    
    52   26   89 1    
    53   26   90 1    
    54   27   28 am   BACKBONE|DICT|INTERRES
    55   27   91 1    
    56   28   29 2    
    57   28   30 1    
    58   30   31 1    
    59   30   32 1    
    60   30   92 1    
    61   31   93 1    
    62   31   94 1    
    63   31   95 1    
    64   32   33 am   BACKBONE|DICT|INTERRES
    65   32   96 1    
    66   33   34 2    
    67   33   35 1    
    68   35   36 1    
    69   35   37 1    
    70   35   97 1    
    71   36   98 1    
    72   36   99 1    
    73   36  100 1    
    74   37   38 am   BACKBONE|DICT|INTERRES
    75   37  101 1    
    76   38   39 2    
    77   38   40 1    
    78   40   41 1    
    79   40   42 1    
    80   40  102 1    
    81   41  103 1    
    82   41  104 1    
    83   41  105 1    
    84   42   43 am   BACKBONE|DICT|INTERRES
    85   42  106 1    
    86   43   44 2    
    87   43   45 1    
    88   45   46 1    
    89   45   49 1    
    90   45  107 1    
    91   46   47 1    
    92   46  108 1    
    93   46  109 1    
    94   47   48 1    
    95   48  110 1    
    96   48  111 1    
    97   49   50 am   BACKBONE|DICT|INTERRES
    98   49  112 1    
    99   50   51 2    
   100   50   52 1    
   101   52   53 1    
   102   52   54 1    
   103   52  113 1    
   104   53  114 1    
   105   53  115 1    
   106   53  116 1    
   107   54   55 am   BACKBONE|DICT|INTERRES
   108   54  117 1    
   109   55   56 2    
   110   55   57 1    
   111   57   58 1    
   112   57   59 1    
   113   57  118 1    
   114   58  119 1    
   115   58  120 1    
   116   58  121 1    
   117   59   60 am   BACKBONE|DICT|INTERRES
   118   59  122 1    
   119   60   61 2    
   120   60   62 1    
   121   62   63 1    
   122   62   64 1    
   123   62  123 1    
   124   63  124 1    
   125   63  125 1    
   126   63  126 1    
   127   64   65 am   BACKBONE|DICT|INTERRES
   128   64  127 1    
   129   65   66 2    
@<TRIPOS>SUBSTRUCTURE
     1 UNK         1 GROUP             0       ****    0 ROOT    
