@<TRIPOS>MOLECULE
3R134
127   129    1
SMALL
USER_CHARGES


@<TRIPOS>ATOM
      1 CA         33.5118  -44.8893  -47.6585 C.3       0 UNK        -0.1968 
      2 C          33.3086  -45.2961  -49.1109 C.2       0 UNK         0.4852 
      3 O          32.5869  -46.2588  -49.3752 O.2       0 UNK        -0.5359 
      4 N          33.9399  -44.5674  -50.0429 N.am      1 UNK        -0.4300 
      5 CA         33.9089  -44.7827  -51.4958 C.3       1 UNK         0.0863 
      6 C6         32.5140  -44.5265  -52.1379 C.3       11 UNK        -0.0953 
      7 S7         31.9020  -42.8318  -51.8340 S.3       11 UNK        -0.2369 
      8 C8         32.7302  -41.8650  -53.1401 C.3       11 UNK         0.0226 
      9 C9         32.1125  -42.0993  -54.5107 C.ar      11 UNK        -0.0699 
     10 C10        32.6433  -43.0713  -55.3622 C.ar      11 UNK        -0.0804 
     11 C11        32.0508  -43.3325  -56.6006 C.ar      11 UNK        -0.0871 
     12 C12        30.9634  -42.5579  -57.0161 C.ar      11 UNK        -0.1008 
     13 C13        30.4409  -41.5606  -56.1891 C.ar      11 UNK        -0.0735 
     14 C14        31.0128  -41.3437  -54.9308 C.ar      11 UNK        -0.0945 
     15 C15        29.2762  -40.7017  -56.6619 C.3       11 UNK         0.0169 
     16 S16        27.6613  -41.3910  -56.1764 S.3       11 UNK        -0.2669 
     17 C17        27.2927  -42.5759  -57.5223 C.3       11 UNK        -0.0850 
     18 CA         27.0886  -44.0278  -57.0032 C.3       10 UNK         0.0855 
     19 C          25.7895  -44.2509  -56.1855 C.2       10 UNK         0.5543 
     20 N          25.6947  -45.3640  -55.4727 N.am      10 UNK        -0.7343 
     21 O          24.8562  -43.4520  -56.2193 O.2       10 UNK        -0.5027 
     22 N          27.1460  -45.0344  -58.0682 N.am      10 UNK        -0.4495 
     23 C          28.2476  -45.4530  -58.6927 C.2       10 UNK         0.4903 
     24 O          29.3497  -44.9331  -58.5383 O.2       10 UNK        -0.4860 
     25 CA         28.1064  -46.6728  -59.6260 C.3       9 UNK         0.0227 
     26 CB         29.4527  -47.1203  -60.2296 C.3       9 UNK        -0.1964 
     27 N          27.4702  -47.8301  -58.9823 N.am      9 UNK        -0.4231 
     28 C          26.1484  -47.9646  -58.8079 C.2       9 UNK         0.5014 
     29 O          25.3411  -47.0582  -59.0218 O.2       9 UNK        -0.5270 
     30 CA         25.6206  -49.3361  -58.3770 C.3       8 UNK         0.0284 
     31 CB         25.6656  -50.3267  -59.5575 C.3       8 UNK        -0.1977 
     32 N          26.3119  -49.8973  -57.2133 N.am      8 UNK        -0.4342 
     33 C          25.7371  -50.7881  -56.3914 C.2       8 UNK         0.5039 
     34 O          24.5678  -51.1633  -56.4988 O.2       8 UNK        -0.5547 
     35 CA         26.5987  -51.3959  -55.2752 C.3       7 UNK         0.0281 
     36 CB         27.4306  -52.5653  -55.8264 C.3       7 UNK        -0.1963 
     37 N          27.4725  -50.4292  -54.6112 N.am      7 UNK        -0.4444 
     38 C          27.0457  -49.4404  -53.8131 C.2       7 UNK         0.5104 
     39 O          25.8610  -49.2322  -53.5495 O.2       7 UNK        -0.5100 
     40 CA         28.1227  -48.5232  -53.2058 C.3       6 UNK         0.0396 
     41 CB         28.7304  -49.1556  -51.9440 C.3       6 UNK        -0.1801 
     42 N          29.1942  -48.1951  -54.1467 N.am      6 UNK        -0.4747 
     43 C          29.0261  -47.5034  -55.2824 C.2       6 UNK         0.5012 
     44 O          27.9476  -47.0400  -55.6485 O.2       6 UNK        -0.5003 
     45 CA         30.2655  -47.3521  -56.1795 C.3       5 UNK         0.0782 
     46 C46        31.1950  -46.2381  -55.6460 C.3       11 UNK        -0.0868 
     47 S47        32.7519  -46.0568  -56.5897 S.3       11 UNK        -0.2515 
     48 C48        32.5566  -44.4709  -57.4805 C.3       11 UNK         0.0199 
     49 N          30.9332  -48.6409  -56.3504 N.am      5 UNK        -0.4607 
     50 C          30.4172  -49.6772  -57.0238 C.2       4 UNK         0.5031 
     51 O          29.3337  -49.6443  -57.6143 O.2       4 UNK        -0.5119 
     52 CA         31.2417  -50.9752  -57.0073 C.3       4 UNK         0.0263 
     53 CB         32.2606  -50.9748  -58.1575 C.3       4 UNK        -0.1967 
     54 N          31.9370  -51.1940  -55.7324 N.am      4 UNK        -0.4237 
     55 C          31.3129  -51.4285  -54.5686 C.2       3 UNK         0.4908 
     56 O          30.0920  -51.5059  -54.4532 O.2       3 UNK        -0.5102 
     57 CA         32.1878  -51.5553  -53.3118 C.3       3 UNK         0.0241 
     58 CB         32.8070  -52.9593  -53.2205 C.3       3 UNK        -0.1971 
     59 N          33.2412  -50.5399  -53.2107 N.am      3 UNK        -0.4139 
     60 C          33.0339  -49.2162  -53.1870 C.2       2 UNK         0.5016 
     61 O          31.9278  -48.6857  -53.3276 O.2       2 UNK        -0.5319 
     62 CA         34.2749  -48.3386  -52.9942 C.3       2 UNK         0.0286 
     63 CB         35.1138  -48.2659  -54.2831 C.3       2 UNK        -0.1963 
     64 N          33.8431  -46.9994  -52.6026 N.am      2 UNK        -0.4790 
     65 C          34.5510  -46.1425  -51.8584 C.2       1 UNK         0.5024 
     66 O          35.6937  -46.3818  -51.4605 O.2       1 UNK        -0.4888 
     67 H67        33.9574  -45.7105  -47.0978 H         1 UNK         0.0892 
     68 H68        34.1639  -44.0211  -47.5641 H         1 UNK         0.0892 
     69 H69        32.5538  -44.6440  -47.2008 H         1 UNK         0.0892 
     70 H70        34.5343  -43.8079  -49.7424 H         1 UNK         0.3107 
     71 H71        34.5917  -44.0414  -51.9131 H         1 UNK         0.0773 
     72 H72        31.7734  -45.2226  -51.7409 H         1 UNK         0.0680 
     73 H73        32.5392  -44.7003  -53.2120 H         1 UNK         0.0680 
     74 H74        33.7953  -42.0993  -53.1545 H         1 UNK         0.0650 
     75 H75        32.6588  -40.8066  -52.8855 H         1 UNK         0.0650 
     76 H76        33.4960  -43.6563  -55.0464 H         1 UNK         0.1397 
     77 H77        30.5141  -42.7377  -57.9824 H         1 UNK         0.1363 
     78 H78        30.6037  -40.5837  -54.2790 H         1 UNK         0.1355 
     79 H79        29.3150  -40.5617  -57.7433 H         1 UNK         0.0707 
     80 H80        29.3662  -39.7033  -56.2311 H         1 UNK         0.0707 
     81 H81        26.4108  -42.2340  -58.0665 H         1 UNK         0.1034 
     82 H82        28.1080  -42.5495  -58.2448 H         1 UNK         0.1034 
     83 H83        27.9148  -44.2435  -56.3216 H         1 UNK         0.0482 
     84 H84        24.8602  -45.5509  -54.9411 H         1 UNK         0.3460 
     85 H85        26.4640  -46.0321  -55.4770 H         1 UNK         0.3460 
     86 H86        26.2851  -45.5492  -58.2359 H         1 UNK         0.2989 
     87 H87        27.4755  -46.3523  -60.4578 H         1 UNK         0.0559 
     88 H88        29.9362  -46.2996  -60.7613 H         1 UNK         0.0848 
     89 H89        29.3154  -47.9290  -60.9474 H         1 UNK         0.0848 
     90 H90        30.1493  -47.4677  -59.4664 H         1 UNK         0.0848 
     91 H91        28.0862  -48.5940  -58.7191 H         1 UNK         0.3144 
     92 H92        24.5723  -49.1793  -58.1119 H         1 UNK         0.0727 
     93 H93        25.1395  -51.2518  -59.3219 H         1 UNK         0.0790 
     94 H94        26.6903  -50.5852  -59.8276 H         1 UNK         0.0790 
     95 H95        25.1893  -49.9042  -60.4435 H         1 UNK         0.0790 
     96 H96        27.2805  -49.6337  -57.0657 H         1 UNK         0.3215 
     97 H97        25.9188  -51.7973  -54.5204 H         1 UNK         0.0863 
     98 H98        27.9566  -53.0887  -55.0280 H         1 UNK         0.0808 
     99 H99        28.1711  -52.2263  -56.5514 H         1 UNK         0.0808 
    100 H100       26.7947  -53.2971  -56.3265 H         1 UNK         0.0808 
    101 H101       28.4744  -50.5876  -54.6958 H         1 UNK         0.3118 
    102 H102       27.6386  -47.5877  -52.9178 H         1 UNK         0.0546 
    103 H103       29.2505  -50.0870  -52.1700 H         1 UNK         0.0828 
    104 H104       27.9569  -49.3822  -51.2091 H         1 UNK         0.0828 
    105 H105       29.4445  -48.4830  -51.4683 H         1 UNK         0.0828 
    106 H106       30.1300  -48.5195  -53.9095 H         1 UNK         0.3005 
    107 H107       29.9178  -47.0464  -57.1628 H         1 UNK         0.1257 
    108 H108       31.4702  -46.4320  -54.6093 H         1 UNK         0.0775 
    109 H109       30.6504  -45.2934  -55.6327 H         1 UNK         0.0775 
    110 H110       33.5206  -44.1863  -57.9036 H         1 UNK         0.0840 
    111 H111       31.8908  -44.6326  -58.3282 H         1 UNK         0.0840 
    112 H112       31.8106  -48.7551  -55.8655 H         1 UNK         0.2987 
    113 H113       30.5510  -51.8065  -57.1624 H         1 UNK         0.0785 
    114 H114       31.7627  -50.8330  -59.1180 H         1 UNK         0.0798 
    115 H115       32.7996  -51.9209  -58.2108 H         1 UNK         0.0798 
    116 H116       32.9940  -50.1745  -58.0498 H         1 UNK         0.0798 
    117 H117       32.9453  -51.1448  -55.7406 H         1 UNK         0.3079 
    118 H118       31.5307  -51.4212  -52.4498 H         1 UNK         0.0794 
    119 H119       33.3301  -53.1017  -52.2746 H         1 UNK         0.0786 
    120 H120       33.5164  -53.1445  -54.0281 H         1 UNK         0.0786 
    121 H121       32.0367  -53.7298  -53.2802 H         1 UNK         0.0786 
    122 H122       34.1846  -50.8834  -53.1000 H         1 UNK         0.3032 
    123 H123       34.8732  -48.7731  -52.1897 H         1 UNK         0.1094 
    124 H124       34.5365  -47.8693  -55.1177 H         1 UNK         0.0794 
    125 H125       35.9891  -47.6295  -54.1521 H         1 UNK         0.0794 
    126 H126       35.4758  -49.2518  -54.5763 H         1 UNK         0.0794 
    127 H127       32.8780  -46.7970  -52.8311 H         1 UNK         0.3016 
@<TRIPOS>BOND
     1    1    2 1    
     2    1   67 1    
     3    1   68 1    
     4    1   69 1    
     5    2    3 2    
     6    2    4 am   BACKBONE|DICT|INTERRES
     7    4    5 1    
     8    4   70 1    
     9    5    6 1    
    10    5   65 1    
    11    5   71 1    
    12    6    7 1    
    13    6   72 1    
    14    6   73 1    
    15    7    8 1    
    16    8    9 1    
    17    8   74 1    
    18    8   75 1    
    19    9   10 ar   
    20    9   14 ar   
    21   10   11 ar   
    22   10   76 1    
    23   11   12 ar   
    24   11   48 1    
    25   12   13 ar   
    26   12   77 1    
    27   13   14 ar   
    28   13   15 1    
    29   14   78 1    
    30   15   16 1    
    31   15   79 1    
    32   15   80 1    
    33   16   17 1    
    34   17   18 1    
    35   17   81 1    
    36   17   82 1    
    37   18   19 1    
    38   18   22 1    
    39   18   83 1    
    40   19   20 am   BACKBONE|DICT|INTERRES
    41   19   21 2    
    42   20   84 1    
    43   20   85 1    
    44   22   23 am   BACKBONE|DICT|INTERRES
    45   22   86 1    
    46   23   24 2    
    47   23   25 1    
    48   25   26 1    
    49   25   27 1    
    50   25   87 1    
    51   26   88 1    
    52   26   89 1    
    53   26   90 1    
    54   27   28 am   BACKBONE|DICT|INTERRES
    55   27   91 1    
    56   28   29 2    
    57   28   30 1    
    58   30   31 1    
    59   30   32 1    
    60   30   92 1    
    61   31   93 1    
    62   31   94 1    
    63   31   95 1    
    64   32   33 am   BACKBONE|DICT|INTERRES
    65   32   96 1    
    66   33   34 2    
    67   33   35 1    
    68   35   36 1    
    69   35   37 1    
    70   35   97 1    
    71   36   98 1    
    72   36   99 1    
    73   36  100 1    
    74   37   38 am   BACKBONE|DICT|INTERRES
    75   37  101 1    
    76   38   39 2    
    77   38   40 1    
    78   40   41 1    
    79   40   42 1    
    80   40  102 1    
    81   41  103 1    
    82   41  104 1    
    83   41  105 1    
    84   42   43 am   BACKBONE|DICT|INTERRES
    85   42  106 1    
    86   43   44 2    
    87   43   45 1    
    88   45   46 1    
    89   45   49 1    
    90   45  107 1    
    91   46   47 1    
    92   46  108 1    
    93   46  109 1    
    94   47   48 1    
    95   48  110 1    
    96   48  111 1    
    97   49   50 am   BACKBONE|DICT|INTERRES
    98   49  112 1    
    99   50   51 2    
   100   50   52 1    
   101   52   53 1    
   102   52   54 1    
   103   52  113 1    
   104   53  114 1    
   105   53  115 1    
   106   53  116 1    
   107   54   55 am   BACKBONE|DICT|INTERRES
   108   54  117 1    
   109   55   56 2    
   110   55   57 1    
   111   57   58 1    
   112   57   59 1    
   113   57  118 1    
   114   58  119 1    
   115   58  120 1    
   116   58  121 1    
   117   59   60 am   BACKBONE|DICT|INTERRES
   118   59  122 1    
   119   60   61 2    
   120   60   62 1    
   121   62   63 1    
   122   62   64 1    
   123   62  123 1    
   124   63  124 1    
   125   63  125 1    
   126   63  126 1    
   127   64   65 am   BACKBONE|DICT|INTERRES
   128   64  127 1    
   129   65   66 2    
@<TRIPOS>SUBSTRUCTURE
     1 UNK         1 GROUP             0       ****    0 ROOT    
