@<TRIPOS>MOLECULE
3R134
127   129    1
SMALL
USER_CHARGES


@<TRIPOS>ATOM
      1 CA         28.4444  -46.3493  -49.7142 C.3       0 UNK        -0.1968 
      2 C          29.9417  -46.4789  -49.4741 C.2       0 UNK         0.4852 
      3 O          30.3515  -46.9862  -48.4285 O.2       0 UNK        -0.5359 
      4 N          30.7586  -46.0105  -50.4261 N.am      1 UNK        -0.4300 
      5 CA         32.2206  -46.0989  -50.3994 C.3       1 UNK         0.0863 
      6 C6         32.8697  -45.1107  -51.4030 C.3       11 UNK        -0.0953 
      7 S7         32.3541  -45.3651  -53.1346 S.3       11 UNK        -0.2369 
      8 C8         32.9725  -43.8369  -53.8972 C.3       11 UNK         0.0226 
      9 C9         32.6464  -43.8248  -55.3800 C.ar      11 UNK        -0.0699 
     10 C10        33.4860  -44.4812  -56.2845 C.ar      11 UNK        -0.0804 
     11 C11        33.1517  -44.5498  -57.6386 C.ar      11 UNK        -0.0871 
     12 C12        32.0001  -43.9025  -58.0961 C.ar      11 UNK        -0.1008 
     13 C13        31.1496  -43.2497  -57.1999 C.ar      11 UNK        -0.0735 
     14 C14        31.4791  -43.2084  -55.8420 C.ar      11 UNK        -0.0945 
     15 C15        29.8429  -42.6558  -57.6986 C.3       11 UNK         0.0169 
     16 S16        28.5791  -43.9581  -57.8106 S.3       11 UNK        -0.2669 
     17 C17        27.2271  -43.1124  -58.7018 C.3       11 UNK        -0.0850 
     18 CA         25.9109  -43.0195  -57.8835 C.3       10 UNK         0.0855 
     19 C          24.8038  -42.3192  -58.7256 C.2       10 UNK         0.5543 
     20 N          23.7506  -43.0089  -59.1459 N.am      10 UNK        -0.7343 
     21 O          24.9085  -41.1272  -59.0034 O.2       10 UNK        -0.5027 
     22 N          25.5476  -44.3237  -57.3033 N.am      10 UNK        -0.4495 
     23 C          24.6017  -44.5438  -56.3813 C.2       10 UNK         0.4903 
     24 O          23.8346  -43.6817  -55.9526 O.2       10 UNK        -0.4860 
     25 CA         24.5238  -45.9736  -55.8185 C.3       9 UNK         0.0227 
     26 CB         23.6658  -46.8689  -56.7266 C.3       9 UNK        -0.1964 
     27 N          25.8451  -46.5833  -55.6372 N.am      9 UNK        -0.4231 
     28 C          26.7592  -46.1737  -54.7413 C.2       9 UNK         0.5014 
     29 O          26.5634  -45.2559  -53.9422 O.2       9 UNK        -0.5270 
     30 CA         28.1182  -46.9033  -54.7438 C.3       8 UNK         0.0284 
     31 CB         28.8689  -46.8025  -53.3994 C.3       8 UNK        -0.1977 
     32 N          28.0240  -48.2940  -55.2012 N.am      8 UNK        -0.4342 
     33 C          27.3492  -49.3045  -54.6276 C.2       8 UNK         0.5039 
     34 O          26.7618  -49.2078  -53.5495 O.2       8 UNK        -0.5547 
     35 CA         27.3194  -50.6525  -55.3813 C.3       7 UNK         0.0281 
     36 CB         25.9855  -51.4055  -55.1880 C.3       7 UNK        -0.1963 
     37 N          27.6623  -50.5478  -56.8065 N.am      7 UNK        -0.4444 
     38 C          26.9948  -49.8818  -57.7628 C.2       7 UNK         0.5104 
     39 O          25.9382  -49.2785  -57.5685 O.2       7 UNK        -0.5100 
     40 CA         27.6904  -49.8118  -59.1419 C.3       6 UNK         0.0396 
     41 CB         27.0436  -48.7723  -60.0823 C.3       6 UNK        -0.1801 
     42 N          29.1403  -49.5772  -59.0266 N.am      6 UNK        -0.4747 
     43 C          29.7178  -48.5595  -58.3686 C.2       6 UNK         0.5012 
     44 O          29.0827  -47.6456  -57.8412 O.2       6 UNK        -0.5003 
     45 CA         31.2448  -48.6111  -58.1635 C.3       5 UNK         0.0782 
     46 C46        31.8897  -47.3004  -58.6780 C.3       11 UNK        -0.0868 
     47 S47        33.6862  -47.1785  -58.3651 S.3       11 UNK        -0.2515 
     48 C48        33.9890  -45.3898  -58.5930 C.3       11 UNK         0.0199 
     49 N          31.5351  -48.8592  -56.7445 N.am      5 UNK        -0.4607 
     50 C          31.1850  -49.9594  -56.0621 C.2       4 UNK         0.5031 
     51 O          30.5894  -50.9103  -56.5737 O.2       4 UNK        -0.5119 
     52 CA         31.5275  -49.9978  -54.5579 C.3       4 UNK         0.0263 
     53 CB         31.4939  -51.4279  -53.9798 C.3       4 UNK        -0.1967 
     54 N          32.7897  -49.3408  -54.1974 N.am      4 UNK        -0.4237 
     55 C          34.0143  -49.6030  -54.6857 C.2       3 UNK         0.4908 
     56 O          34.2464  -50.4041  -55.5914 O.2       3 UNK        -0.5102 
     57 CA         35.1918  -48.8553  -54.0334 C.3       3 UNK         0.0241 
     58 CB         35.4295  -47.5120  -54.7393 C.3       3 UNK        -0.1971 
     59 N          34.9986  -48.6208  -52.5998 N.am      3 UNK        -0.4139 
     60 C          34.9345  -49.5817  -51.6657 C.2       2 UNK         0.5016 
     61 O          35.1321  -50.7751  -51.8971 O.2       2 UNK        -0.5319 
     62 CA         34.5823  -49.1481  -50.2292 C.3       2 UNK         0.0286 
     63 CB         35.8414  -49.1422  -49.3466 C.3       2 UNK        -0.1963 
     64 N          33.9214  -47.8400  -50.1278 N.am      2 UNK        -0.4790 
     65 C          32.7113  -47.5454  -50.6249 C.2       1 UNK         0.5024 
     66 O          32.0299  -48.3410  -51.2775 O.2       1 UNK        -0.4888 
     67 H67        28.2218  -45.6937  -50.5559 H         1 UNK         0.0892 
     68 H68        28.0116  -47.3281  -49.9188 H         1 UNK         0.0892 
     69 H69        27.9556  -45.9378  -48.8315 H         1 UNK         0.0892 
     70 H70        30.3721  -45.6345  -51.2792 H         1 UNK         0.3107 
     71 H71        32.5409  -45.8040  -49.3975 H         1 UNK         0.0773 
     72 H72        32.6113  -44.0900  -51.1161 H         1 UNK         0.0680 
     73 H73        33.9587  -45.1634  -51.3515 H         1 UNK         0.0680 
     74 H74        32.5267  -42.9731  -53.4017 H         1 UNK         0.0650 
     75 H75        34.0510  -43.7642  -53.7481 H         1 UNK         0.0650 
     76 H76        34.3754  -44.9807  -55.9287 H         1 UNK         0.1397 
     77 H77        31.7261  -43.9647  -59.1407 H         1 UNK         0.1363 
     78 H78        30.8112  -42.7267  -55.1410 H         1 UNK         0.1355 
     79 H79        29.9951  -42.2014  -58.6789 H         1 UNK         0.0707 
     80 H80        29.4961  -41.8640  -57.0328 H         1 UNK         0.0707 
     81 H81        27.0551  -43.6586  -59.6314 H         1 UNK         0.1034 
     82 H82        27.5566  -42.1150  -58.9995 H         1 UNK         0.1034 
     83 H83        26.1026  -42.3573  -57.0370 H         1 UNK         0.0482 
     84 H84        23.6563  -43.9843  -58.9132 H         1 UNK         0.3460 
     85 H85        23.0388  -42.5459  -59.6887 H         1 UNK         0.3460 
     86 H86        26.1421  -45.0940  -57.5711 H         1 UNK         0.2989 
     87 H87        24.0422  -45.9215  -54.8398 H         1 UNK         0.0559 
     88 H88        23.5442  -47.8649  -56.2998 H         1 UNK         0.0848 
     89 H89        24.1074  -46.9849  -57.7174 H         1 UNK         0.0848 
     90 H90        22.6676  -46.4495  -56.8595 H         1 UNK         0.0848 
     91 H91        26.0726  -47.3662  -56.2383 H         1 UNK         0.3144 
     92 H92        28.7249  -46.3833  -55.4870 H         1 UNK         0.0727 
     93 H93        29.8451  -47.2833  -53.4505 H         1 UNK         0.0790 
     94 H94        28.3079  -47.2643  -52.5874 H         1 UNK         0.0790 
     95 H95        29.0401  -45.7599  -53.1298 H         1 UNK         0.0790 
     96 H96        28.4225  -48.4471  -56.1222 H         1 UNK         0.3215 
     97 H97        28.1059  -51.2595  -54.9304 H         1 UNK         0.0863 
     98 H98        25.9840  -52.3553  -55.7226 H         1 UNK         0.0808 
     99 H99        25.1346  -50.8205  -55.5383 H         1 UNK         0.0808 
    100 H100       25.8112  -51.6291  -54.1348 H         1 UNK         0.0808 
    101 H101       28.5683  -50.9371  -57.0521 H         1 UNK         0.3118 
    102 H102       27.5674  -50.7952  -59.5978 H         1 UNK         0.0546 
    103 H103       27.0883  -47.7648  -59.6674 H         1 UNK         0.0828 
    104 H104       25.9921  -49.0041  -60.2560 H         1 UNK         0.0828 
    105 H105       27.5356  -48.7563  -61.0546 H         1 UNK         0.0828 
    106 H106       29.7311  -50.3135  -59.3901 H         1 UNK         0.3005 
    107 H107       31.6559  -49.4443  -58.7373 H         1 UNK         0.1257 
    108 H108       31.7230  -47.1875  -59.7508 H         1 UNK         0.0775 
    109 H109       31.3942  -46.4550  -58.2027 H         1 UNK         0.0775 
    110 H110       35.0477  -45.1838  -58.4291 H         1 UNK         0.0840 
    111 H111       33.7815  -45.1199  -59.6297 H         1 UNK         0.0840 
    112 H112       32.0263  -48.1215  -56.2617 H         1 UNK         0.2987 
    113 H113       30.7408  -49.4302  -54.0600 H         1 UNK         0.0785 
    114 H114       31.7015  -51.4257  -52.9095 H         1 UNK         0.0798 
    115 H115       32.2288  -52.0734  -54.4621 H         1 UNK         0.0798 
    116 H116       30.5148  -51.8880  -54.1167 H         1 UNK         0.0798 
    117 H117       32.7215  -48.6826  -53.4305 H         1 UNK         0.3079 
    118 H118       36.0848  -49.4721  -54.1559 H         1 UNK         0.0794 
    119 H119       35.5863  -47.6541  -55.8097 H         1 UNK         0.0786 
    120 H120       36.3110  -47.0048  -54.3470 H         1 UNK         0.0786 
    121 H121       34.5755  -46.8463  -54.6196 H         1 UNK         0.0786 
    122 H122       34.8428  -47.6675  -52.3078 H         1 UNK         0.3032 
    123 H123       33.8916  -49.8977  -49.8361 H         1 UNK         0.1094 
    124 H124       36.3418  -50.1115  -49.3728 H         1 UNK         0.0794 
    125 H125       36.5635  -48.3946  -49.6774 H         1 UNK         0.0794 
    126 H126       35.5961  -48.9367  -48.3044 H         1 UNK         0.0794 
    127 H127       34.4216  -47.1262  -49.6160 H         1 UNK         0.3016 
@<TRIPOS>BOND
     1    1    2 1    
     2    1   67 1    
     3    1   68 1    
     4    1   69 1    
     5    2    3 2    
     6    2    4 am   BACKBONE|DICT|INTERRES
     7    4    5 1    
     8    4   70 1    
     9    5    6 1    
    10    5   65 1    
    11    5   71 1    
    12    6    7 1    
    13    6   72 1    
    14    6   73 1    
    15    7    8 1    
    16    8    9 1    
    17    8   74 1    
    18    8   75 1    
    19    9   10 ar   
    20    9   14 ar   
    21   10   11 ar   
    22   10   76 1    
    23   11   12 ar   
    24   11   48 1    
    25   12   13 ar   
    26   12   77 1    
    27   13   14 ar   
    28   13   15 1    
    29   14   78 1    
    30   15   16 1    
    31   15   79 1    
    32   15   80 1    
    33   16   17 1    
    34   17   18 1    
    35   17   81 1    
    36   17   82 1    
    37   18   19 1    
    38   18   22 1    
    39   18   83 1    
    40   19   20 am   BACKBONE|DICT|INTERRES
    41   19   21 2    
    42   20   84 1    
    43   20   85 1    
    44   22   23 am   BACKBONE|DICT|INTERRES
    45   22   86 1    
    46   23   24 2    
    47   23   25 1    
    48   25   26 1    
    49   25   27 1    
    50   25   87 1    
    51   26   88 1    
    52   26   89 1    
    53   26   90 1    
    54   27   28 am   BACKBONE|DICT|INTERRES
    55   27   91 1    
    56   28   29 2    
    57   28   30 1    
    58   30   31 1    
    59   30   32 1    
    60   30   92 1    
    61   31   93 1    
    62   31   94 1    
    63   31   95 1    
    64   32   33 am   BACKBONE|DICT|INTERRES
    65   32   96 1    
    66   33   34 2    
    67   33   35 1    
    68   35   36 1    
    69   35   37 1    
    70   35   97 1    
    71   36   98 1    
    72   36   99 1    
    73   36  100 1    
    74   37   38 am   BACKBONE|DICT|INTERRES
    75   37  101 1    
    76   38   39 2    
    77   38   40 1    
    78   40   41 1    
    79   40   42 1    
    80   40  102 1    
    81   41  103 1    
    82   41  104 1    
    83   41  105 1    
    84   42   43 am   BACKBONE|DICT|INTERRES
    85   42  106 1    
    86   43   44 2    
    87   43   45 1    
    88   45   46 1    
    89   45   49 1    
    90   45  107 1    
    91   46   47 1    
    92   46  108 1    
    93   46  109 1    
    94   47   48 1    
    95   48  110 1    
    96   48  111 1    
    97   49   50 am   BACKBONE|DICT|INTERRES
    98   49  112 1    
    99   50   51 2    
   100   50   52 1    
   101   52   53 1    
   102   52   54 1    
   103   52  113 1    
   104   53  114 1    
   105   53  115 1    
   106   53  116 1    
   107   54   55 am   BACKBONE|DICT|INTERRES
   108   54  117 1    
   109   55   56 2    
   110   55   57 1    
   111   57   58 1    
   112   57   59 1    
   113   57  118 1    
   114   58  119 1    
   115   58  120 1    
   116   58  121 1    
   117   59   60 am   BACKBONE|DICT|INTERRES
   118   59  122 1    
   119   60   61 2    
   120   60   62 1    
   121   62   63 1    
   122   62   64 1    
   123   62  123 1    
   124   63  124 1    
   125   63  125 1    
   126   63  126 1    
   127   64   65 am   BACKBONE|DICT|INTERRES
   128   64  127 1    
   129   65   66 2    
@<TRIPOS>SUBSTRUCTURE
     1 UNK         1 GROUP             0       ****    0 ROOT    
