@<TRIPOS>MOLECULE
3R134
127   129    1
SMALL
USER_CHARGES


@<TRIPOS>ATOM
      1 CA         29.9009  -44.4451  -51.3860 C.3       0 UNK        -0.1968 
      2 C          31.1956  -44.4847  -50.5915 C.2       0 UNK         0.4852 
      3 O          31.2136  -44.0464  -49.4403 O.2       0 UNK        -0.5359 
      4 N          32.2735  -44.9985  -51.1974 N.am      1 UNK        -0.4300 
      5 CA         33.6018  -45.0758  -50.5854 C.3       1 UNK         0.0863 
      6 C6         34.4612  -43.8095  -50.8474 C.3       11 UNK        -0.0953 
      7 S7         34.8210  -43.4523  -52.6049 S.3       11 UNK        -0.2369 
      8 C8         33.4148  -42.4001  -53.1142 C.3       11 UNK         0.0226 
      9 C9         32.5616  -42.9958  -54.2364 C.ar      11 UNK        -0.0699 
     10 C10        33.1298  -43.7676  -55.2597 C.ar      11 UNK        -0.0804 
     11 C11        32.3439  -44.2598  -56.3052 C.ar      11 UNK        -0.0871 
     12 C12        30.9781  -43.9730  -56.3292 C.ar      11 UNK        -0.1008 
     13 C13        30.3951  -43.1894  -55.3310 C.ar      11 UNK        -0.0735 
     14 C14        31.1915  -42.7076  -54.2860 C.ar      11 UNK        -0.0945 
     15 C15        28.9185  -42.8243  -55.4175 C.3       11 UNK         0.0169 
     16 S16        27.8933  -43.9007  -54.3730 S.3       11 UNK        -0.2669 
     17 C17        26.2084  -43.3966  -54.8680 C.3       11 UNK        -0.0850 
     18 CA         25.3792  -44.5741  -55.4629 C.3       10 UNK         0.0855 
     19 C          23.8731  -44.2205  -55.6627 C.2       10 UNK         0.5543 
     20 N          23.1890  -44.7799  -56.6545 N.am      10 UNK        -0.7343 
     21 O          23.3033  -43.4530  -54.8905 O.2       10 UNK        -0.5027 
     22 N          26.0156  -45.2104  -56.6310 N.am      10 UNK        -0.4495 
     23 C          26.2428  -44.6303  -57.8171 C.2       10 UNK         0.4903 
     24 O          25.9763  -43.4544  -58.0668 O.2       10 UNK        -0.4860 
     25 CA         26.8708  -45.4896  -58.9280 C.3       9 UNK         0.0227 
     26 CB         28.3686  -45.1812  -59.0654 C.3       9 UNK        -0.1964 
     27 N          26.7012  -46.9361  -58.7667 N.am      9 UNK        -0.4231 
     28 C          25.5473  -47.5999  -58.9234 C.2       9 UNK         0.5014 
     29 O          24.4597  -47.0481  -59.0963 O.2       9 UNK        -0.5270 
     30 CA         25.6213  -49.1347  -58.8999 C.3       8 UNK         0.0284 
     31 CB         26.2646  -49.6665  -60.1920 C.3       8 UNK        -0.1977 
     32 N          26.3889  -49.6058  -57.7473 N.am      8 UNK        -0.4342 
     33 C          25.8704  -50.2482  -56.6914 C.2       8 UNK         0.5039 
     34 O          24.6974  -50.6185  -56.6201 O.2       8 UNK        -0.5547 
     35 CA         26.8067  -50.5137  -55.4939 C.3       7 UNK         0.0281 
     36 CB         27.3938  -51.9319  -55.5783 C.3       7 UNK        -0.1963 
     37 N          27.9043  -49.5511  -55.3582 N.am      7 UNK        -0.4444 
     38 C          27.7658  -48.2220  -55.2585 C.2       7 UNK         0.5104 
     39 O          26.6793  -47.6502  -55.1933 O.2       7 UNK        -0.5100 
     40 CA         29.0483  -47.3783  -55.3166 C.3       6 UNK         0.0396 
     41 CB         29.5633  -47.0826  -53.9031 C.3       6 UNK        -0.1801 
     42 N          30.1302  -47.9710  -56.1058 N.am      6 UNK        -0.4747 
     43 C          30.0779  -48.3190  -57.4000 C.2       6 UNK         0.5012 
     44 O          29.0543  -48.2756  -58.0852 O.2       6 UNK        -0.5003 
     45 CA         31.3934  -48.8301  -58.0154 C.3       5 UNK         0.0782 
     46 C46        32.3393  -47.6691  -58.4183 C.3       11 UNK        -0.0868 
     47 S47        33.1263  -46.8207  -56.9981 S.3       11 UNK        -0.2515 
     48 C48        32.9771  -45.0598  -57.4339 C.3       11 UNK         0.0199 
     49 N          32.0454  -49.7960  -57.1273 N.am      5 UNK        -0.4607 
     50 C          31.6358  -51.0584  -56.9562 C.2       4 UNK         0.5031 
     51 O          30.7219  -51.5773  -57.5970 O.2       4 UNK        -0.5119 
     52 CA         32.3536  -51.8691  -55.8659 C.3       4 UNK         0.0263 
     53 CB         33.7234  -52.3594  -56.3625 C.3       4 UNK        -0.1967 
     54 N          32.5218  -51.1396  -54.6047 N.am      4 UNK        -0.4237 
     55 C          31.5308  -50.6585  -53.8433 C.2       3 UNK         0.4908 
     56 O          30.3432  -50.6939  -54.1643 O.2       3 UNK        -0.5102 
     57 CA         31.9165  -50.0341  -52.4902 C.3       3 UNK         0.0241 
     58 CB         32.2643  -51.1244  -51.4573 C.3       3 UNK        -0.1971 
     59 N          32.9591  -48.9984  -52.5559 N.am      3 UNK        -0.4139 
     60 C          34.2561  -49.1222  -52.8755 C.2       2 UNK         0.5016 
     61 O          34.7729  -50.1804  -53.2383 O.2       2 UNK        -0.5319 
     62 CA         35.1305  -47.8563  -52.7898 C.3       2 UNK         0.0286 
     63 CB         35.7248  -47.5017  -54.1619 C.3       2 UNK        -0.1963 
     64 N          34.4310  -46.6777  -52.2603 N.am      2 UNK        -0.4790 
     65 C          34.3018  -46.3967  -50.9551 C.2       1 UNK         0.5024 
     66 O          34.6865  -47.1496  -50.0598 O.2       1 UNK        -0.4888 
     67 H67        29.4150  -43.4767  -51.2710 H         1 UNK         0.0892 
     68 H68        30.0794  -44.5999  -52.4478 H         1 UNK         0.0892 
     69 H69        29.2155  -45.2154  -51.0344 H         1 UNK         0.0892 
     70 H70        32.1993  -45.3355  -52.1451 H         1 UNK         0.3107 
     71 H71        33.4691  -45.1346  -49.5024 H         1 UNK         0.0773 
     72 H72        35.4167  -43.9020  -50.3281 H         1 UNK         0.0680 
     73 H73        33.9792  -42.9390  -50.4002 H         1 UNK         0.0680 
     74 H74        33.8103  -41.4433  -53.4565 H         1 UNK         0.0650 
     75 H75        32.7898  -42.1790  -52.2481 H         1 UNK         0.0650 
     76 H76        34.1908  -43.9746  -55.2599 H         1 UNK         0.1397 
     77 H77        30.3742  -44.3353  -57.1451 H         1 UNK         0.1363 
     78 H78        30.7427  -42.0907  -53.5194 H         1 UNK         0.1355 
     79 H79        28.7751  -41.7861  -55.1146 H         1 UNK         0.0707 
     80 H80        28.5746  -42.8944  -56.4509 H         1 UNK         0.0707 
     81 H81        26.2517  -42.5628  -55.5700 H         1 UNK         0.1034 
     82 H82        25.7208  -43.0040  -53.9740 H         1 UNK         0.1034 
     83 H83        25.3600  -45.3526  -54.6999 H         1 UNK         0.0482 
     84 H84        22.2135  -44.5558  -56.7713 H         1 UNK         0.3460 
     85 H85        23.6430  -45.4161  -57.2937 H         1 UNK         0.3460 
     86 H86        26.2645  -46.1835  -56.4927 H         1 UNK         0.2989 
     87 H87        26.3842  -45.2020  -59.8624 H         1 UNK         0.0559 
     88 H88        28.5502  -44.1082  -59.1432 H         1 UNK         0.0848 
     89 H89        28.7894  -45.6473  -59.9565 H         1 UNK         0.0848 
     90 H90        28.9219  -45.5514  -58.2047 H         1 UNK         0.0848 
     91 H91        27.5557  -47.4668  -58.6070 H         1 UNK         0.3144 
     92 H92        24.5968  -49.5104  -58.8580 H         1 UNK         0.0727 
     93 H93        26.2498  -50.7562  -60.2185 H         1 UNK         0.0790 
     94 H94        27.3022  -49.3453  -60.2944 H         1 UNK         0.0790 
     95 H95        25.7240  -49.3139  -61.0715 H         1 UNK         0.0790 
     96 H96        27.3653  -49.3321  -57.7088 H         1 UNK         0.3215 
     97 H97        26.2009  -50.4438  -54.5883 H         1 UNK         0.0863 
     98 H98        27.9713  -52.1759  -54.6863 H         1 UNK         0.0808 
     99 H99        28.0504  -52.0444  -56.4423 H         1 UNK         0.0808 
    100 H100       26.6039  -52.6791  -55.6667 H         1 UNK         0.0808 
    101 H101       28.8440  -49.9342  -55.3130 H         1 UNK         0.3118 
    102 H102       28.7919  -46.4295  -55.7913 H         1 UNK         0.0546 
    103 H103       28.7930  -46.5936  -53.3059 H         1 UNK         0.0828 
    104 H104       30.4283  -46.4205  -53.9319 H         1 UNK         0.0828 
    105 H105       29.8448  -47.9941  -53.3795 H         1 UNK         0.0828 
    106 H106       31.0240  -48.0528  -55.6455 H         1 UNK         0.3005 
    107 H107       31.1173  -49.3539  -58.9341 H         1 UNK         0.1257 
    108 H108       33.1408  -48.0614  -59.0459 H         1 UNK         0.0775 
    109 H109       31.8045  -46.9546  -59.0461 H         1 UNK         0.0775 
    110 H110       33.9719  -44.6683  -57.6519 H         1 UNK         0.0840 
    111 H111       32.4010  -44.9275  -58.3501 H         1 UNK         0.0840 
    112 H112       32.8136  -49.4480  -56.5723 H         1 UNK         0.2987 
    113 H113       31.7363  -52.7445  -55.6533 H         1 UNK         0.0785 
    114 H114       34.1903  -53.0277  -55.6387 H         1 UNK         0.0798 
    115 H115       34.4096  -51.5310  -56.5433 H         1 UNK         0.0798 
    116 H116       33.6254  -52.9136  -57.2971 H         1 UNK         0.0798 
    117 H117       33.4694  -51.0230  -54.2500 H         1 UNK         0.3079 
    118 H118       31.0255  -49.5283  -52.1168 H         1 UNK         0.0794 
    119 H119       31.4416  -51.8325  -51.3483 H         1 UNK         0.0786 
    120 H120       32.4511  -50.6920  -50.4743 H         1 UNK         0.0786 
    121 H121       33.1468  -51.6974  -51.7432 H         1 UNK         0.0786 
    122 H122       32.6581  -48.0723  -52.2924 H         1 UNK         0.3032 
    123 H123       35.9616  -48.1025  -52.1244 H         1 UNK         0.1094 
    124 H124       34.9508  -47.2203  -54.8727 H         1 UNK         0.0794 
    125 H125       36.4264  -46.6707  -54.0863 H         1 UNK         0.0794 
    126 H126       36.2699  -48.3450  -54.5883 H         1 UNK         0.0794 
    127 H127       34.1571  -45.9766  -52.9348 H         1 UNK         0.3016 
@<TRIPOS>BOND
     1    1    2 1    
     2    1   67 1    
     3    1   68 1    
     4    1   69 1    
     5    2    3 2    
     6    2    4 am   BACKBONE|DICT|INTERRES
     7    4    5 1    
     8    4   70 1    
     9    5    6 1    
    10    5   65 1    
    11    5   71 1    
    12    6    7 1    
    13    6   72 1    
    14    6   73 1    
    15    7    8 1    
    16    8    9 1    
    17    8   74 1    
    18    8   75 1    
    19    9   10 ar   
    20    9   14 ar   
    21   10   11 ar   
    22   10   76 1    
    23   11   12 ar   
    24   11   48 1    
    25   12   13 ar   
    26   12   77 1    
    27   13   14 ar   
    28   13   15 1    
    29   14   78 1    
    30   15   16 1    
    31   15   79 1    
    32   15   80 1    
    33   16   17 1    
    34   17   18 1    
    35   17   81 1    
    36   17   82 1    
    37   18   19 1    
    38   18   22 1    
    39   18   83 1    
    40   19   20 am   BACKBONE|DICT|INTERRES
    41   19   21 2    
    42   20   84 1    
    43   20   85 1    
    44   22   23 am   BACKBONE|DICT|INTERRES
    45   22   86 1    
    46   23   24 2    
    47   23   25 1    
    48   25   26 1    
    49   25   27 1    
    50   25   87 1    
    51   26   88 1    
    52   26   89 1    
    53   26   90 1    
    54   27   28 am   BACKBONE|DICT|INTERRES
    55   27   91 1    
    56   28   29 2    
    57   28   30 1    
    58   30   31 1    
    59   30   32 1    
    60   30   92 1    
    61   31   93 1    
    62   31   94 1    
    63   31   95 1    
    64   32   33 am   BACKBONE|DICT|INTERRES
    65   32   96 1    
    66   33   34 2    
    67   33   35 1    
    68   35   36 1    
    69   35   37 1    
    70   35   97 1    
    71   36   98 1    
    72   36   99 1    
    73   36  100 1    
    74   37   38 am   BACKBONE|DICT|INTERRES
    75   37  101 1    
    76   38   39 2    
    77   38   40 1    
    78   40   41 1    
    79   40   42 1    
    80   40  102 1    
    81   41  103 1    
    82   41  104 1    
    83   41  105 1    
    84   42   43 am   BACKBONE|DICT|INTERRES
    85   42  106 1    
    86   43   44 2    
    87   43   45 1    
    88   45   46 1    
    89   45   49 1    
    90   45  107 1    
    91   46   47 1    
    92   46  108 1    
    93   46  109 1    
    94   47   48 1    
    95   48  110 1    
    96   48  111 1    
    97   49   50 am   BACKBONE|DICT|INTERRES
    98   49  112 1    
    99   50   51 2    
   100   50   52 1    
   101   52   53 1    
   102   52   54 1    
   103   52  113 1    
   104   53  114 1    
   105   53  115 1    
   106   53  116 1    
   107   54   55 am   BACKBONE|DICT|INTERRES
   108   54  117 1    
   109   55   56 2    
   110   55   57 1    
   111   57   58 1    
   112   57   59 1    
   113   57  118 1    
   114   58  119 1    
   115   58  120 1    
   116   58  121 1    
   117   59   60 am   BACKBONE|DICT|INTERRES
   118   59  122 1    
   119   60   61 2    
   120   60   62 1    
   121   62   63 1    
   122   62   64 1    
   123   62  123 1    
   124   63  124 1    
   125   63  125 1    
   126   63  126 1    
   127   64   65 am   BACKBONE|DICT|INTERRES
   128   64  127 1    
   129   65   66 2    
@<TRIPOS>SUBSTRUCTURE
     1 UNK         1 GROUP             0       ****    0 ROOT    
