@<TRIPOS>MOLECULE
3R134
127   129    1
SMALL
USER_CHARGES


@<TRIPOS>ATOM
      1 CA         35.6223  -45.4784  -55.7851 C.3       0 UNK        -0.1968 
      2 C          34.7306  -45.5892  -54.5583 C.2       0 UNK         0.4852 
      3 O          34.0846  -46.6225  -54.3693 O.2       0 UNK        -0.5359 
      4 N          34.6944  -44.5414  -53.7226 N.am      1 UNK        -0.4300 
      5 CA         33.8726  -44.4608  -52.5122 C.3       1 UNK         0.0863 
      6 C6         33.9002  -43.0382  -51.8925 C.3       11 UNK        -0.0953 
      7 S7         32.5456  -42.7451  -50.7007 S.3       11 UNK        -0.2369 
      8 C8         31.2491  -42.0130  -51.7568 C.3       11 UNK         0.0226 
      9 C9         30.8291  -42.9747  -52.8572 C.ar      11 UNK        -0.0699 
     10 C10        30.1466  -44.1509  -52.5332 C.ar      11 UNK        -0.0804 
     11 C11        29.8753  -45.1025  -53.5187 C.ar      11 UNK        -0.0871 
     12 C12        30.2621  -44.8600  -54.8396 C.ar      11 UNK        -0.1008 
     13 C13        30.9189  -43.6756  -55.1796 C.ar      11 UNK        -0.0735 
     14 C14        31.1943  -42.7320  -54.1853 C.ar      11 UNK        -0.0945 
     15 C15        31.3703  -43.4325  -56.6107 C.3       11 UNK         0.0169 
     16 S16        29.9970  -42.8567  -57.6554 S.3       11 UNK        -0.2669 
     17 C17        29.5309  -44.3811  -58.5474 C.3       11 UNK        -0.0850 
     18 CA         27.9995  -44.4547  -58.8142 C.3       10 UNK         0.0855 
     19 C          27.6023  -45.4614  -59.9381 C.2       10 UNK         0.5543 
     20 N          26.3507  -45.9024  -59.9964 N.am      10 UNK        -0.7343 
     21 O          28.4167  -45.8239  -60.7836 O.2       10 UNK        -0.5027 
     22 N          27.1957  -44.5989  -57.5881 N.am      10 UNK        -0.4495 
     23 C          27.1693  -45.6698  -56.7834 C.2       10 UNK         0.4903 
     24 O          27.9415  -46.6247  -56.8713 O.2       10 UNK        -0.4860 
     25 CA         26.0679  -45.7050  -55.7094 C.3       9 UNK         0.0227 
     26 CB         25.7035  -44.3111  -55.1530 C.3       9 UNK        -0.1964 
     27 N          24.8755  -46.4290  -56.1698 N.am      9 UNK        -0.4231 
     28 C          24.0927  -46.1427  -57.2225 C.2       9 UNK         0.5014 
     29 O          24.2843  -45.1885  -57.9793 O.2       9 UNK        -0.5270 
     30 CA         22.9159  -47.1000  -57.4897 C.3       8 UNK         0.0284 
     31 CB         22.2838  -46.8872  -58.8791 C.3       8 UNK        -0.1977 
     32 N          23.3553  -48.4910  -57.3782 N.am      8 UNK        -0.4342 
     33 C          23.0229  -49.3430  -56.4000 C.2       8 UNK         0.5039 
     34 O          22.2416  -49.0715  -55.4879 O.2       8 UNK        -0.5547 
     35 CA         23.7016  -50.7277  -56.4251 C.3       7 UNK         0.0281 
     36 CB         22.7873  -51.7609  -57.1035 C.3       7 UNK        -0.1963 
     37 N          25.0155  -50.7338  -57.0836 N.am      7 UNK        -0.4444 
     38 C          26.0819  -50.0441  -56.6560 C.2       7 UNK         0.5104 
     39 O          26.0756  -49.3499  -55.6350 O.2       7 UNK        -0.5100 
     40 CA         27.3362  -50.1091  -57.5446 C.3       6 UNK         0.0396 
     41 CB         27.0782  -49.4220  -58.8970 C.3       6 UNK        -0.1801 
     42 N          28.4297  -49.4078  -56.8802 N.am      6 UNK        -0.4747 
     43 C          29.4137  -49.9817  -56.1834 C.2       6 UNK         0.5012 
     44 O          29.6314  -51.1960  -56.1585 O.2       6 UNK        -0.5003 
     45 CA         30.2574  -49.0336  -55.3125 C.3       5 UNK         0.0782 
     46 C46        29.7427  -49.0627  -53.8530 C.3       11 UNK        -0.0868 
     47 S47        30.4473  -47.7067  -52.8650 S.3       11 UNK        -0.2515 
     48 C48        29.2023  -46.4109  -53.1523 C.3       11 UNK         0.0199 
     49 N          31.6806  -49.3661  -55.3963 N.am      5 UNK        -0.4607 
     50 C          32.4459  -49.1597  -56.4744 C.2       4 UNK         0.5031 
     51 O          32.0429  -48.6095  -57.5005 O.2       4 UNK        -0.5119 
     52 CA         33.9028  -49.6376  -56.3750 C.3       4 UNK         0.0263 
     53 CB         34.8007  -49.0803  -57.4970 C.3       4 UNK        -0.1967 
     54 N          34.4643  -49.2733  -55.0743 N.am      4 UNK        -0.4237 
     55 C          35.2728  -50.0471  -54.3394 C.2       3 UNK         0.4908 
     56 O          35.6103  -51.1853  -54.6675 O.2       3 UNK        -0.5102 
     57 CA         35.8012  -49.4723  -53.0172 C.3       3 UNK         0.0241 
     58 CB         37.0908  -48.6676  -53.2524 C.3       3 UNK        -0.1971 
     59 N          34.8154  -48.6242  -52.3410 N.am      3 UNK        -0.4139 
     60 C          34.4624  -48.7392  -51.0522 C.2       2 UNK         0.5016 
     61 O          34.9116  -49.6060  -50.2995 O.2       2 UNK        -0.5319 
     62 CA         33.4286  -47.7320  -50.5025 C.3       2 UNK         0.0286 
     63 CB         33.6522  -47.4024  -49.0108 C.3       2 UNK        -0.1963 
     64 N          33.3100  -46.5041  -51.2991 N.am      2 UNK        -0.4790 
     65 C          34.2473  -45.5659  -51.5054 C.2       1 UNK         0.5024 
     66 O          35.3674  -45.5683  -50.9909 O.2       1 UNK        -0.4888 
     67 H67        36.2183  -44.5661  -55.7758 H         1 UNK         0.0892 
     68 H68        36.3030  -46.3276  -55.8352 H         1 UNK         0.0892 
     69 H69        35.0125  -45.4775  -56.6881 H         1 UNK         0.0892 
     70 H70        35.2757  -43.7377  -53.9113 H         1 UNK         0.3107 
     71 H71        32.8581  -44.6638  -52.8513 H         1 UNK         0.0773 
     72 H72        34.8523  -42.8512  -51.3925 H         1 UNK         0.0680 
     73 H73        33.8259  -42.2841  -52.6775 H         1 UNK         0.0680 
     74 H74        31.6110  -41.0720  -52.1739 H         1 UNK         0.0650 
     75 H75        30.3836  -41.7666  -51.1403 H         1 UNK         0.0650 
     76 H76        29.8760  -44.3467  -51.5044 H         1 UNK         0.1397 
     77 H77        30.0669  -45.5997  -55.6024 H         1 UNK         0.1363 
     78 H78        31.7279  -41.8262  -54.4389 H         1 UNK         0.1355 
     79 H79        32.1582  -42.6780  -56.6312 H         1 UNK         0.0707 
     80 H80        31.8164  -44.3388  -57.0233 H         1 UNK         0.0707 
     81 H81        29.8706  -45.2658  -58.0085 H         1 UNK         0.1034 
     82 H82        30.0884  -44.3732  -59.4855 H         1 UNK         0.1034 
     83 H83        27.7092  -43.4891  -59.2299 H         1 UNK         0.0482 
     84 H84        25.6622  -45.5827  -59.3225 H         1 UNK         0.3460 
     85 H85        26.0843  -46.5313  -60.7361 H         1 UNK         0.3460 
     86 H86        26.4836  -43.8961  -57.4534 H         1 UNK         0.2989 
     87 H87        26.4643  -46.2894  -54.8793 H         1 UNK         0.0559 
     88 H88        25.1943  -43.6852  -55.8861 H         1 UNK         0.0848 
     89 H89        26.5968  -43.7764  -54.8257 H         1 UNK         0.0848 
     90 H90        25.0477  -44.3976  -54.2868 H         1 UNK         0.0848 
     91 H91        24.6768  -47.2834  -55.6652 H         1 UNK         0.3144 
     92 H92        22.1548  -46.8778  -56.7390 H         1 UNK         0.0727 
     93 H93        21.4473  -47.5671  -59.0412 H         1 UNK         0.0790 
     94 H94        23.0058  -47.0463  -59.6810 H         1 UNK         0.0790 
     95 H95        21.8977  -45.8722  -58.9830 H         1 UNK         0.0790 
     96 H96        24.0199  -48.8060  -58.0702 H         1 UNK         0.3215 
     97 H97        23.8509  -51.0325  -55.3868 H         1 UNK         0.0863 
     98 H98        22.6176  -51.5237  -58.1545 H         1 UNK         0.0808 
     99 H99        21.8115  -51.7967  -56.6167 H         1 UNK         0.0808 
    100 H100       23.2104  -52.7641  -57.0479 H         1 UNK         0.0808 
    101 H101       25.1007  -51.2928  -57.9210 H         1 UNK         0.3118 
    102 H102       27.5946  -51.1561  -57.7155 H         1 UNK         0.0546 
    103 H103       27.9837  -49.3906  -59.5034 H         1 UNK         0.0828 
    104 H104       26.7344  -48.3957  -58.7652 H         1 UNK         0.0828 
    105 H105       26.3224  -49.9505  -59.4784 H         1 UNK         0.0828 
    106 H106       28.2984  -48.3993  -56.8059 H         1 UNK         0.3005 
    107 H107       30.1337  -48.0215  -55.7049 H         1 UNK         0.1257 
    108 H108       29.9990  -50.0097  -53.3741 H         1 UNK         0.0775 
    109 H109       28.6528  -48.9977  -53.8122 H         1 UNK         0.0775 
    110 H110       28.5275  -46.7000  -53.9572 H         1 UNK         0.0840 
    111 H111       28.5849  -46.2959  -52.2600 H         1 UNK         0.0840 
    112 H112       32.0804  -49.8333  -54.5967 H         1 UNK         0.2987 
    113 H113       33.8688  -50.7246  -56.4737 H         1 UNK         0.0785 
    114 H114       35.8211  -49.4541  -57.4112 H         1 UNK         0.0798 
    115 H115       34.4304  -49.3755  -58.4796 H         1 UNK         0.0798 
    116 H116       34.8391  -47.9909  -57.4742 H         1 UNK         0.0798 
    117 H117       34.2427  -48.3277  -54.7599 H         1 UNK         0.3079 
    118 H118       36.0515  -50.3294  -52.3883 H         1 UNK         0.0794 
    119 H119       37.5219  -48.3310  -52.3093 H         1 UNK         0.0786 
    120 H120       36.9115  -47.7871  -53.8692 H         1 UNK         0.0786 
    121 H121       37.8449  -49.2738  -53.7563 H         1 UNK         0.0786 
    122 H122       34.4022  -47.8757  -52.8897 H         1 UNK         0.3032 
    123 H123       32.4638  -48.2356  -50.5812 H         1 UNK         0.1094 
    124 H124       34.6398  -46.9763  -48.8322 H         1 UNK         0.0794 
    125 H125       32.9091  -46.6937  -48.6453 H         1 UNK         0.0794 
    126 H126       33.5714  -48.2991  -48.3951 H         1 UNK         0.0794 
    127 H127       32.4419  -46.4187  -51.8140 H         1 UNK         0.3016 
@<TRIPOS>BOND
     1    1    2 1    
     2    1   67 1    
     3    1   68 1    
     4    1   69 1    
     5    2    3 2    
     6    2    4 am   BACKBONE|DICT|INTERRES
     7    4    5 1    
     8    4   70 1    
     9    5    6 1    
    10    5   65 1    
    11    5   71 1    
    12    6    7 1    
    13    6   72 1    
    14    6   73 1    
    15    7    8 1    
    16    8    9 1    
    17    8   74 1    
    18    8   75 1    
    19    9   10 ar   
    20    9   14 ar   
    21   10   11 ar   
    22   10   76 1    
    23   11   12 ar   
    24   11   48 1    
    25   12   13 ar   
    26   12   77 1    
    27   13   14 ar   
    28   13   15 1    
    29   14   78 1    
    30   15   16 1    
    31   15   79 1    
    32   15   80 1    
    33   16   17 1    
    34   17   18 1    
    35   17   81 1    
    36   17   82 1    
    37   18   19 1    
    38   18   22 1    
    39   18   83 1    
    40   19   20 am   BACKBONE|DICT|INTERRES
    41   19   21 2    
    42   20   84 1    
    43   20   85 1    
    44   22   23 am   BACKBONE|DICT|INTERRES
    45   22   86 1    
    46   23   24 2    
    47   23   25 1    
    48   25   26 1    
    49   25   27 1    
    50   25   87 1    
    51   26   88 1    
    52   26   89 1    
    53   26   90 1    
    54   27   28 am   BACKBONE|DICT|INTERRES
    55   27   91 1    
    56   28   29 2    
    57   28   30 1    
    58   30   31 1    
    59   30   32 1    
    60   30   92 1    
    61   31   93 1    
    62   31   94 1    
    63   31   95 1    
    64   32   33 am   BACKBONE|DICT|INTERRES
    65   32   96 1    
    66   33   34 2    
    67   33   35 1    
    68   35   36 1    
    69   35   37 1    
    70   35   97 1    
    71   36   98 1    
    72   36   99 1    
    73   36  100 1    
    74   37   38 am   BACKBONE|DICT|INTERRES
    75   37  101 1    
    76   38   39 2    
    77   38   40 1    
    78   40   41 1    
    79   40   42 1    
    80   40  102 1    
    81   41  103 1    
    82   41  104 1    
    83   41  105 1    
    84   42   43 am   BACKBONE|DICT|INTERRES
    85   42  106 1    
    86   43   44 2    
    87   43   45 1    
    88   45   46 1    
    89   45   49 1    
    90   45  107 1    
    91   46   47 1    
    92   46  108 1    
    93   46  109 1    
    94   47   48 1    
    95   48  110 1    
    96   48  111 1    
    97   49   50 am   BACKBONE|DICT|INTERRES
    98   49  112 1    
    99   50   51 2    
   100   50   52 1    
   101   52   53 1    
   102   52   54 1    
   103   52  113 1    
   104   53  114 1    
   105   53  115 1    
   106   53  116 1    
   107   54   55 am   BACKBONE|DICT|INTERRES
   108   54  117 1    
   109   55   56 2    
   110   55   57 1    
   111   57   58 1    
   112   57   59 1    
   113   57  118 1    
   114   58  119 1    
   115   58  120 1    
   116   58  121 1    
   117   59   60 am   BACKBONE|DICT|INTERRES
   118   59  122 1    
   119   60   61 2    
   120   60   62 1    
   121   62   63 1    
   122   62   64 1    
   123   62  123 1    
   124   63  124 1    
   125   63  125 1    
   126   63  126 1    
   127   64   65 am   BACKBONE|DICT|INTERRES
   128   64  127 1    
   129   65   66 2    
@<TRIPOS>SUBSTRUCTURE
     1 UNK         1 GROUP             0       ****    0 ROOT    
