@<TRIPOS>MOLECULE
3R134
127   129    1
SMALL
USER_CHARGES


@<TRIPOS>ATOM
      1 CA         33.2456  -47.5691  -58.0756 C.3       0 UNK        -0.1968 
      2 C          33.1843  -47.3068  -56.5794 C.2       0 UNK         0.4852 
      3 O          32.7636  -48.1849  -55.8262 O.2       0 UNK        -0.5359 
      4 N          33.6053  -46.1125  -56.1395 N.am      1 UNK        -0.4300 
      5 CA         33.5749  -45.6424  -54.7431 C.3       1 UNK         0.0863 
      6 C6         33.9800  -44.1509  -54.6304 C.3       11 UNK        -0.0953 
      7 S7         32.9682  -43.0598  -55.6942 S.3       11 UNK        -0.2369 
      8 C8         32.1104  -41.9894  -54.4951 C.3       11 UNK         0.0226 
      9 C9         30.9322  -42.6826  -53.8233 C.ar      11 UNK        -0.0699 
     10 C10        31.1080  -43.3349  -52.6005 C.ar      11 UNK        -0.0804 
     11 C11        30.0268  -43.9390  -51.9551 C.ar      11 UNK        -0.0871 
     12 C12        28.7607  -43.8896  -52.5471 C.ar      11 UNK        -0.1008 
     13 C13        28.5643  -43.2531  -53.7794 C.ar      11 UNK        -0.0735 
     14 C14        29.6602  -42.6459  -54.4083 C.ar      11 UNK        -0.0945 
     15 C15        27.1657  -43.2861  -54.4028 C.3       11 UNK         0.0169 
     16 S16        26.7086  -41.8589  -55.4478 S.3       11 UNK        -0.2669 
     17 C17        27.2116  -42.2678  -57.1642 C.3       11 UNK        -0.0850 
     18 CA         26.7854  -43.6744  -57.7140 C.3       10 UNK         0.0855 
     19 C          26.4040  -43.6513  -59.2296 C.2       10 UNK         0.5543 
     20 N          26.7915  -44.6332  -60.0368 N.am      10 UNK        -0.7343 
     21 O          25.7047  -42.7461  -59.6781 O.2       10 UNK        -0.5027 
     22 N          27.7308  -44.7486  -57.3581 N.am      10 UNK        -0.4495 
     23 C          29.0295  -44.7956  -57.6838 C.2       10 UNK         0.4903 
     24 O          29.6154  -43.9437  -58.3514 O.2       10 UNK        -0.4860 
     25 CA         29.8170  -46.0022  -57.1580 C.3       9 UNK         0.0227 
     26 CB         30.1141  -45.7989  -55.6731 C.3       9 UNK        -0.1964 
     27 N          29.1787  -47.3090  -57.3216 N.am      9 UNK        -0.4231 
     28 C          28.7167  -47.8262  -58.4682 C.2       9 UNK         0.5014 
     29 O          28.6097  -47.1980  -59.5222 O.2       9 UNK        -0.5270 
     30 CA         28.3171  -49.3047  -58.4285 C.3       8 UNK         0.0284 
     31 CB         29.5685  -50.1997  -58.3680 C.3       8 UNK        -0.1977 
     32 N          27.4528  -49.5774  -57.2774 N.am      8 UNK        -0.4342 
     33 C          26.1892  -50.0125  -57.3717 C.2       8 UNK         0.5039 
     34 O          25.6297  -50.2863  -58.4348 O.2       8 UNK        -0.5547 
     35 CA         25.4029  -50.1669  -56.0602 C.3       7 UNK         0.0281 
     36 CB         25.7359  -51.5028  -55.3785 C.3       7 UNK        -0.1963 
     37 N          25.6177  -49.0695  -55.1159 N.am      7 UNK        -0.4444 
     38 C          25.2299  -47.8013  -55.2956 C.2       7 UNK         0.5104 
     39 O          24.6802  -47.3902  -56.3169 O.2       7 UNK        -0.5100 
     40 CA         25.4998  -46.8121  -54.1460 C.3       6 UNK         0.0396 
     41 CB         24.4414  -46.9469  -53.0343 C.3       6 UNK        -0.1801 
     42 N          26.8667  -46.8606  -53.6039 N.am      6 UNK        -0.4747 
     43 C          27.4692  -47.8547  -52.9358 C.2       6 UNK         0.5012 
     44 O          26.9220  -48.9182  -52.6341 O.2       6 UNK        -0.5003 
     45 CA         28.9430  -47.6190  -52.5530 C.3       5 UNK         0.0782 
     46 C46        29.0477  -47.1305  -51.0902 C.3       11 UNK        -0.0868 
     47 S47        30.6696  -46.3705  -50.7524 S.3       11 UNK        -0.2515 
     48 C48        30.2296  -44.6073  -50.6006 C.3       11 UNK         0.0199 
     49 N          29.7510  -48.8189  -52.7931 N.am      5 UNK        -0.4607 
     50 C          29.8853  -49.4436  -53.9702 C.2       4 UNK         0.5031 
     51 O          29.4148  -49.0288  -55.0356 O.2       4 UNK        -0.5119 
     52 CA         30.6480  -50.7708  -53.9394 C.3       4 UNK         0.0263 
     53 CB         29.8788  -51.8752  -54.6926 C.3       4 UNK        -0.1967 
     54 N          31.9848  -50.5894  -54.5010 N.am      4 UNK        -0.4237 
     55 C          32.9989  -51.4466  -54.3156 C.2       3 UNK         0.4908 
     56 O          32.9232  -52.4557  -53.6128 O.2       3 UNK        -0.5102 
     57 CA         34.3205  -51.1419  -55.0304 C.3       3 UNK         0.0241 
     58 CB         34.1594  -51.2415  -56.5586 C.3       3 UNK        -0.1971 
     59 N          34.8261  -49.8184  -54.6675 N.am      3 UNK        -0.4139 
     60 C          35.7927  -49.5883  -53.7664 C.2       2 UNK         0.5016 
     61 O          36.3315  -50.4781  -53.1060 O.2       2 UNK        -0.5319 
     62 CA         36.2803  -48.1370  -53.5803 C.3       2 UNK         0.0286 
     63 CB         37.7370  -47.9952  -54.0555 C.3       2 UNK        -0.1963 
     64 N          35.4602  -47.1613  -54.3021 N.am      2 UNK        -0.4790 
     65 C          34.4079  -46.5161  -53.7807 C.2       1 UNK         0.5024 
     66 O          34.0701  -46.6083  -52.6008 O.2       1 UNK        -0.4888 
     67 H67        34.0182  -48.3050  -58.2961 H         1 UNK         0.0892 
     68 H68        32.2912  -47.9628  -58.4247 H         1 UNK         0.0892 
     69 H69        33.4640  -46.6623  -58.6392 H         1 UNK         0.0892 
     70 H70        33.9294  -45.4279  -56.8082 H         1 UNK         0.3107 
     71 H71        32.5493  -45.7289  -54.3873 H         1 UNK         0.0773 
     72 H72        35.0245  -44.0195  -54.9190 H         1 UNK         0.0680 
     73 H73        33.9115  -43.8124  -53.5957 H         1 UNK         0.0680 
     74 H74        31.7546  -41.1021  -55.0206 H         1 UNK         0.0650 
     75 H75        32.8212  -41.6295  -53.7496 H         1 UNK         0.0650 
     76 H76        32.0860  -43.3611  -52.1404 H         1 UNK         0.1397 
     77 H77        27.9215  -44.3465  -52.0413 H         1 UNK         0.1363 
     78 H78        29.5353  -42.1500  -55.3590 H         1 UNK         0.1355 
     79 H79        26.4275  -43.3223  -53.5999 H         1 UNK         0.0707 
     80 H80        27.0387  -44.2122  -54.9534 H         1 UNK         0.0707 
     81 H81        26.7671  -41.4744  -57.7671 H         1 UNK         0.1034 
     82 H82        28.2822  -42.1012  -57.2680 H         1 UNK         0.1034 
     83 H83        25.8503  -43.9438  -57.2217 H         1 UNK         0.0482 
     84 H84        27.3762  -45.3867  -59.6979 H         1 UNK         0.3460 
     85 H85        26.5209  -44.6069  -61.0069 H         1 UNK         0.3460 
     86 H86        27.3328  -45.5408  -56.8774 H         1 UNK         0.2989 
     87 H87        30.7616  -46.0376  -57.7013 H         1 UNK         0.0559 
     88 H88        29.2001  -45.6530  -55.1031 H         1 UNK         0.0848 
     89 H89        30.7317  -44.9157  -55.5309 H         1 UNK         0.0848 
     90 H90        30.6447  -46.6468  -55.2450 H         1 UNK         0.0848 
     91 H91        29.2568  -47.9322  -56.5205 H         1 UNK         0.3144 
     92 H92        27.7966  -49.5237  -59.3632 H         1 UNK         0.0727 
     93 H93        30.2038  -50.0375  -59.2397 H         1 UNK         0.0790 
     94 H94        29.2982  -51.2556  -58.3567 H         1 UNK         0.0790 
     95 H95        30.1763  -50.0002  -57.4845 H         1 UNK         0.0790 
     96 H96        27.8417  -49.3919  -56.3592 H         1 UNK         0.3215 
     97 H97        24.3411  -50.1751  -56.3165 H         1 UNK         0.0863 
     98 H98        26.7751  -51.5397  -55.0547 H         1 UNK         0.0808 
     99 H99        25.5748  -52.3403  -56.0588 H         1 UNK         0.0808 
    100 H100       25.1063  -51.6701  -54.5044 H         1 UNK         0.0808 
    101 H101       26.0689  -49.2902  -54.2305 H         1 UNK         0.3118 
    102 H102       25.3835  -45.8139  -54.5692 H         1 UNK         0.0546 
    103 H103       24.4616  -47.9290  -52.5612 H         1 UNK         0.0828 
    104 H104       23.4373  -46.8053  -53.4363 H         1 UNK         0.0828 
    105 H105       24.5863  -46.1975  -52.2564 H         1 UNK         0.0828 
    106 H106       27.4176  -46.0385  -53.7972 H         1 UNK         0.3005 
    107 H107       29.3431  -46.8383  -53.1971 H         1 UNK         0.1257 
    108 H108       28.8971  -47.9593  -50.3957 H         1 UNK         0.0775 
    109 H109       28.2650  -46.4072  -50.8548 H         1 UNK         0.0775 
    110 H110       29.3398  -44.4940  -49.9794 H         1 UNK         0.0840 
    111 H111       31.0304  -44.0997  -50.0605 H         1 UNK         0.0840 
    112 H112       30.1737  -49.2297  -51.9740 H         1 UNK         0.2987 
    113 H113       30.7509  -51.0834  -52.8978 H         1 UNK         0.0785 
    114 H114       28.8915  -52.0208  -54.2550 H         1 UNK         0.0798 
    115 H115       30.3928  -52.8345  -54.6378 H         1 UNK         0.0798 
    116 H116       29.7415  -51.6320  -55.7459 H         1 UNK         0.0798 
    117 H117       32.1327  -49.7425  -55.0512 H         1 UNK         0.3079 
    118 H118       35.0412  -51.9067  -54.7323 H         1 UNK         0.0794 
    119 H119       33.8183  -52.2365  -56.8476 H         1 UNK         0.0786 
    120 H120       35.1070  -51.0644  -57.0674 H         1 UNK         0.0786 
    121 H121       33.4338  -50.5269  -56.9471 H         1 UNK         0.0786 
    122 H122       34.3508  -49.0293  -55.0930 H         1 UNK         0.3032 
    123 H123       36.2516  -47.9245  -52.5089 H         1 UNK         0.1094 
    124 H124       38.3944  -48.6765  -53.5134 H         1 UNK         0.0794 
    125 H125       37.8400  -48.2198  -55.1178 H         1 UNK         0.0794 
    126 H126       38.1124  -46.9856  -53.8870 H         1 UNK         0.0794 
    127 H127       35.6732  -47.0193  -55.2794 H         1 UNK         0.3016 
@<TRIPOS>BOND
     1    1    2 1    
     2    1   67 1    
     3    1   68 1    
     4    1   69 1    
     5    2    3 2    
     6    2    4 am   BACKBONE|DICT|INTERRES
     7    4    5 1    
     8    4   70 1    
     9    5    6 1    
    10    5   65 1    
    11    5   71 1    
    12    6    7 1    
    13    6   72 1    
    14    6   73 1    
    15    7    8 1    
    16    8    9 1    
    17    8   74 1    
    18    8   75 1    
    19    9   10 ar   
    20    9   14 ar   
    21   10   11 ar   
    22   10   76 1    
    23   11   12 ar   
    24   11   48 1    
    25   12   13 ar   
    26   12   77 1    
    27   13   14 ar   
    28   13   15 1    
    29   14   78 1    
    30   15   16 1    
    31   15   79 1    
    32   15   80 1    
    33   16   17 1    
    34   17   18 1    
    35   17   81 1    
    36   17   82 1    
    37   18   19 1    
    38   18   22 1    
    39   18   83 1    
    40   19   20 am   BACKBONE|DICT|INTERRES
    41   19   21 2    
    42   20   84 1    
    43   20   85 1    
    44   22   23 am   BACKBONE|DICT|INTERRES
    45   22   86 1    
    46   23   24 2    
    47   23   25 1    
    48   25   26 1    
    49   25   27 1    
    50   25   87 1    
    51   26   88 1    
    52   26   89 1    
    53   26   90 1    
    54   27   28 am   BACKBONE|DICT|INTERRES
    55   27   91 1    
    56   28   29 2    
    57   28   30 1    
    58   30   31 1    
    59   30   32 1    
    60   30   92 1    
    61   31   93 1    
    62   31   94 1    
    63   31   95 1    
    64   32   33 am   BACKBONE|DICT|INTERRES
    65   32   96 1    
    66   33   34 2    
    67   33   35 1    
    68   35   36 1    
    69   35   37 1    
    70   35   97 1    
    71   36   98 1    
    72   36   99 1    
    73   36  100 1    
    74   37   38 am   BACKBONE|DICT|INTERRES
    75   37  101 1    
    76   38   39 2    
    77   38   40 1    
    78   40   41 1    
    79   40   42 1    
    80   40  102 1    
    81   41  103 1    
    82   41  104 1    
    83   41  105 1    
    84   42   43 am   BACKBONE|DICT|INTERRES
    85   42  106 1    
    86   43   44 2    
    87   43   45 1    
    88   45   46 1    
    89   45   49 1    
    90   45  107 1    
    91   46   47 1    
    92   46  108 1    
    93   46  109 1    
    94   47   48 1    
    95   48  110 1    
    96   48  111 1    
    97   49   50 am   BACKBONE|DICT|INTERRES
    98   49  112 1    
    99   50   51 2    
   100   50   52 1    
   101   52   53 1    
   102   52   54 1    
   103   52  113 1    
   104   53  114 1    
   105   53  115 1    
   106   53  116 1    
   107   54   55 am   BACKBONE|DICT|INTERRES
   108   54  117 1    
   109   55   56 2    
   110   55   57 1    
   111   57   58 1    
   112   57   59 1    
   113   57  118 1    
   114   58  119 1    
   115   58  120 1    
   116   58  121 1    
   117   59   60 am   BACKBONE|DICT|INTERRES
   118   59  122 1    
   119   60   61 2    
   120   60   62 1    
   121   62   63 1    
   122   62   64 1    
   123   62  123 1    
   124   63  124 1    
   125   63  125 1    
   126   63  126 1    
   127   64   65 am   BACKBONE|DICT|INTERRES
   128   64  127 1    
   129   65   66 2    
@<TRIPOS>SUBSTRUCTURE
     1 UNK         1 GROUP             0       ****    0 ROOT    
