@<TRIPOS>MOLECULE
3R134
127   129    1
SMALL
USER_CHARGES


@<TRIPOS>ATOM
      1 CA         32.2168  -46.3977  -51.4671 C.3       0 UNK        -0.1968 
      2 C          33.4120  -46.1139  -52.3565 C.2       0 UNK         0.4852 
      3 O          33.4059  -46.4775  -53.5335 O.2       0 UNK        -0.5359 
      4 N          34.4354  -45.4630  -51.7894 N.am      1 UNK        -0.4300 
      5 CA         35.6510  -44.9939  -52.4612 C.3       1 UNK         0.0863 
      6 C6         35.3823  -43.8267  -53.4547 C.3       11 UNK        -0.0953 
      7 S7         34.5445  -42.4176  -52.6468 S.3       11 UNK        -0.2369 
      8 C8         33.2939  -41.9365  -53.8821 C.3       11 UNK         0.0226 
      9 C9         32.1463  -42.9331  -54.0010 C.ar      11 UNK        -0.0699 
     10 C10        31.0851  -42.9095  -53.0866 C.ar      11 UNK        -0.0804 
     11 C11        29.9954  -43.7764  -53.2377 C.ar      11 UNK        -0.0871 
     12 C12        29.9827  -44.6719  -54.3093 C.ar      11 UNK        -0.1008 
     13 C13        31.0475  -44.7297  -55.2085 C.ar      11 UNK        -0.0735 
     14 C14        32.1219  -43.8503  -55.0571 C.ar      11 UNK        -0.0945 
     15 C15        31.0331  -45.7552  -56.3327 C.3       11 UNK         0.0169 
     16 S16        30.7699  -45.0104  -57.9742 S.3       11 UNK        -0.2669 
     17 C17        29.2345  -44.0421  -57.7472 C.3       11 UNK        -0.0850 
     18 CA         27.9292  -44.8893  -57.6563 C.3       10 UNK         0.0855 
     19 C          26.6708  -44.0005  -57.4178 C.2       10 UNK         0.5543 
     20 N          25.5325  -44.2595  -58.0521 N.am      10 UNK        -0.7343 
     21 O          26.7170  -43.0688  -56.6185 O.2       10 UNK        -0.5027 
     22 N          27.7685  -45.8829  -58.7303 N.am      10 UNK        -0.4495 
     23 C          27.7729  -45.6488  -60.0507 C.2       10 UNK         0.4903 
     24 O          27.9993  -44.5531  -60.5640 O.2       10 UNK        -0.4860 
     25 CA         27.4356  -46.8421  -60.9648 C.3       9 UNK         0.0227 
     26 CB         28.7220  -47.5676  -61.3915 C.3       9 UNK        -0.1964 
     27 N          26.5136  -47.8054  -60.3544 N.am      9 UNK        -0.4231 
     28 C          25.2617  -47.5302  -59.9589 C.2       9 UNK         0.5014 
     29 O          24.7152  -46.4383  -60.1214 O.2       9 UNK        -0.5270 
     30 CA         24.5041  -48.6451  -59.2163 C.3       8 UNK         0.0284 
     31 CB         23.6610  -49.4702  -60.2020 C.3       8 UNK        -0.1977 
     32 N          25.3603  -49.5455  -58.4327 N.am      8 UNK        -0.4342 
     33 C          26.1590  -49.1694  -57.4242 C.2       8 UNK         0.5039 
     34 O          26.3430  -47.9971  -57.0888 O.2       8 UNK        -0.5547 
     35 CA         26.9096  -50.2878  -56.6876 C.3       7 UNK         0.0281 
     36 CB         28.4110  -50.2378  -57.0187 C.3       7 UNK        -0.1963 
     37 N          26.7150  -50.1626  -55.2419 N.am      7 UNK        -0.4444 
     38 C          25.5731  -50.4811  -54.6095 C.2       7 UNK         0.5104 
     39 O          24.5993  -50.9736  -55.1813 O.2       7 UNK        -0.5100 
     40 CA         25.4872  -50.2384  -53.0881 C.3       6 UNK         0.0396 
     41 CB         25.6406  -51.5650  -52.3263 C.3       6 UNK        -0.1801 
     42 N          26.4876  -49.2922  -52.5959 N.am      6 UNK        -0.4747 
     43 C          26.4569  -47.9657  -52.7889 C.2       6 UNK         0.5012 
     44 O          25.4884  -47.3722  -53.2635 O.2       6 UNK        -0.5003 
     45 CA         27.7346  -47.1714  -52.4366 C.3       5 UNK         0.0782 
     46 C46        27.4728  -46.0901  -51.3583 C.3       11 UNK        -0.0868 
     47 S47        28.9348  -45.0482  -51.0067 S.3       11 UNK        -0.2515 
     48 C48        28.8203  -43.7333  -52.2670 C.3       11 UNK         0.0199 
     49 N          28.8875  -48.0314  -52.1207 N.am      5 UNK        -0.4607 
     50 C          29.5568  -48.7447  -53.0344 C.2       4 UNK         0.5031 
     51 O          29.2471  -48.7830  -54.2266 O.2       4 UNK        -0.5119 
     52 CA         30.7188  -49.6057  -52.5357 C.3       4 UNK         0.0263 
     53 CB         30.2277  -51.0103  -52.1458 C.3       4 UNK        -0.1967 
     54 N          31.6858  -49.7072  -53.6217 N.am      4 UNK        -0.4237 
     55 C          33.0164  -49.7301  -53.4942 C.2       3 UNK         0.4908 
     56 O          33.5978  -49.7453  -52.4074 O.2       3 UNK        -0.5102 
     57 CA         33.8466  -49.7500  -54.7881 C.3       3 UNK         0.0241 
     58 CB         33.0162  -49.6656  -56.0887 C.3       3 UNK        -0.1971 
     59 N          34.8118  -48.6518  -54.7570 N.am      3 UNK        -0.4139 
     60 C          36.0817  -48.7325  -55.1769 C.2       2 UNK         0.5016 
     61 O          36.5877  -49.7699  -55.6092 O.2       2 UNK        -0.5319 
     62 CA         36.9442  -47.4543  -55.1494 C.3       2 UNK         0.0286 
     63 CB         37.2303  -46.9719  -56.5820 C.3       2 UNK        -0.1963 
     64 N          36.3385  -46.3509  -54.4021 N.am      2 UNK        -0.4790 
     65 C          36.4269  -46.1806  -53.0764 C.2       1 UNK         0.5024 
     66 O          37.0743  -46.9234  -52.3365 O.2       1 UNK        -0.4888 
     67 H67        32.0411  -45.5784  -50.7703 H         1 UNK         0.0892 
     68 H68        31.3232  -46.5113  -52.0781 H         1 UNK         0.0892 
     69 H69        32.3782  -47.3114  -50.8974 H         1 UNK         0.0892 
     70 H70        34.3784  -45.2289  -50.8086 H         1 UNK         0.3107 
     71 H71        36.2940  -44.6008  -51.6720 H         1 UNK         0.0773 
     72 H72        36.3207  -43.4605  -53.8746 H         1 UNK         0.0680 
     73 H73        34.7794  -44.1641  -54.2966 H         1 UNK         0.0680 
     74 H74        33.7812  -41.7950  -54.8481 H         1 UNK         0.0650 
     75 H75        32.8917  -40.9614  -53.6039 H         1 UNK         0.0650 
     76 H76        31.1021  -42.2031  -52.2679 H         1 UNK         0.1397 
     77 H77        29.1422  -45.3277  -54.4569 H         1 UNK         0.1363 
     78 H78        32.9355  -43.8815  -55.7682 H         1 UNK         0.1355 
     79 H79        31.9855  -46.2870  -56.3364 H         1 UNK         0.0707 
     80 H80        30.2665  -46.5123  -56.1577 H         1 UNK         0.0707 
     81 H81        29.3457  -43.4176  -56.8596 H         1 UNK         0.1034 
     82 H82        29.1651  -43.3377  -58.5771 H         1 UNK         0.1034 
     83 H83        28.0061  -45.4884  -56.7488 H         1 UNK         0.0482 
     84 H84        24.7292  -43.6783  -57.8742 H         1 UNK         0.3460 
     85 H85        25.4639  -45.0237  -58.7123 H         1 UNK         0.3460 
     86 H86        27.4905  -46.8013  -58.4033 H         1 UNK         0.2989 
     87 H87        26.9526  -46.4455  -61.8603 H         1 UNK         0.0559 
     88 H88        29.4160  -46.8774  -61.8736 H         1 UNK         0.0848 
     89 H89        29.2416  -48.0054  -60.5379 H         1 UNK         0.0848 
     90 H90        28.5132  -48.3645  -62.1055 H         1 UNK         0.0848 
     91 H91        26.8719  -48.7323  -60.1770 H         1 UNK         0.3144 
     92 H92        23.8249  -48.1565  -58.5144 H         1 UNK         0.0727 
     93 H93        23.0324  -50.1924  -59.6806 H         1 UNK         0.0790 
     94 H94        24.2851  -50.0157  -60.9110 H         1 UNK         0.0790 
     95 H95        22.9970  -48.8265  -60.7812 H         1 UNK         0.0790 
     96 H96        25.2771  -50.5314  -58.6382 H         1 UNK         0.3215 
     97 H97        26.5228  -51.2591  -57.0039 H         1 UNK         0.0863 
     98 H98        28.9685  -50.9886  -56.4584 H         1 UNK         0.0808 
     99 H99        28.8436  -49.2622  -56.7927 H         1 UNK         0.0808 
    100 H100       28.5826  -50.4290  -58.0786 H         1 UNK         0.0808 
    101 H101       27.4604  -49.7044  -54.7293 H         1 UNK         0.3118 
    102 H102       24.4950  -49.8353  -52.8744 H         1 UNK         0.0546 
    103 H103       24.8866  -52.2866  -52.6439 H         1 UNK         0.0828 
    104 H104       25.5174  -51.4236  -51.2524 H         1 UNK         0.0828 
    105 H105       26.6174  -52.0195  -52.4968 H         1 UNK         0.0828 
    106 H106       27.3192  -49.6866  -52.1819 H         1 UNK         0.3005 
    107 H107       27.9673  -46.6494  -53.3609 H         1 UNK         0.1257 
    108 H108       27.1692  -46.5630  -50.4227 H         1 UNK         0.0775 
    109 H109       26.6423  -45.4431  -51.6474 H         1 UNK         0.0775 
    110 H110       27.8843  -43.8121  -52.8219 H         1 UNK         0.0840 
    111 H111       28.7867  -42.7675  -51.7607 H         1 UNK         0.0840 
    112 H112       29.1809  -48.0467  -51.1542 H         1 UNK         0.2987 
    113 H113       31.1731  -49.1264  -51.6681 H         1 UNK         0.0785 
    114 H114       29.5087  -50.9632  -51.3272 H         1 UNK         0.0798 
    115 H115       31.0545  -51.6381  -51.8127 H         1 UNK         0.0798 
    116 H116       29.7420  -51.5153  -52.9822 H         1 UNK         0.0798 
    117 H117       31.2765  -49.6266  -54.5441 H         1 UNK         0.3079 
    118 H118       34.3749  -50.7057  -54.7842 H         1 UNK         0.0794 
    119 H119       32.3172  -50.4989  -56.1722 H         1 UNK         0.0786 
    120 H120       33.6619  -49.7089  -56.9661 H         1 UNK         0.0786 
    121 H121       32.4462  -48.7376  -56.1482 H         1 UNK         0.0786 
    122 H122       34.4664  -47.7804  -54.3550 H         1 UNK         0.3032 
    123 H123       37.8960  -47.7206  -54.6837 H         1 UNK         0.1094 
    124 H124       37.8902  -46.1040  -56.5846 H         1 UNK         0.0794 
    125 H125       37.7220  -47.7508  -57.1668 H         1 UNK         0.0794 
    126 H126       36.3138  -46.7002  -57.1074 H         1 UNK         0.0794 
    127 H127       35.7409  -45.7257  -54.9238 H         1 UNK         0.3016 
@<TRIPOS>BOND
     1    1    2 1    
     2    1   67 1    
     3    1   68 1    
     4    1   69 1    
     5    2    3 2    
     6    2    4 am   BACKBONE|DICT|INTERRES
     7    4    5 1    
     8    4   70 1    
     9    5    6 1    
    10    5   65 1    
    11    5   71 1    
    12    6    7 1    
    13    6   72 1    
    14    6   73 1    
    15    7    8 1    
    16    8    9 1    
    17    8   74 1    
    18    8   75 1    
    19    9   10 ar   
    20    9   14 ar   
    21   10   11 ar   
    22   10   76 1    
    23   11   12 ar   
    24   11   48 1    
    25   12   13 ar   
    26   12   77 1    
    27   13   14 ar   
    28   13   15 1    
    29   14   78 1    
    30   15   16 1    
    31   15   79 1    
    32   15   80 1    
    33   16   17 1    
    34   17   18 1    
    35   17   81 1    
    36   17   82 1    
    37   18   19 1    
    38   18   22 1    
    39   18   83 1    
    40   19   20 am   BACKBONE|DICT|INTERRES
    41   19   21 2    
    42   20   84 1    
    43   20   85 1    
    44   22   23 am   BACKBONE|DICT|INTERRES
    45   22   86 1    
    46   23   24 2    
    47   23   25 1    
    48   25   26 1    
    49   25   27 1    
    50   25   87 1    
    51   26   88 1    
    52   26   89 1    
    53   26   90 1    
    54   27   28 am   BACKBONE|DICT|INTERRES
    55   27   91 1    
    56   28   29 2    
    57   28   30 1    
    58   30   31 1    
    59   30   32 1    
    60   30   92 1    
    61   31   93 1    
    62   31   94 1    
    63   31   95 1    
    64   32   33 am   BACKBONE|DICT|INTERRES
    65   32   96 1    
    66   33   34 2    
    67   33   35 1    
    68   35   36 1    
    69   35   37 1    
    70   35   97 1    
    71   36   98 1    
    72   36   99 1    
    73   36  100 1    
    74   37   38 am   BACKBONE|DICT|INTERRES
    75   37  101 1    
    76   38   39 2    
    77   38   40 1    
    78   40   41 1    
    79   40   42 1    
    80   40  102 1    
    81   41  103 1    
    82   41  104 1    
    83   41  105 1    
    84   42   43 am   BACKBONE|DICT|INTERRES
    85   42  106 1    
    86   43   44 2    
    87   43   45 1    
    88   45   46 1    
    89   45   49 1    
    90   45  107 1    
    91   46   47 1    
    92   46  108 1    
    93   46  109 1    
    94   47   48 1    
    95   48  110 1    
    96   48  111 1    
    97   49   50 am   BACKBONE|DICT|INTERRES
    98   49  112 1    
    99   50   51 2    
   100   50   52 1    
   101   52   53 1    
   102   52   54 1    
   103   52  113 1    
   104   53  114 1    
   105   53  115 1    
   106   53  116 1    
   107   54   55 am   BACKBONE|DICT|INTERRES
   108   54  117 1    
   109   55   56 2    
   110   55   57 1    
   111   57   58 1    
   112   57   59 1    
   113   57  118 1    
   114   58  119 1    
   115   58  120 1    
   116   58  121 1    
   117   59   60 am   BACKBONE|DICT|INTERRES
   118   59  122 1    
   119   60   61 2    
   120   60   62 1    
   121   62   63 1    
   122   62   64 1    
   123   62  123 1    
   124   63  124 1    
   125   63  125 1    
   126   63  126 1    
   127   64   65 am   BACKBONE|DICT|INTERRES
   128   64  127 1    
   129   65   66 2    
@<TRIPOS>SUBSTRUCTURE
     1 UNK         1 GROUP             0       ****    0 ROOT    
