@<TRIPOS>MOLECULE
3R134
127   129    1
SMALL
USER_CHARGES


@<TRIPOS>ATOM
      1 CA         31.8008  -49.5426  -57.4444 C.3       0 UNK        -0.1968 
      2 C          32.8450  -48.6079  -56.8558 C.2       0 UNK         0.4852 
      3 O          33.9856  -48.5976  -57.3210 O.2       0 UNK        -0.5359 
      4 N          32.4659  -47.8509  -55.8169 N.am      1 UNK        -0.4300 
      5 CA         33.2701  -46.8828  -55.0570 C.3       1 UNK         0.0863 
      6 C6         33.9427  -45.7649  -55.9017 C.3       11 UNK        -0.0953 
      7 S7         32.7854  -44.8541  -56.9764 S.3       11 UNK        -0.2369 
      8 C8         32.6842  -43.2360  -56.1514 C.3       11 UNK         0.0226 
      9 C9         31.5921  -43.2119  -55.0943 C.ar      11 UNK        -0.0699 
     10 C10        31.9018  -43.3224  -53.7356 C.ar      11 UNK        -0.0804 
     11 C11        30.8873  -43.2615  -52.7747 C.ar      11 UNK        -0.0871 
     12 C12        29.5610  -43.0884  -53.1840 C.ar      11 UNK        -0.1008 
     13 C13        29.2329  -42.9951  -54.5387 C.ar      11 UNK        -0.0735 
     14 C14        30.2605  -43.0556  -55.4873 C.ar      11 UNK        -0.0945 
     15 C15        27.7607  -42.8800  -54.9348 C.3       11 UNK         0.0169 
     16 S16        27.4608  -42.0413  -56.5279 S.3       11 UNK        -0.2669 
     17 C17        25.6627  -42.3044  -56.7170 C.3       11 UNK        -0.0850 
     18 CA         25.2234  -42.6120  -58.1730 C.3       10 UNK         0.0855 
     19 C          25.2676  -41.3476  -59.0827 C.2       10 UNK         0.5543 
     20 N          26.0287  -41.3348  -60.1706 N.am      10 UNK        -0.7343 
     21 O          24.5837  -40.3660  -58.8026 O.2       10 UNK        -0.5027 
     22 N          25.9077  -43.7985  -58.7176 N.am      10 UNK        -0.4495 
     23 C          25.4165  -44.5751  -59.6925 C.2       10 UNK         0.4903 
     24 O          24.3068  -44.4087  -60.2002 O.2       10 UNK        -0.4860 
     25 CA         26.3011  -45.7226  -60.2178 C.3       9 UNK         0.0227 
     26 CB         26.8961  -45.3497  -61.5863 C.3       9 UNK        -0.1964 
     27 N          27.3885  -46.1358  -59.3235 N.am      9 UNK        -0.4231 
     28 C          27.2259  -46.7712  -58.1556 C.2       9 UNK         0.5014 
     29 O          26.1265  -47.0010  -57.6455 O.2       9 UNK        -0.5270 
     30 CA         28.5211  -47.2022  -57.4432 C.3       8 UNK         0.0284 
     31 CB         29.1837  -46.0073  -56.7455 C.3       8 UNK        -0.1977 
     32 N          28.2748  -48.2516  -56.4538 N.am      8 UNK        -0.4342 
     33 C          28.0341  -49.5355  -56.7551 C.2       8 UNK         0.5039 
     34 O          28.0675  -49.9791  -57.9042 O.2       8 UNK        -0.5547 
     35 CA         27.7297  -50.5030  -55.5964 C.3       7 UNK         0.0281 
     36 CB         28.8442  -51.5554  -55.4511 C.3       7 UNK        -0.1963 
     37 N          27.5478  -49.8183  -54.3138 N.am      7 UNK        -0.4444 
     38 C          26.3733  -49.3646  -53.8524 C.2       7 UNK         0.5104 
     39 O          25.3060  -49.5025  -54.4502 O.2       7 UNK        -0.5100 
     40 CA         26.3767  -48.6424  -52.4902 C.3       6 UNK         0.0396 
     41 CB         25.8590  -49.5815  -51.3887 C.3       6 UNK        -0.1801 
     42 N          27.6908  -48.1260  -52.0958 N.am      6 UNK        -0.4747 
     43 C          28.3171  -47.0934  -52.6801 C.2       6 UNK         0.5012 
     44 O          27.8331  -46.4417  -53.6036 O.2       6 UNK        -0.5003 
     45 CA         29.7494  -46.7863  -52.1957 C.3       5 UNK         0.0782 
     46 C46        29.7414  -45.7740  -51.0266 C.3       11 UNK        -0.0868 
     47 S47        31.4108  -45.0930  -50.7429 S.3       11 UNK        -0.2515 
     48 C48        31.2210  -43.3655  -51.2924 C.3       11 UNK         0.0199 
     49 N          30.4712  -48.0130  -51.8327 N.am      5 UNK        -0.4607 
     50 C          30.8037  -48.9795  -52.6923 C.2       4 UNK         0.5031 
     51 O          30.5949  -48.9183  -53.9077 O.2       4 UNK        -0.5119 
     52 CA         31.3961  -50.2543  -52.0894 C.3       4 UNK         0.0263 
     53 CB         30.2641  -51.2350  -51.7197 C.3       4 UNK        -0.1967 
     54 N          32.2996  -50.8308  -53.0769 N.am      4 UNK        -0.4237 
     55 C          33.1247  -51.8699  -52.9036 C.2       3 UNK         0.4908 
     56 O          33.1845  -52.5510  -51.8795 O.2       3 UNK        -0.5102 
     57 CA         34.0818  -52.1630  -54.0697 C.3       3 UNK         0.0241 
     58 CB         33.3216  -52.7084  -55.2914 C.3       3 UNK        -0.1971 
     59 N          34.8349  -50.9634  -54.4432 N.am      3 UNK        -0.4139 
     60 C          35.7910  -50.4012  -53.6873 C.2       2 UNK         0.5016 
     61 O          36.2332  -50.8983  -52.6511 O.2       2 UNK        -0.5319 
     62 CA         36.3319  -49.0419  -54.1579 C.3       2 UNK         0.0286 
     63 CB         37.5120  -49.2302  -55.1244 C.3       2 UNK        -0.1963 
     64 N          35.2993  -48.2298  -54.8042 N.am      2 UNK        -0.4790 
     65 C          34.2983  -47.6061  -54.1682 C.2       1 UNK         0.5024 
     66 O          34.1550  -47.6093  -52.9459 O.2       1 UNK        -0.4888 
     67 H67        32.2450  -50.5072  -57.6876 H         1 UNK         0.0892 
     68 H68        30.9813  -49.7139  -56.7491 H         1 UNK         0.0892 
     69 H69        31.3900  -49.1170  -58.3594 H         1 UNK         0.0892 
     70 H70        31.5426  -48.0077  -55.4245 H         1 UNK         0.3107 
     71 H71        32.5672  -46.3926  -54.3806 H         1 UNK         0.0773 
     72 H72        34.4542  -45.0604  -55.2440 H         1 UNK         0.0680 
     73 H73        34.7189  -46.1747  -56.5494 H         1 UNK         0.0680 
     74 H74        32.4649  -42.4795  -56.9064 H         1 UNK         0.0650 
     75 H75        33.6501  -42.9600  -55.7265 H         1 UNK         0.0650 
     76 H76        32.9299  -43.4492  -53.4249 H         1 UNK         0.1397 
     77 H77        28.7738  -43.0375  -52.4445 H         1 UNK         0.1363 
     78 H78        30.0333  -42.9915  -56.5416 H         1 UNK         0.1355 
     79 H79        27.2135  -42.3372  -54.1624 H         1 UNK         0.0707 
     80 H80        27.3345  -43.8830  -54.9663 H         1 UNK         0.0707 
     81 H81        25.3519  -43.1321  -56.0778 H         1 UNK         0.1034 
     82 H82        25.1377  -41.4294  -56.3285 H         1 UNK         0.1034 
     83 H83        24.1629  -42.8651  -58.1129 H         1 UNK         0.0482 
     84 H84        26.5935  -42.1342  -60.4054 H         1 UNK         0.3460 
     85 H85        26.0440  -40.5136  -60.7544 H         1 UNK         0.3460 
     86 H86        26.8314  -43.9835  -58.3562 H         1 UNK         0.2989 
     87 H87        25.6477  -46.5860  -60.3604 H         1 UNK         0.0559 
     88 H88        26.1125  -45.0645  -62.2900 H         1 UNK         0.0848 
     89 H89        27.4320  -46.1893  -62.0296 H         1 UNK         0.0848 
     90 H90        27.5878  -44.5097  -61.5128 H         1 UNK         0.0848 
     91 H91        28.3284  -45.9750  -59.6573 H         1 UNK         0.3144 
     92 H92        29.2139  -47.5926  -58.1917 H         1 UNK         0.0727 
     93 H93        28.5122  -45.5487  -56.0221 H         1 UNK         0.0790 
     94 H94        29.4671  -45.2375  -57.4637 H         1 UNK         0.0790 
     95 H95        30.0892  -46.3003  -56.2155 H         1 UNK         0.0790 
     96 H96        28.1643  -47.9505  -55.4954 H         1 UNK         0.3215 
     97 H97        26.8097  -51.0297  -55.8595 H         1 UNK         0.0863 
     98 H98        29.7941  -51.1096  -55.1585 H         1 UNK         0.0808 
     99 H99        29.0099  -52.0835  -56.3911 H         1 UNK         0.0808 
    100 H100       28.5823  -52.3060  -54.7057 H         1 UNK         0.0808 
    101 H101       28.3861  -49.6284  -53.7822 H         1 UNK         0.3118 
    102 H102       25.6899  -47.7967  -52.5677 H         1 UNK         0.0546 
    103 H103       26.5107  -50.4457  -51.2540 H         1 UNK         0.0828 
    104 H104       24.8651  -49.9593  -51.6333 H         1 UNK         0.0828 
    105 H105       25.7793  -49.0664  -50.4313 H         1 UNK         0.0828 
    106 H106       28.1591  -48.6046  -51.3401 H         1 UNK         0.3005 
    107 H107       30.2651  -46.3291  -53.0443 H         1 UNK         0.1257 
    108 H108       29.3997  -46.2505  -50.1059 H         1 UNK         0.0775 
    109 H109       29.0411  -44.9588  -51.2081 H         1 UNK         0.0775 
    110 H110       30.4531  -42.8771  -50.6902 H         1 UNK         0.0840 
    111 H111       32.1485  -42.8284  -51.0888 H         1 UNK         0.0840 
    112 H112       30.6990  -48.1215  -50.8548 H         1 UNK         0.2987 
    113 H113       31.9733  -49.9961  -51.1992 H         1 UNK         0.0785 
    114 H114       29.5526  -50.7760  -51.0323 H         1 UNK         0.0798 
    115 H115       30.6482  -52.1262  -51.2243 H         1 UNK         0.0798 
    116 H116       29.7073  -51.5594  -52.5985 H         1 UNK         0.0798 
    117 H117       32.3114  -50.3271  -53.9528 H         1 UNK         0.3079 
    118 H118       34.7914  -52.9259  -53.7416 H         1 UNK         0.0794 
    119 H119       34.0056  -52.9642  -56.1010 H         1 UNK         0.0786 
    120 H120       32.5964  -51.9930  -55.6795 H         1 UNK         0.0786 
    121 H121       32.7745  -53.6161  -55.0332 H         1 UNK         0.0786 
    122 H122       34.5657  -50.4906  -55.2933 H         1 UNK         0.3032 
    123 H123       36.6907  -48.5064  -53.2756 H         1 UNK         0.1094 
    124 H124       37.2104  -49.7450  -56.0377 H         1 UNK         0.0794 
    125 H125       37.9481  -48.2721  -55.4079 H         1 UNK         0.0794 
    126 H126       38.3040  -49.8214  -54.6623 H         1 UNK         0.0794 
    127 H127       35.2718  -48.2286  -55.8202 H         1 UNK         0.3016 
@<TRIPOS>BOND
     1    1    2 1    
     2    1   67 1    
     3    1   68 1    
     4    1   69 1    
     5    2    3 2    
     6    2    4 am   BACKBONE|DICT|INTERRES
     7    4    5 1    
     8    4   70 1    
     9    5    6 1    
    10    5   65 1    
    11    5   71 1    
    12    6    7 1    
    13    6   72 1    
    14    6   73 1    
    15    7    8 1    
    16    8    9 1    
    17    8   74 1    
    18    8   75 1    
    19    9   10 ar   
    20    9   14 ar   
    21   10   11 ar   
    22   10   76 1    
    23   11   12 ar   
    24   11   48 1    
    25   12   13 ar   
    26   12   77 1    
    27   13   14 ar   
    28   13   15 1    
    29   14   78 1    
    30   15   16 1    
    31   15   79 1    
    32   15   80 1    
    33   16   17 1    
    34   17   18 1    
    35   17   81 1    
    36   17   82 1    
    37   18   19 1    
    38   18   22 1    
    39   18   83 1    
    40   19   20 am   BACKBONE|DICT|INTERRES
    41   19   21 2    
    42   20   84 1    
    43   20   85 1    
    44   22   23 am   BACKBONE|DICT|INTERRES
    45   22   86 1    
    46   23   24 2    
    47   23   25 1    
    48   25   26 1    
    49   25   27 1    
    50   25   87 1    
    51   26   88 1    
    52   26   89 1    
    53   26   90 1    
    54   27   28 am   BACKBONE|DICT|INTERRES
    55   27   91 1    
    56   28   29 2    
    57   28   30 1    
    58   30   31 1    
    59   30   32 1    
    60   30   92 1    
    61   31   93 1    
    62   31   94 1    
    63   31   95 1    
    64   32   33 am   BACKBONE|DICT|INTERRES
    65   32   96 1    
    66   33   34 2    
    67   33   35 1    
    68   35   36 1    
    69   35   37 1    
    70   35   97 1    
    71   36   98 1    
    72   36   99 1    
    73   36  100 1    
    74   37   38 am   BACKBONE|DICT|INTERRES
    75   37  101 1    
    76   38   39 2    
    77   38   40 1    
    78   40   41 1    
    79   40   42 1    
    80   40  102 1    
    81   41  103 1    
    82   41  104 1    
    83   41  105 1    
    84   42   43 am   BACKBONE|DICT|INTERRES
    85   42  106 1    
    86   43   44 2    
    87   43   45 1    
    88   45   46 1    
    89   45   49 1    
    90   45  107 1    
    91   46   47 1    
    92   46  108 1    
    93   46  109 1    
    94   47   48 1    
    95   48  110 1    
    96   48  111 1    
    97   49   50 am   BACKBONE|DICT|INTERRES
    98   49  112 1    
    99   50   51 2    
   100   50   52 1    
   101   52   53 1    
   102   52   54 1    
   103   52  113 1    
   104   53  114 1    
   105   53  115 1    
   106   53  116 1    
   107   54   55 am   BACKBONE|DICT|INTERRES
   108   54  117 1    
   109   55   56 2    
   110   55   57 1    
   111   57   58 1    
   112   57   59 1    
   113   57  118 1    
   114   58  119 1    
   115   58  120 1    
   116   58  121 1    
   117   59   60 am   BACKBONE|DICT|INTERRES
   118   59  122 1    
   119   60   61 2    
   120   60   62 1    
   121   62   63 1    
   122   62   64 1    
   123   62  123 1    
   124   63  124 1    
   125   63  125 1    
   126   63  126 1    
   127   64   65 am   BACKBONE|DICT|INTERRES
   128   64  127 1    
   129   65   66 2    
@<TRIPOS>SUBSTRUCTURE
     1 UNK         1 GROUP             0       ****    0 ROOT    
