@<TRIPOS>MOLECULE
3R134
127   129    1
SMALL
USER_CHARGES


@<TRIPOS>ATOM
      1 CA         30.8496  -44.1998  -48.6782 C.3       0 UNK        -0.1968 
      2 C          32.1324  -45.0162  -48.7370 C.2       0 UNK         0.4852 
      3 O          32.5684  -45.5463  -47.7142 O.2       0 UNK        -0.5359 
      4 N          32.7386  -45.1203  -49.9271 N.am      1 UNK        -0.4300 
      5 CA         33.9679  -45.8816  -50.1844 C.3       1 UNK         0.0863 
      6 C6         34.6547  -45.4407  -51.5037 C.3       11 UNK        -0.0953 
      7 S7         33.5646  -45.4914  -52.9725 S.3       11 UNK        -0.2369 
      8 C8         33.4856  -43.7222  -53.3845 C.3       11 UNK         0.0226 
      9 C9         32.6001  -43.4508  -54.5916 C.ar      11 UNK        -0.0699 
     10 C10        33.0753  -43.7099  -55.8812 C.ar      11 UNK        -0.0804 
     11 C11        32.2951  -43.3992  -56.9995 C.ar      11 UNK        -0.0871 
     12 C12        31.0436  -42.8081  -56.8199 C.ar      11 UNK        -0.1008 
     13 C13        30.5424  -42.5718  -55.5375 C.ar      11 UNK        -0.0735 
     14 C14        31.3248  -42.8991  -54.4250 C.ar      11 UNK        -0.0945 
     15 C15        29.1684  -41.9398  -55.3595 C.3       11 UNK         0.0169 
     16 S16        27.8270  -43.1604  -55.5296 S.3       11 UNK        -0.2669 
     17 C17        27.8174  -43.4515  -57.3350 C.3       11 UNK        -0.0850 
     18 CA         26.4303  -43.8777  -57.8804 C.3       10 UNK         0.0855 
     19 C          26.4358  -43.9981  -59.4344 C.2       10 UNK         0.5543 
     20 N          25.9873  -45.0981  -60.0298 N.am      10 UNK        -0.7343 
     21 O          26.8433  -43.0625  -60.1185 O.2       10 UNK        -0.5027 
     22 N          25.9214  -45.0727  -57.1934 N.am      10 UNK        -0.4495 
     23 C          24.6258  -45.3491  -57.0084 C.2       10 UNK         0.4903 
     24 O          23.7079  -44.6000  -57.3476 O.2       10 UNK        -0.4860 
     25 CA         24.3144  -46.6983  -56.3372 C.3       9 UNK         0.0227 
     26 CB         22.8278  -47.1005  -56.4451 C.3       9 UNK        -0.1964 
     27 N          25.1853  -47.7817  -56.8085 N.am      9 UNK        -0.4231 
     28 C          25.2945  -48.2627  -58.0579 C.2       9 UNK         0.5014 
     29 O          24.6790  -47.7924  -59.0162 O.2       9 UNK        -0.5270 
     30 CA         26.2532  -49.4504  -58.3030 C.3       8 UNK         0.0284 
     31 CB         27.1328  -49.2107  -59.5435 C.3       8 UNK        -0.1977 
     32 N          27.1189  -49.7642  -57.1626 N.am      8 UNK        -0.4342 
     33 C          26.7435  -50.3980  -56.0430 C.2       8 UNK         0.5039 
     34 O          25.6285  -50.8933  -55.8800 O.2       8 UNK        -0.5547 
     35 CA         27.7570  -50.4243  -54.8836 C.3       7 UNK         0.0281 
     36 CB         28.5842  -51.7173  -54.9201 C.3       7 UNK        -0.1963 
     37 N          28.6525  -49.2603  -54.8664 N.am      7 UNK        -0.4444 
     38 C          28.2549  -47.9885  -54.7090 C.2       7 UNK         0.5104 
     39 O          27.0821  -47.6579  -54.5345 O.2       7 UNK        -0.5100 
     40 CA         29.3348  -46.9000  -54.8086 C.3       6 UNK         0.0396 
     41 CB         30.0420  -46.7007  -53.4602 C.3       6 UNK        -0.1801 
     42 N          30.3197  -47.1876  -55.8534 N.am      6 UNK        -0.4747 
     43 C          30.0725  -47.0906  -57.1684 C.2       6 UNK         0.5012 
     44 O          28.9880  -46.7347  -57.6310 O.2       6 UNK        -0.5003 
     45 CA         31.2075  -47.5269  -58.1235 C.3       5 UNK         0.0782 
     46 C46        32.3207  -46.4587  -58.2527 C.3       11 UNK        -0.0868 
     47 S47        31.8210  -44.9976  -59.2194 S.3       11 UNK        -0.2515 
     48 C48        32.7966  -43.6887  -58.4071 C.3       11 UNK         0.0199 
     49 N          31.7910  -48.8107  -57.7285 N.am      5 UNK        -0.4607 
     50 C          31.1446  -49.9817  -57.6685 C.2       4 UNK         0.5031 
     51 O          29.9702  -50.1361  -57.9983 O.2       4 UNK        -0.5119 
     52 CA         31.9379  -51.1722  -57.0951 C.3       4 UNK         0.0263 
     53 CB         32.6826  -51.9090  -58.2195 C.3       4 UNK        -0.1967 
     54 N          32.8886  -50.8032  -56.0359 N.am      4 UNK        -0.4237 
     55 C          32.5700  -50.1460  -54.9113 C.2       3 UNK         0.4908 
     56 O          31.4264  -49.7700  -54.6431 O.2       3 UNK        -0.5102 
     57 CA         33.7340  -49.7893  -53.9728 C.3       3 UNK         0.0241 
     58 CB         34.6302  -48.7133  -54.6117 C.3       3 UNK        -0.1971 
     59 N          33.2357  -49.2780  -52.6966 N.am      3 UNK        -0.4139 
     60 C          32.7299  -50.0254  -51.7061 C.2       2 UNK         0.5016 
     61 O          32.7364  -51.2581  -51.7121 O.2       2 UNK        -0.5319 
     62 CA         32.0896  -49.2685  -50.5213 C.3       2 UNK         0.0286 
     63 CB         32.2567  -50.0148  -49.1801 C.3       2 UNK        -0.1963 
     64 N          32.5207  -47.8658  -50.4038 N.am      2 UNK        -0.4790 
     65 C          33.7602  -47.4114  -50.1514 C.2       1 UNK         0.5024 
     66 O          34.7275  -48.1406  -49.9295 O.2       1 UNK        -0.4888 
     67 H67        30.9659  -43.3686  -47.9833 H         1 UNK         0.0892 
     68 H68        30.0249  -44.8216  -48.3309 H         1 UNK         0.0892 
     69 H69        30.5794  -43.7917  -49.6521 H         1 UNK         0.0892 
     70 H70        32.3394  -44.6624  -50.7337 H         1 UNK         0.3107 
     71 H71        34.6627  -45.6573  -49.3718 H         1 UNK         0.0773 
     72 H72        35.0422  -44.4284  -51.3797 H         1 UNK         0.0680 
     73 H73        35.5332  -46.0561  -51.7079 H         1 UNK         0.0680 
     74 H74        34.4934  -43.3571  -53.5880 H         1 UNK         0.0650 
     75 H75        33.1266  -43.1658  -52.5174 H         1 UNK         0.0650 
     76 H76        34.0560  -44.1475  -56.0099 H         1 UNK         0.1397 
     77 H77        30.4551  -42.5479  -57.6879 H         1 UNK         0.1363 
     78 H78        30.9491  -42.7037  -53.4300 H         1 UNK         0.1355 
     79 H79        29.0293  -41.1310  -56.0783 H         1 UNK         0.0707 
     80 H80        29.0943  -41.4804  -54.3727 H         1 UNK         0.0707 
     81 H81        28.5721  -44.2016  -57.5728 H         1 UNK         0.1034 
     82 H82        28.1335  -42.5327  -57.8315 H         1 UNK         0.1034 
     83 H83        25.7469  -43.0548  -57.6624 H         1 UNK         0.0482 
     84 H84        25.6138  -45.8688  -59.4913 H         1 UNK         0.3460 
     85 H85        25.9957  -45.1487  -61.0358 H         1 UNK         0.3460 
     86 H86        26.6166  -45.7485  -56.9084 H         1 UNK         0.2989 
     87 H87        24.5419  -46.5676  -55.2784 H         1 UNK         0.0559 
     88 H88        22.6364  -48.0500  -55.9454 H         1 UNK         0.0848 
     89 H89        22.5079  -47.1971  -57.4832 H         1 UNK         0.0848 
     90 H90        22.1857  -46.3539  -55.9763 H         1 UNK         0.0848 
     91 H91        25.7857  -48.1783  -56.0939 H         1 UNK         0.3144 
     92 H92        25.6262  -50.3218  -58.5018 H         1 UNK         0.0727 
     93 H93        27.7798  -50.0653  -59.7422 H         1 UNK         0.0790 
     94 H94        27.7666  -48.3317  -59.4238 H         1 UNK         0.0790 
     95 H95        26.5253  -49.0553  -60.4360 H         1 UNK         0.0790 
     96 H96        28.0831  -49.4569  -57.2349 H         1 UNK         0.3215 
     97 H97        27.1899  -50.4090  -53.9505 H         1 UNK         0.0863 
     98 H98        29.3334  -51.7390  -54.1282 H         1 UNK         0.0808 
     99 H99        29.0949  -51.8356  -55.8745 H         1 UNK         0.0808 
    100 H100       27.9436  -52.5901  -54.7873 H         1 UNK         0.0808 
    101 H101       29.6520  -49.4444  -54.9442 H         1 UNK         0.3118 
    102 H102       28.8349  -45.9633  -55.0624 H         1 UNK         0.0546 
    103 H103       30.6356  -47.5703  -53.1776 H         1 UNK         0.0828 
    104 H104       29.3193  -46.5222  -52.6630 H         1 UNK         0.0828 
    105 H105       30.7005  -45.8339  -53.4948 H         1 UNK         0.0828 
    106 H106       31.2040  -47.5693  -55.5498 H         1 UNK         0.3005 
    107 H107       30.7561  -47.6759  -59.1073 H         1 UNK         0.1257 
    108 H108       32.6809  -46.1605  -57.2671 H         1 UNK         0.0775 
    109 H109       33.1852  -46.8828  -58.7663 H         1 UNK         0.0775 
    110 H110       33.8497  -43.9743  -58.3986 H         1 UNK         0.0840 
    111 H111       32.7319  -42.7778  -59.0040 H         1 UNK         0.0840 
    112 H112       32.7571  -48.7929  -57.4393 H         1 UNK         0.2987 
    113 H113       31.2209  -51.8668  -56.6568 H         1 UNK         0.0785 
    114 H114       31.9937  -52.2127  -59.0092 H         1 UNK         0.0798 
    115 H115       33.1660  -52.8137  -57.8503 H         1 UNK         0.0798 
    116 H116       33.4477  -51.2814  -58.6785 H         1 UNK         0.0798 
    117 H117       33.8515  -51.0711  -56.1832 H         1 UNK         0.3079 
    118 H118       34.3252  -50.6888  -53.7886 H         1 UNK         0.0794 
    119 H119       35.1157  -49.0847  -55.5147 H         1 UNK         0.0786 
    120 H120       35.4218  -48.4011  -53.9299 H         1 UNK         0.0786 
    121 H121       34.0619  -47.8245  -54.8896 H         1 UNK         0.0786 
    122 H122       33.1677  -48.2748  -52.6104 H         1 UNK         0.3032 
    123 H123       31.0216  -49.2373  -50.7438 H         1 UNK         0.1094 
    124 H124       31.7918  -49.4670  -48.3604 H         1 UNK         0.0794 
    125 H125       31.7859  -50.9980  -49.2181 H         1 UNK         0.0794 
    126 H126       33.3061  -50.1696  -48.9286 H         1 UNK         0.0794 
    127 H127       31.8035  -47.1732  -50.5676 H         1 UNK         0.3016 
@<TRIPOS>BOND
     1    1    2 1    
     2    1   67 1    
     3    1   68 1    
     4    1   69 1    
     5    2    3 2    
     6    2    4 am   BACKBONE|DICT|INTERRES
     7    4    5 1    
     8    4   70 1    
     9    5    6 1    
    10    5   65 1    
    11    5   71 1    
    12    6    7 1    
    13    6   72 1    
    14    6   73 1    
    15    7    8 1    
    16    8    9 1    
    17    8   74 1    
    18    8   75 1    
    19    9   10 ar   
    20    9   14 ar   
    21   10   11 ar   
    22   10   76 1    
    23   11   12 ar   
    24   11   48 1    
    25   12   13 ar   
    26   12   77 1    
    27   13   14 ar   
    28   13   15 1    
    29   14   78 1    
    30   15   16 1    
    31   15   79 1    
    32   15   80 1    
    33   16   17 1    
    34   17   18 1    
    35   17   81 1    
    36   17   82 1    
    37   18   19 1    
    38   18   22 1    
    39   18   83 1    
    40   19   20 am   BACKBONE|DICT|INTERRES
    41   19   21 2    
    42   20   84 1    
    43   20   85 1    
    44   22   23 am   BACKBONE|DICT|INTERRES
    45   22   86 1    
    46   23   24 2    
    47   23   25 1    
    48   25   26 1    
    49   25   27 1    
    50   25   87 1    
    51   26   88 1    
    52   26   89 1    
    53   26   90 1    
    54   27   28 am   BACKBONE|DICT|INTERRES
    55   27   91 1    
    56   28   29 2    
    57   28   30 1    
    58   30   31 1    
    59   30   32 1    
    60   30   92 1    
    61   31   93 1    
    62   31   94 1    
    63   31   95 1    
    64   32   33 am   BACKBONE|DICT|INTERRES
    65   32   96 1    
    66   33   34 2    
    67   33   35 1    
    68   35   36 1    
    69   35   37 1    
    70   35   97 1    
    71   36   98 1    
    72   36   99 1    
    73   36  100 1    
    74   37   38 am   BACKBONE|DICT|INTERRES
    75   37  101 1    
    76   38   39 2    
    77   38   40 1    
    78   40   41 1    
    79   40   42 1    
    80   40  102 1    
    81   41  103 1    
    82   41  104 1    
    83   41  105 1    
    84   42   43 am   BACKBONE|DICT|INTERRES
    85   42  106 1    
    86   43   44 2    
    87   43   45 1    
    88   45   46 1    
    89   45   49 1    
    90   45  107 1    
    91   46   47 1    
    92   46  108 1    
    93   46  109 1    
    94   47   48 1    
    95   48  110 1    
    96   48  111 1    
    97   49   50 am   BACKBONE|DICT|INTERRES
    98   49  112 1    
    99   50   51 2    
   100   50   52 1    
   101   52   53 1    
   102   52   54 1    
   103   52  113 1    
   104   53  114 1    
   105   53  115 1    
   106   53  116 1    
   107   54   55 am   BACKBONE|DICT|INTERRES
   108   54  117 1    
   109   55   56 2    
   110   55   57 1    
   111   57   58 1    
   112   57   59 1    
   113   57  118 1    
   114   58  119 1    
   115   58  120 1    
   116   58  121 1    
   117   59   60 am   BACKBONE|DICT|INTERRES
   118   59  122 1    
   119   60   61 2    
   120   60   62 1    
   121   62   63 1    
   122   62   64 1    
   123   62  123 1    
   124   63  124 1    
   125   63  125 1    
   126   63  126 1    
   127   64   65 am   BACKBONE|DICT|INTERRES
   128   64  127 1    
   129   65   66 2    
@<TRIPOS>SUBSTRUCTURE
     1 UNK         1 GROUP             0       ****    0 ROOT    
