@<TRIPOS>MOLECULE
3R134
127   129    1
SMALL
USER_CHARGES


@<TRIPOS>ATOM
      1 CA         32.0151  -49.6442  -58.1759 C.3       0 UNK        -0.1968 
      2 C          32.4246  -49.1125  -56.8119 C.2       0 UNK         0.4852 
      3 O          32.3559  -49.8499  -55.8291 O.2       0 UNK        -0.5359 
      4 N          32.8689  -47.8479  -56.7478 N.am      1 UNK        -0.4300 
      5 CA         33.2186  -47.1077  -55.5229 C.3       1 UNK         0.0863 
      6 C6         33.6727  -45.6563  -55.8269 C.3       11 UNK        -0.0953 
      7 S7         32.5129  -44.7317  -56.8909 S.3       11 UNK        -0.2369 
      8 C8         32.6453  -43.0420  -56.2301 C.3       11 UNK         0.0226 
      9 C9         31.5695  -42.7454  -55.1950 C.ar      11 UNK        -0.0699 
     10 C10        31.7902  -43.0227  -53.8422 C.ar      11 UNK        -0.0804 
     11 C11        30.8172  -42.7118  -52.8869 C.ar      11 UNK        -0.0871 
     12 C12        29.6208  -42.1139  -53.2929 C.ar      11 UNK        -0.1008 
     13 C13        29.3896  -41.8263  -54.6405 C.ar      11 UNK        -0.0735 
     14 C14        30.3649  -42.1513  -55.5887 C.ar      11 UNK        -0.0945 
     15 C15        28.1006  -41.1285  -55.0534 C.3       11 UNK         0.0169 
     16 S16        26.7044  -42.2901  -55.1526 S.3       11 UNK        -0.2669 
     17 C17        27.0096  -43.0774  -56.7696 C.3       11 UNK        -0.0850 
     18 CA         25.7707  -43.0334  -57.7137 C.3       10 UNK         0.0855 
     19 C          25.5872  -41.6799  -58.4710 C.2       10 UNK         0.5543 
     20 N          24.9481  -41.6708  -59.6347 N.am      10 UNK        -0.7343 
     21 O          26.0041  -40.6245  -58.0008 O.2       10 UNK        -0.5027 
     22 N          25.7141  -44.2348  -58.5638 N.am      10 UNK        -0.4495 
     23 C          26.6047  -44.5532  -59.5110 C.2       10 UNK         0.4903 
     24 O          27.5260  -43.8206  -59.8752 O.2       10 UNK        -0.4860 
     25 CA         26.5082  -45.9770  -60.0793 C.3       9 UNK         0.0227 
     26 CB         26.7319  -46.0055  -61.6016 C.3       9 UNK        -0.1964 
     27 N          27.5274  -46.7910  -59.4185 N.am      9 UNK        -0.4231 
     28 C          27.4270  -47.2458  -58.1628 C.2       9 UNK         0.5014 
     29 O          26.3884  -47.2072  -57.4979 O.2       9 UNK        -0.5270 
     30 CA         28.7371  -47.7344  -57.5238 C.3       8 UNK         0.0284 
     31 CB         29.4635  -46.5377  -56.8910 C.3       8 UNK        -0.1977 
     32 N          28.5232  -48.7399  -56.4861 N.am      8 UNK        -0.4342 
     33 C          27.9968  -49.9569  -56.6702 C.2       8 UNK         0.5039 
     34 O          27.7128  -50.4254  -57.7738 O.2       8 UNK        -0.5547 
     35 CA         27.7457  -50.7956  -55.4067 C.3       7 UNK         0.0281 
     36 CB         28.9384  -51.7284  -55.1331 C.3       7 UNK        -0.1963 
     37 N          27.4926  -49.9507  -54.2336 N.am      7 UNK        -0.4444 
     38 C          26.2941  -49.4327  -53.9225 C.2       7 UNK         0.5104 
     39 O          25.2643  -49.6766  -54.5520 O.2       7 UNK        -0.5100 
     40 CA         26.2074  -48.5042  -52.6944 C.3       6 UNK         0.0396 
     41 CB         25.6652  -49.2781  -51.4818 C.3       6 UNK        -0.1801 
     42 N          27.4879  -47.8926  -52.3323 N.am      6 UNK        -0.4747 
     43 C          28.0427  -46.8383  -52.9508 C.2       6 UNK         0.5012 
     44 O          27.4908  -46.2100  -53.8519 O.2       6 UNK        -0.5003 
     45 CA         29.4743  -46.4496  -52.5137 C.3       5 UNK         0.0782 
     46 C46        29.4402  -45.3172  -51.4596 C.3       11 UNK        -0.0868 
     47 S47        31.1232  -44.7595  -51.0191 S.3       11 UNK        -0.2515 
     48 C48        31.0702  -42.9824  -51.4102 C.3       11 UNK         0.0199 
     49 N          30.2425  -47.6083  -52.0331 N.am      5 UNK        -0.4607 
     50 C          30.5539  -48.6763  -52.7729 C.2       4 UNK         0.5031 
     51 O          30.2379  -48.7948  -53.9568 O.2       4 UNK        -0.5119 
     52 CA         31.2096  -49.8444  -52.0352 C.3       4 UNK         0.0263 
     53 CB         30.1144  -50.7440  -51.4219 C.3       4 UNK        -0.1967 
     54 N          32.0538  -50.5975  -52.9604 N.am      4 UNK        -0.4237 
     55 C          32.9031  -51.5729  -52.6072 C.2       3 UNK         0.4908 
     56 O          33.0461  -51.9813  -51.4539 O.2       3 UNK        -0.5102 
     57 CA         33.7761  -52.1681  -53.7188 C.3       3 UNK         0.0241 
     58 CB         32.9393  -52.9709  -54.7310 C.3       3 UNK        -0.1971 
     59 N          34.5103  -51.0990  -54.3927 N.am      3 UNK        -0.4139 
     60 C          35.6831  -50.6071  -53.9655 C.2       2 UNK         0.5016 
     61 O          36.3321  -51.0934  -53.0382 O.2       2 UNK        -0.5319 
     62 CA         36.2376  -49.3613  -54.6814 C.3       2 UNK         0.0286 
     63 CB         37.2758  -49.7670  -55.7401 C.3       2 UNK        -0.1963 
     64 N          35.2033  -48.5413  -55.3155 N.am      2 UNK        -0.4790 
     65 C          34.2879  -47.8117  -54.6597 C.2       1 UNK         0.5024 
     66 O          34.2553  -47.6950  -53.4346 O.2       1 UNK        -0.4888 
     67 H67        32.7130  -50.4147  -58.5016 H         1 UNK         0.0892 
     68 H68        31.0216  -50.0884  -58.1182 H         1 UNK         0.0892 
     69 H69        31.9932  -48.8585  -58.9307 H         1 UNK         0.0892 
     70 H70        32.9079  -47.2973  -57.5940 H         1 UNK         0.3107 
     71 H71        32.3112  -47.0585  -54.9176 H         1 UNK         0.0773 
     72 H72        33.8087  -45.1102  -54.8922 H         1 UNK         0.0680 
     73 H73        34.6445  -45.6533  -56.3248 H         1 UNK         0.0680 
     74 H74        32.5563  -42.3414  -57.0617 H         1 UNK         0.0650 
     75 H75        33.6382  -42.8780  -55.8087 H         1 UNK         0.0650 
     76 H76        32.7218  -43.4721  -53.5275 H         1 UNK         0.1397 
     77 H77        28.8678  -41.8595  -52.5592 H         1 UNK         0.1363 
     78 H78        30.1959  -41.9249  -56.6325 H         1 UNK         0.1355 
     79 H79        27.8590  -40.3565  -54.3213 H         1 UNK         0.0707 
     80 H80        28.2224  -40.6104  -56.0061 H         1 UNK         0.0707 
     81 H81        27.8838  -42.6474  -57.2607 H         1 UNK         0.1034 
     82 H82        27.2800  -44.1117  -56.5504 H         1 UNK         0.1034 
     83 H83        24.8815  -43.1152  -57.0876 H         1 UNK         0.0482 
     84 H84        24.5983  -42.5288  -60.0305 H         1 UNK         0.3460 
     85 H85        24.8228  -40.7986  -60.1239 H         1 UNK         0.3460 
     86 H86        25.0102  -44.9158  -58.3143 H         1 UNK         0.2989 
     87 H87        25.5179  -46.3886  -59.8719 H         1 UNK         0.0559 
     88 H88        25.9903  -45.3912  -62.1139 H         1 UNK         0.0848 
     89 H89        26.6413  -47.0178  -61.9959 H         1 UNK         0.0848 
     90 H90        27.7160  -45.6256  -61.8793 H         1 UNK         0.0848 
     91 H91        28.4288  -46.8267  -59.8730 H         1 UNK         0.3144 
     92 H92        29.3699  -48.1765  -58.2951 H         1 UNK         0.0727 
     93 H93        28.8286  -46.0113  -56.1778 H         1 UNK         0.0790 
     94 H94        29.7650  -45.8143  -57.6495 H         1 UNK         0.0790 
     95 H95        30.3586  -46.8486  -56.3572 H         1 UNK         0.0790 
     96 H96        28.7804  -48.4773  -55.5432 H         1 UNK         0.3215 
     97 H97        26.8686  -51.4195  -55.5929 H         1 UNK         0.0863 
     98 H98        29.8628  -51.1739  -54.9713 H         1 UNK         0.0808 
     99 H99        29.1099  -52.3946  -55.9795 H         1 UNK         0.0808 
    100 H100       28.7621  -52.3561  -54.2601 H         1 UNK         0.0808 
    101 H101       28.3057  -49.6537  -53.7104 H         1 UNK         0.3118 
    102 H102       25.4976  -47.7091  -52.9333 H         1 UNK         0.0546 
    103 H103       26.3318  -50.0897  -51.1874 H         1 UNK         0.0828 
    104 H104       24.6932  -49.7207  -51.7047 H         1 UNK         0.0828 
    105 H105       25.5298  -48.6237  -50.6206 H         1 UNK         0.0828 
    106 H106       28.0060  -48.3311  -51.5851 H         1 UNK         0.3005 
    107 H107       29.9782  -46.0689  -53.4061 H         1 UNK         0.1257 
    108 H108       28.9427  -45.6531  -50.5478 H         1 UNK         0.0775 
    109 H109       28.8570  -44.4708  -51.8262 H         1 UNK         0.0775 
    110 H110       30.3104  -42.5050  -50.7891 H         1 UNK         0.0840 
    111 H111       32.0214  -42.5315  -51.1237 H         1 UNK         0.0840 
    112 H112       30.5373  -47.5710  -51.0677 H         1 UNK         0.2987 
    113 H113       31.8443  -49.4436  -51.2420 H         1 UNK         0.0785 
    114 H114       29.4472  -50.1722  -50.7760 H         1 UNK         0.0798 
    115 H115       30.5379  -51.5371  -50.8065 H         1 UNK         0.0798 
    116 H116       29.5019  -51.2145  -52.1909 H         1 UNK         0.0798 
    117 H117       32.0041  -50.2954  -53.9334 H         1 UNK         0.3079 
    118 H118       34.4856  -52.8596  -53.2588 H         1 UNK         0.0794 
    119 H119       33.5705  -53.4081  -55.5047 H         1 UNK         0.0786 
    120 H120       32.1836  -52.3604  -55.2246 H         1 UNK         0.0786 
    121 H121       32.4179  -53.7912  -54.2363 H         1 UNK         0.0786 
    122 H122       33.9990  -50.5957  -55.1118 H         1 UNK         0.3032 
    123 H123       36.7373  -48.7507  -53.9257 H         1 UNK         0.1094 
    124 H124       36.8311  -50.3704  -56.5325 H         1 UNK         0.0794 
    125 H125       37.7371  -48.8928  -56.2002 H         1 UNK         0.0794 
    126 H126       38.0781  -50.3564  -55.2936 H         1 UNK         0.0794 
    127 H127       35.1480  -48.5753  -56.3234 H         1 UNK         0.3016 
@<TRIPOS>BOND
     1    1    2 1    
     2    1   67 1    
     3    1   68 1    
     4    1   69 1    
     5    2    3 2    
     6    2    4 am   BACKBONE|DICT|INTERRES
     7    4    5 1    
     8    4   70 1    
     9    5    6 1    
    10    5   65 1    
    11    5   71 1    
    12    6    7 1    
    13    6   72 1    
    14    6   73 1    
    15    7    8 1    
    16    8    9 1    
    17    8   74 1    
    18    8   75 1    
    19    9   10 ar   
    20    9   14 ar   
    21   10   11 ar   
    22   10   76 1    
    23   11   12 ar   
    24   11   48 1    
    25   12   13 ar   
    26   12   77 1    
    27   13   14 ar   
    28   13   15 1    
    29   14   78 1    
    30   15   16 1    
    31   15   79 1    
    32   15   80 1    
    33   16   17 1    
    34   17   18 1    
    35   17   81 1    
    36   17   82 1    
    37   18   19 1    
    38   18   22 1    
    39   18   83 1    
    40   19   20 am   BACKBONE|DICT|INTERRES
    41   19   21 2    
    42   20   84 1    
    43   20   85 1    
    44   22   23 am   BACKBONE|DICT|INTERRES
    45   22   86 1    
    46   23   24 2    
    47   23   25 1    
    48   25   26 1    
    49   25   27 1    
    50   25   87 1    
    51   26   88 1    
    52   26   89 1    
    53   26   90 1    
    54   27   28 am   BACKBONE|DICT|INTERRES
    55   27   91 1    
    56   28   29 2    
    57   28   30 1    
    58   30   31 1    
    59   30   32 1    
    60   30   92 1    
    61   31   93 1    
    62   31   94 1    
    63   31   95 1    
    64   32   33 am   BACKBONE|DICT|INTERRES
    65   32   96 1    
    66   33   34 2    
    67   33   35 1    
    68   35   36 1    
    69   35   37 1    
    70   35   97 1    
    71   36   98 1    
    72   36   99 1    
    73   36  100 1    
    74   37   38 am   BACKBONE|DICT|INTERRES
    75   37  101 1    
    76   38   39 2    
    77   38   40 1    
    78   40   41 1    
    79   40   42 1    
    80   40  102 1    
    81   41  103 1    
    82   41  104 1    
    83   41  105 1    
    84   42   43 am   BACKBONE|DICT|INTERRES
    85   42  106 1    
    86   43   44 2    
    87   43   45 1    
    88   45   46 1    
    89   45   49 1    
    90   45  107 1    
    91   46   47 1    
    92   46  108 1    
    93   46  109 1    
    94   47   48 1    
    95   48  110 1    
    96   48  111 1    
    97   49   50 am   BACKBONE|DICT|INTERRES
    98   49  112 1    
    99   50   51 2    
   100   50   52 1    
   101   52   53 1    
   102   52   54 1    
   103   52  113 1    
   104   53  114 1    
   105   53  115 1    
   106   53  116 1    
   107   54   55 am   BACKBONE|DICT|INTERRES
   108   54  117 1    
   109   55   56 2    
   110   55   57 1    
   111   57   58 1    
   112   57   59 1    
   113   57  118 1    
   114   58  119 1    
   115   58  120 1    
   116   58  121 1    
   117   59   60 am   BACKBONE|DICT|INTERRES
   118   59  122 1    
   119   60   61 2    
   120   60   62 1    
   121   62   63 1    
   122   62   64 1    
   123   62  123 1    
   124   63  124 1    
   125   63  125 1    
   126   63  126 1    
   127   64   65 am   BACKBONE|DICT|INTERRES
   128   64  127 1    
   129   65   66 2    
@<TRIPOS>SUBSTRUCTURE
     1 UNK         1 GROUP             0       ****    0 ROOT    
