@<TRIPOS>MOLECULE
3R134
127   129    1
SMALL
USER_CHARGES


@<TRIPOS>ATOM
      1 CA         32.1232  -44.3182  -59.4490 C.3       0 UNK        -0.1968 
      2 C          31.8640  -45.0362  -58.1337 C.2       0 UNK         0.4852 
      3 O          30.7728  -45.5701  -57.9373 O.2       0 UNK        -0.5359 
      4 N          32.8613  -45.0554  -57.2379 N.am      1 UNK        -0.4300 
      5 CA         32.7893  -45.6642  -55.9013 C.3       1 UNK         0.0863 
      6 C6         33.9040  -45.1466  -54.9578 C.3       11 UNK        -0.0953 
      7 S7         33.9273  -43.3293  -54.8037 S.3       11 UNK        -0.2369 
      8 C8         33.1032  -43.0711  -53.1928 C.3       11 UNK         0.0226 
      9 C9         31.5925  -43.3144  -53.1840 C.ar      11 UNK        -0.0699 
     10 C10        30.9737  -43.7044  -51.9905 C.ar      11 UNK        -0.0804 
     11 C11        29.5862  -43.8720  -51.9217 C.ar      11 UNK        -0.0871 
     12 C12        28.8151  -43.6724  -53.0719 C.ar      11 UNK        -0.1008 
     13 C13        29.4183  -43.2932  -54.2741 C.ar      11 UNK        -0.0735 
     14 C14        30.8007  -43.0986  -54.3190 C.ar      11 UNK        -0.0945 
     15 C15        28.5857  -43.1129  -55.5334 C.3       11 UNK         0.0169 
     16 S16        27.8980  -41.4333  -55.6527 S.3       11 UNK        -0.2669 
     17 C17        28.2716  -40.9876  -57.3856 C.3       11 UNK        -0.0850 
     18 CA         27.1015  -41.2977  -58.3681 C.3       10 UNK         0.0855 
     19 C          27.2898  -40.6181  -59.7609 C.2       10 UNK         0.5543 
     20 N          26.8188  -41.2089  -60.8525 N.am      10 UNK        -0.7343 
     21 O          27.8385  -39.5226  -59.8546 O.2       10 UNK        -0.5027 
     22 N          26.7558  -42.7329  -58.4235 N.am      10 UNK        -0.4495 
     23 C          27.5555  -43.7167  -58.8557 C.2       10 UNK         0.4903 
     24 O          28.6966  -43.5443  -59.2844 O.2       10 UNK        -0.4860 
     25 CA         26.9841  -45.1360  -58.8014 C.3       9 UNK         0.0227 
     26 CB         26.7888  -45.7163  -60.2125 C.3       9 UNK        -0.1964 
     27 N          27.9038  -45.9765  -58.0397 N.am      9 UNK        -0.4231 
     28 C          27.5367  -46.9484  -57.1976 C.2       9 UNK         0.5014 
     29 O          26.3664  -47.2899  -57.0037 O.2       9 UNK        -0.5270 
     30 CA         28.6758  -47.6026  -56.4021 C.3       8 UNK         0.0284 
     31 CB         29.1334  -46.6714  -55.2735 C.3       8 UNK        -0.1977 
     32 N          28.2996  -48.8864  -55.8127 N.am      8 UNK        -0.4342 
     33 C          28.2164  -50.0432  -56.4814 C.2       8 UNK         0.5039 
     34 O          28.3762  -50.1353  -57.6998 O.2       8 UNK        -0.5547 
     35 CA         27.9548  -51.3253  -55.6670 C.3       7 UNK         0.0281 
     36 CB         29.0988  -52.3363  -55.8707 C.3       7 UNK        -0.1963 
     37 N          27.8322  -51.0592  -54.2310 N.am      7 UNK        -0.4444 
     38 C          26.7036  -51.1687  -53.5169 C.2       7 UNK         0.5104 
     39 O          25.6293  -51.5414  -53.9897 O.2       7 UNK        -0.5100 
     40 CA         26.7681  -50.8052  -52.0175 C.3       6 UNK         0.0396 
     41 CB         26.8798  -52.0804  -51.1666 C.3       6 UNK        -0.1801 
     42 N          27.8572  -49.8927  -51.6517 N.am      6 UNK        -0.4747 
     43 C          28.0083  -48.6431  -52.1164 C.2       6 UNK         0.5012 
     44 O          27.2212  -48.1193  -52.9039 O.2       6 UNK        -0.5003 
     45 CA         29.2932  -47.8854  -51.6987 C.3       5 UNK         0.0782 
     46 C46        29.0845  -47.0320  -50.4228 C.3       11 UNK        -0.0868 
     47 S47        27.8742  -45.6792  -50.6289 S.3       11 UNK        -0.2515 
     48 C48        28.9150  -44.1834  -50.5878 C.3       11 UNK         0.0199 
     49 N          30.4707  -48.7581  -51.5572 N.am      5 UNK        -0.4607 
     50 C          30.9316  -49.6275  -52.4682 C.2       4 UNK         0.5031 
     51 O          30.3792  -49.8619  -53.5467 O.2       4 UNK        -0.5119 
     52 CA         32.1784  -50.4262  -52.0752 C.3       4 UNK         0.0263 
     53 CB         31.7962  -51.5759  -51.1206 C.3       4 UNK        -0.1967 
     54 N          32.7729  -50.9516  -53.2991 N.am      4 UNK        -0.4237 
     55 C          33.9735  -51.5285  -53.4295 C.2       3 UNK         0.4908 
     56 O          34.7629  -51.6909  -52.4982 O.2       3 UNK        -0.5102 
     57 CA         34.3623  -52.0182  -54.8369 C.3       3 UNK         0.0241 
     58 CB         33.9839  -53.4985  -55.0111 C.3       3 UNK        -0.1971 
     59 N          33.7333  -51.2317  -55.9012 N.am      3 UNK        -0.4139 
     60 C          34.1301  -50.0067  -56.2715 C.2       2 UNK         0.5016 
     61 O          35.1511  -49.4637  -55.8415 O.2       2 UNK        -0.5319 
     62 CA         33.2516  -49.2636  -57.3024 C.3       2 UNK         0.0286 
     63 CB         31.8188  -49.8319  -57.4252 C.3       2 UNK        -0.1963 
     64 N          33.1922  -47.8168  -57.0521 N.am      2 UNK        -0.4790 
     65 C          32.7886  -47.2078  -55.9240 C.2       1 UNK         0.5024 
     66 O          32.4290  -47.8095  -54.9127 O.2       1 UNK        -0.4888 
     67 H67        31.9340  -44.9900  -60.2856 H         1 UNK         0.0892 
     68 H68        31.4549  -43.4627  -59.5432 H         1 UNK         0.0892 
     69 H69        33.1493  -43.9592  -59.5252 H         1 UNK         0.0892 
     70 H70        33.7293  -44.5845  -57.4510 H         1 UNK         0.3107 
     71 H71        31.8332  -45.3750  -55.4654 H         1 UNK         0.0773 
     72 H72        34.8841  -45.4628  -55.3198 H         1 UNK         0.0680 
     73 H73        33.7965  -45.5819  -53.9623 H         1 UNK         0.0680 
     74 H74        33.2781  -42.0393  -52.8861 H         1 UNK         0.0650 
     75 H75        33.5930  -43.6987  -52.4465 H         1 UNK         0.0650 
     76 H76        31.5733  -43.8430  -51.1010 H         1 UNK         0.1397 
     77 H77        27.7420  -43.8007  -53.0281 H         1 UNK         0.1363 
     78 H78        31.2553  -42.7814  -55.2470 H         1 UNK         0.1355 
     79 H79        27.7647  -43.8314  -55.5466 H         1 UNK         0.0707 
     80 H80        29.1988  -43.3416  -56.4060 H         1 UNK         0.0707 
     81 H81        28.4839  -39.9170  -57.3814 H         1 UNK         0.1034 
     82 H82        29.1982  -41.4612  -57.7126 H         1 UNK         0.1034 
     83 H83        26.2140  -40.8118  -57.9611 H         1 UNK         0.0482 
     84 H84        26.9336  -40.7591  -61.7471 H         1 UNK         0.3460 
     85 H85        26.3576  -42.1018  -60.7899 H         1 UNK         0.3460 
     86 H86        25.8264  -42.9655  -58.1035 H         1 UNK         0.2989 
     87 H87        26.0142  -45.1010  -58.3003 H         1 UNK         0.0559 
     88 H88        27.7326  -45.7796  -60.7558 H         1 UNK         0.0848 
     89 H89        26.1124  -45.0956  -60.8012 H         1 UNK         0.0848 
     90 H90        26.3589  -46.7173  -60.1722 H         1 UNK         0.0848 
     91 H91        28.8928  -45.7277  -58.1063 H         1 UNK         0.3144 
     92 H92        29.5173  -47.7718  -57.0767 H         1 UNK         0.0727 
     93 H93        29.5251  -45.7402  -55.6750 H         1 UNK         0.0790 
     94 H94        29.9335  -47.1267  -54.6943 H         1 UNK         0.0790 
     95 H95        28.3175  -46.4140  -54.5978 H         1 UNK         0.0790 
     96 H96        28.0742  -48.8783  -54.8267 H         1 UNK         0.3215 
     97 H97        27.0351  -51.7659  -56.0571 H         1 UNK         0.0863 
     98 H98        30.0516  -51.9413  -55.5165 H         1 UNK         0.0808 
     99 H99        29.2202  -52.5878  -56.9252 H         1 UNK         0.0808 
    100 H100       28.9035  -53.2669  -55.3379 H         1 UNK         0.0808 
    101 H101       28.6754  -50.7159  -53.7764 H         1 UNK         0.3118 
    102 H102       25.8284  -50.3092  -51.7658 H         1 UNK         0.0546 
    103 H103       27.8154  -52.6093  -51.3533 H         1 UNK         0.0828 
    104 H104       26.0656  -52.7715  -51.3896 H         1 UNK         0.0828 
    105 H105       26.8261  -51.8550  -50.1015 H         1 UNK         0.0828 
    106 H106       28.5623  -50.2549  -51.0261 H         1 UNK         0.3005 
    107 H107       29.5274  -47.1932  -52.5068 H         1 UNK         0.1257 
    108 H108       28.7582  -47.6604  -49.5919 H         1 UNK         0.0775 
    109 H109       30.0353  -46.5982  -50.1097 H         1 UNK         0.0775 
    110 H110       28.2815  -43.3359  -50.3228 H         1 UNK         0.0840 
    111 H111       29.6475  -44.2698  -49.7838 H         1 UNK         0.0840 
    112 H112       30.9842  -48.6604  -50.6933 H         1 UNK         0.2987 
    113 H113       32.8935  -49.7557  -51.5945 H         1 UNK         0.0785 
    114 H114       31.3231  -51.1970  -50.2140 H         1 UNK         0.0798 
    115 H115       32.6704  -52.1459  -50.8066 H         1 UNK         0.0798 
    116 H116       31.0970  -52.2700  -51.5891 H         1 UNK         0.0798 
    117 H117       32.1954  -50.7966  -54.1165 H         1 UNK         0.3079 
    118 H118       35.4470  -51.9304  -54.9310 H         1 UNK         0.0794 
    119 H119       34.4588  -54.1142  -54.2458 H         1 UNK         0.0786 
    120 H120       34.3091  -53.8803  -55.9791 H         1 UNK         0.0786 
    121 H121       32.9070  -53.6542  -54.9319 H         1 UNK         0.0786 
    122 H122       32.9027  -51.6178  -56.3254 H         1 UNK         0.3032 
    123 H123       33.7462  -49.3918  -58.2667 H         1 UNK         0.1094 
    124 H124       31.8180  -50.8624  -57.7818 H         1 UNK         0.0794 
    125 H125       31.2884  -49.8043  -56.4721 H         1 UNK         0.0794 
    126 H126       31.2306  -49.2569  -58.1407 H         1 UNK         0.0794 
    127 H127       33.5029  -47.2266  -57.8104 H         1 UNK         0.3016 
@<TRIPOS>BOND
     1    1    2 1    
     2    1   67 1    
     3    1   68 1    
     4    1   69 1    
     5    2    3 2    
     6    2    4 am   BACKBONE|DICT|INTERRES
     7    4    5 1    
     8    4   70 1    
     9    5    6 1    
    10    5   65 1    
    11    5   71 1    
    12    6    7 1    
    13    6   72 1    
    14    6   73 1    
    15    7    8 1    
    16    8    9 1    
    17    8   74 1    
    18    8   75 1    
    19    9   10 ar   
    20    9   14 ar   
    21   10   11 ar   
    22   10   76 1    
    23   11   12 ar   
    24   11   48 1    
    25   12   13 ar   
    26   12   77 1    
    27   13   14 ar   
    28   13   15 1    
    29   14   78 1    
    30   15   16 1    
    31   15   79 1    
    32   15   80 1    
    33   16   17 1    
    34   17   18 1    
    35   17   81 1    
    36   17   82 1    
    37   18   19 1    
    38   18   22 1    
    39   18   83 1    
    40   19   20 am   BACKBONE|DICT|INTERRES
    41   19   21 2    
    42   20   84 1    
    43   20   85 1    
    44   22   23 am   BACKBONE|DICT|INTERRES
    45   22   86 1    
    46   23   24 2    
    47   23   25 1    
    48   25   26 1    
    49   25   27 1    
    50   25   87 1    
    51   26   88 1    
    52   26   89 1    
    53   26   90 1    
    54   27   28 am   BACKBONE|DICT|INTERRES
    55   27   91 1    
    56   28   29 2    
    57   28   30 1    
    58   30   31 1    
    59   30   32 1    
    60   30   92 1    
    61   31   93 1    
    62   31   94 1    
    63   31   95 1    
    64   32   33 am   BACKBONE|DICT|INTERRES
    65   32   96 1    
    66   33   34 2    
    67   33   35 1    
    68   35   36 1    
    69   35   37 1    
    70   35   97 1    
    71   36   98 1    
    72   36   99 1    
    73   36  100 1    
    74   37   38 am   BACKBONE|DICT|INTERRES
    75   37  101 1    
    76   38   39 2    
    77   38   40 1    
    78   40   41 1    
    79   40   42 1    
    80   40  102 1    
    81   41  103 1    
    82   41  104 1    
    83   41  105 1    
    84   42   43 am   BACKBONE|DICT|INTERRES
    85   42  106 1    
    86   43   44 2    
    87   43   45 1    
    88   45   46 1    
    89   45   49 1    
    90   45  107 1    
    91   46   47 1    
    92   46  108 1    
    93   46  109 1    
    94   47   48 1    
    95   48  110 1    
    96   48  111 1    
    97   49   50 am   BACKBONE|DICT|INTERRES
    98   49  112 1    
    99   50   51 2    
   100   50   52 1    
   101   52   53 1    
   102   52   54 1    
   103   52  113 1    
   104   53  114 1    
   105   53  115 1    
   106   53  116 1    
   107   54   55 am   BACKBONE|DICT|INTERRES
   108   54  117 1    
   109   55   56 2    
   110   55   57 1    
   111   57   58 1    
   112   57   59 1    
   113   57  118 1    
   114   58  119 1    
   115   58  120 1    
   116   58  121 1    
   117   59   60 am   BACKBONE|DICT|INTERRES
   118   59  122 1    
   119   60   61 2    
   120   60   62 1    
   121   62   63 1    
   122   62   64 1    
   123   62  123 1    
   124   63  124 1    
   125   63  125 1    
   126   63  126 1    
   127   64   65 am   BACKBONE|DICT|INTERRES
   128   64  127 1    
   129   65   66 2    
@<TRIPOS>SUBSTRUCTURE
     1 UNK         1 GROUP             0       ****    0 ROOT    
