@<TRIPOS>MOLECULE
3R134
127   129    1
SMALL
USER_CHARGES


@<TRIPOS>ATOM
      1 CA         33.6073  -41.3526  -50.2515 C.3       0 UNK        -0.1968 
      2 C          34.2854  -42.7125  -50.1687 C.2       0 UNK         0.4852 
      3 O          35.0523  -42.9579  -49.2360 O.2       0 UNK        -0.5359 
      4 N          34.0132  -43.5938  -51.1390 N.am      1 UNK        -0.4300 
      5 CA         34.5257  -44.9644  -51.1885 C.3       1 UNK         0.0863 
      6 C6         34.3913  -45.5816  -52.6024 C.3       11 UNK        -0.0953 
      7 S7         35.5582  -44.8661  -53.8003 S.3       11 UNK        -0.2369 
      8 C8         34.5149  -43.6681  -54.6863 C.3       11 UNK         0.0226 
      9 C9         33.5146  -44.3184  -55.6351 C.ar      11 UNK        -0.0699 
     10 C10        33.9619  -44.9877  -56.7779 C.ar      11 UNK        -0.0804 
     11 C11        33.0511  -45.4658  -57.7249 C.ar      11 UNK        -0.0871 
     12 C12        31.6806  -45.2777  -57.5164 C.ar      11 UNK        -0.1008 
     13 C13        31.2157  -44.6321  -56.3650 C.ar      11 UNK        -0.0735 
     14 C14        32.1407  -44.1635  -55.4256 C.ar      11 UNK        -0.0945 
     15 C15        29.7354  -44.3115  -56.1736 C.3       11 UNK         0.0169 
     16 S16        28.5782  -45.6093  -56.7389 S.3       11 UNK        -0.2669 
     17 C17        27.0435  -44.6185  -56.8574 C.3       11 UNK        -0.0850 
     18 CA         25.8948  -45.1116  -55.9377 C.3       10 UNK         0.0855 
     19 C          24.7624  -44.0428  -55.8478 C.2       10 UNK         0.5543 
     20 N          23.5388  -44.3100  -56.2923 N.am      10 UNK        -0.7343 
     21 O          25.0006  -42.9445  -55.3514 O.2       10 UNK        -0.5027 
     22 N          25.4117  -46.4499  -56.3162 N.am      10 UNK        -0.4495 
     23 C          24.7450  -47.2623  -55.4811 C.2       10 UNK         0.4903 
     24 O          24.6174  -47.0329  -54.2775 O.2       10 UNK        -0.4860 
     25 CA         24.1126  -48.5430  -56.0691 C.3       9 UNK         0.0227 
     26 CB         22.8383  -48.9731  -55.3116 C.3       9 UNK        -0.1964 
     27 N          23.8606  -48.4835  -57.5142 N.am      9 UNK        -0.4231 
     28 C          23.0643  -47.6267  -58.1748 C.2       9 UNK         0.5014 
     29 O          22.3813  -46.7619  -57.6225 O.2       9 UNK        -0.5270 
     30 CA         23.0952  -47.7269  -59.7174 C.3       8 UNK         0.0284 
     31 CB         22.4869  -46.4896  -60.4122 C.3       8 UNK        -0.1977 
     32 N          24.4462  -48.0065  -60.2308 N.am      8 UNK        -0.4342 
     33 C          25.5446  -47.2740  -59.9954 C.2       8 UNK         0.5039 
     34 O          25.5375  -46.1929  -59.4074 O.2       8 UNK        -0.5547 
     35 CA         26.8941  -47.9144  -60.3540 C.3       7 UNK         0.0281 
     36 CB         27.8056  -46.9271  -61.1028 C.3       7 UNK        -0.1963 
     37 N          27.5639  -48.3469  -59.1256 N.am      7 UNK        -0.4444 
     38 C          27.1248  -49.3124  -58.3059 C.2       7 UNK         0.5104 
     39 O          26.1419  -50.0161  -58.5490 O.2       7 UNK        -0.5100 
     40 CA         27.8750  -49.4785  -56.9711 C.3       6 UNK         0.0396 
     41 CB         27.6463  -50.8592  -56.3199 C.3       6 UNK        -0.1801 
     42 N          29.3056  -49.1700  -57.0611 N.am      6 UNK        -0.4747 
     43 C          30.2376  -49.8214  -57.7762 C.2       6 UNK         0.5012 
     44 O          29.9952  -50.7721  -58.5203 O.2       6 UNK        -0.5003 
     45 CA         31.6933  -49.3251  -57.6400 C.3       5 UNK         0.0782 
     46 C46        32.1009  -48.5310  -58.9049 C.3       11 UNK        -0.0868 
     47 S47        33.8132  -47.9040  -58.8328 S.3       11 UNK        -0.2515 
     48 C48        33.5576  -46.1103  -59.0084 C.3       11 UNK         0.0199 
     49 N          31.9312  -48.5732  -56.3987 N.am      5 UNK        -0.4607 
     50 C          31.8993  -49.1087  -55.1717 C.2       4 UNK         0.5031 
     51 O          31.6245  -50.2898  -54.9461 O.2       4 UNK        -0.5119 
     52 CA         32.1778  -48.1454  -54.0063 C.3       4 UNK         0.0263 
     53 CB         30.9242  -47.3124  -53.6887 C.3       4 UNK        -0.1967 
     54 N          32.5931  -48.8465  -52.7883 N.am      4 UNK        -0.4237 
     55 C          33.7374  -49.5266  -52.6409 C.2       3 UNK         0.4908 
     56 O          34.6304  -49.5676  -53.4892 O.2       3 UNK        -0.5102 
     57 CA         33.9351  -50.2053  -51.2794 C.3       3 UNK         0.0241 
     58 CB         35.0694  -51.2480  -51.2873 C.3       3 UNK        -0.1971 
     59 N          34.2518  -49.1553  -50.3180 N.am      3 UNK        -0.4139 
     60 C          33.5685  -48.8745  -49.2017 C.2       2 UNK         0.5016 
     61 O          32.6238  -49.5432  -48.7817 O.2       2 UNK        -0.5319 
     62 CA         34.0025  -47.6080  -48.4408 C.3       2 UNK         0.0286 
     63 CB         35.0539  -47.9514  -47.3732 C.3       2 UNK        -0.1963 
     64 N          34.5370  -46.5784  -49.3408 N.am      2 UNK        -0.4790 
     65 C          33.7805  -45.8403  -50.1653 C.2       1 UNK         0.5024 
     66 O          32.5479  -45.8707  -50.1766 O.2       1 UNK        -0.4888 
     67 H67        34.3563  -40.5625  -50.2988 H         1 UNK         0.0892 
     68 H68        32.9691  -41.2670  -51.1309 H         1 UNK         0.0892 
     69 H69        32.9914  -41.1863  -49.3681 H         1 UNK         0.0892 
     70 H70        33.3423  -43.3527  -51.8524 H         1 UNK         0.3107 
     71 H71        35.5849  -44.9442  -50.9215 H         1 UNK         0.0773 
     72 H72        34.6097  -46.6501  -52.5737 H         1 UNK         0.0680 
     73 H73        33.3698  -45.4895  -52.9741 H         1 UNK         0.0680 
     74 H74        34.0107  -43.0239  -53.9654 H         1 UNK         0.0650 
     75 H75        35.1659  -43.0129  -55.2666 H         1 UNK         0.0650 
     76 H76        35.0243  -45.0988  -56.9491 H         1 UNK         0.1397 
     77 H77        30.9750  -45.5968  -58.2703 H         1 UNK         0.1363 
     78 H78        31.7908  -43.6244  -54.5559 H         1 UNK         0.1355 
     79 H79        29.5399  -43.3899  -56.7232 H         1 UNK         0.0707 
     80 H80        29.5219  -44.1006  -55.1244 H         1 UNK         0.0707 
     81 H81        26.7225  -44.5989  -57.8982 H         1 UNK         0.1034 
     82 H82        27.2803  -43.5797  -56.6211 H         1 UNK         0.1034 
     83 H83        26.3081  -45.1827  -54.9297 H         1 UNK         0.0482 
     84 H84        23.3112  -45.2069  -56.7075 H         1 UNK         0.3460 
     85 H85        22.8260  -43.6023  -56.2173 H         1 UNK         0.3460 
     86 H86        25.4396  -46.6559  -57.3078 H         1 UNK         0.2989 
     87 H87        24.8532  -49.3301  -55.9283 H         1 UNK         0.0559 
     88 H88        22.4155  -49.8859  -55.7312 H         1 UNK         0.0848 
     89 H89        22.0687  -48.2012  -55.3432 H         1 UNK         0.0848 
     90 H90        23.0533  -49.1730  -54.2612 H         1 UNK         0.0848 
     91 H91        24.4219  -49.1256  -58.0676 H         1 UNK         0.3144 
     92 H92        22.4791  -48.5889  -59.9776 H         1 UNK         0.0727 
     93 H93        22.5109  -46.5916  -61.4970 H         1 UNK         0.0790 
     94 H94        23.0188  -45.5745  -60.1492 H         1 UNK         0.0790 
     95 H95        21.4442  -46.3525  -60.1230 H         1 UNK         0.0790 
     96 H96        24.5637  -48.9052  -60.6803 H         1 UNK         0.3215 
     97 H97        26.7286  -48.7863  -60.9904 H         1 UNK         0.0863 
     98 H98        28.7502  -47.3935  -61.3834 H         1 UNK         0.0808 
     99 H99        28.0325  -46.0464  -60.4998 H         1 UNK         0.0808 
    100 H100       27.3302  -46.5792  -62.0207 H         1 UNK         0.0808 
    101 H101       28.3426  -47.7855  -58.8137 H         1 UNK         0.3118 
    102 H102       27.4540  -48.7297  -56.2992 H         1 UNK         0.0546 
    103 H103       27.9838  -51.6718  -56.9636 H         1 UNK         0.0828 
    104 H104       26.5892  -51.0303  -56.1153 H         1 UNK         0.0828 
    105 H105       28.1759  -50.9418  -55.3708 H         1 UNK         0.0828 
    106 H106       29.6180  -48.3883  -56.5015 H         1 UNK         0.3005 
    107 H107       32.3179  -50.2205  -57.5945 H         1 UNK         0.1257 
    108 H108       32.0277  -49.1700  -59.7872 H         1 UNK         0.0775 
    109 H109       31.4098  -47.7067  -59.0825 H         1 UNK         0.0775 
    110 H110       34.5057  -45.6531  -59.2961 H         1 UNK         0.0840 
    111 H111       32.8725  -45.9129  -59.8346 H         1 UNK         0.0840 
    112 H112       32.1794  -47.5994  -56.5119 H         1 UNK         0.2987 
    113 H113       32.9846  -47.4760  -54.3110 H         1 UNK         0.0785 
    114 H114       31.1161  -46.5896  -52.8954 H         1 UNK         0.0798 
    115 H115       30.0906  -47.9419  -53.3744 H         1 UNK         0.0798 
    116 H116       30.5917  -46.7501  -54.5608 H         1 UNK         0.0798 
    117 H117       31.9229  -48.8671  -52.0333 H         1 UNK         0.3079 
    118 H118       33.0033  -50.7118  -51.0177 H         1 UNK         0.0794 
    119 H119       34.8759  -52.0279  -52.0249 H         1 UNK         0.0786 
    120 H120       35.1625  -51.7350  -50.3164 H         1 UNK         0.0786 
    121 H121       36.0341  -50.7999  -51.5290 H         1 UNK         0.0786 
    122 H122       34.9971  -48.5281  -50.5848 H         1 UNK         0.3032 
    123 H123       33.1193  -47.2076  -47.9368 H         1 UNK         0.1094 
    124 H124       34.6713  -48.6995  -46.6772 H         1 UNK         0.0794 
    125 H125       35.9661  -48.3545  -47.8151 H         1 UNK         0.0794 
    126 H126       35.3239  -47.0736  -46.7858 H         1 UNK         0.0794 
    127 H127       35.5416  -46.4690  -49.3647 H         1 UNK         0.3016 
@<TRIPOS>BOND
     1    1    2 1    
     2    1   67 1    
     3    1   68 1    
     4    1   69 1    
     5    2    3 2    
     6    2    4 am   BACKBONE|DICT|INTERRES
     7    4    5 1    
     8    4   70 1    
     9    5    6 1    
    10    5   65 1    
    11    5   71 1    
    12    6    7 1    
    13    6   72 1    
    14    6   73 1    
    15    7    8 1    
    16    8    9 1    
    17    8   74 1    
    18    8   75 1    
    19    9   10 ar   
    20    9   14 ar   
    21   10   11 ar   
    22   10   76 1    
    23   11   12 ar   
    24   11   48 1    
    25   12   13 ar   
    26   12   77 1    
    27   13   14 ar   
    28   13   15 1    
    29   14   78 1    
    30   15   16 1    
    31   15   79 1    
    32   15   80 1    
    33   16   17 1    
    34   17   18 1    
    35   17   81 1    
    36   17   82 1    
    37   18   19 1    
    38   18   22 1    
    39   18   83 1    
    40   19   20 am   BACKBONE|DICT|INTERRES
    41   19   21 2    
    42   20   84 1    
    43   20   85 1    
    44   22   23 am   BACKBONE|DICT|INTERRES
    45   22   86 1    
    46   23   24 2    
    47   23   25 1    
    48   25   26 1    
    49   25   27 1    
    50   25   87 1    
    51   26   88 1    
    52   26   89 1    
    53   26   90 1    
    54   27   28 am   BACKBONE|DICT|INTERRES
    55   27   91 1    
    56   28   29 2    
    57   28   30 1    
    58   30   31 1    
    59   30   32 1    
    60   30   92 1    
    61   31   93 1    
    62   31   94 1    
    63   31   95 1    
    64   32   33 am   BACKBONE|DICT|INTERRES
    65   32   96 1    
    66   33   34 2    
    67   33   35 1    
    68   35   36 1    
    69   35   37 1    
    70   35   97 1    
    71   36   98 1    
    72   36   99 1    
    73   36  100 1    
    74   37   38 am   BACKBONE|DICT|INTERRES
    75   37  101 1    
    76   38   39 2    
    77   38   40 1    
    78   40   41 1    
    79   40   42 1    
    80   40  102 1    
    81   41  103 1    
    82   41  104 1    
    83   41  105 1    
    84   42   43 am   BACKBONE|DICT|INTERRES
    85   42  106 1    
    86   43   44 2    
    87   43   45 1    
    88   45   46 1    
    89   45   49 1    
    90   45  107 1    
    91   46   47 1    
    92   46  108 1    
    93   46  109 1    
    94   47   48 1    
    95   48  110 1    
    96   48  111 1    
    97   49   50 am   BACKBONE|DICT|INTERRES
    98   49  112 1    
    99   50   51 2    
   100   50   52 1    
   101   52   53 1    
   102   52   54 1    
   103   52  113 1    
   104   53  114 1    
   105   53  115 1    
   106   53  116 1    
   107   54   55 am   BACKBONE|DICT|INTERRES
   108   54  117 1    
   109   55   56 2    
   110   55   57 1    
   111   57   58 1    
   112   57   59 1    
   113   57  118 1    
   114   58  119 1    
   115   58  120 1    
   116   58  121 1    
   117   59   60 am   BACKBONE|DICT|INTERRES
   118   59  122 1    
   119   60   61 2    
   120   60   62 1    
   121   62   63 1    
   122   62   64 1    
   123   62  123 1    
   124   63  124 1    
   125   63  125 1    
   126   63  126 1    
   127   64   65 am   BACKBONE|DICT|INTERRES
   128   64  127 1    
   129   65   66 2    
@<TRIPOS>SUBSTRUCTURE
     1 UNK         1 GROUP             0       ****    0 ROOT    
