@<TRIPOS>MOLECULE
3R134
127   129    1
SMALL
USER_CHARGES


@<TRIPOS>ATOM
      1 CA         29.5535  -46.8809  -49.0059 C.3       0 UNK        -0.1968 
      2 C          31.0345  -46.6952  -49.3041 C.2       0 UNK         0.4852 
      3 O          31.8677  -46.9137  -48.4230 O.2       0 UNK        -0.5359 
      4 N          31.3659  -46.2860  -50.5359 N.am      1 UNK        -0.4300 
      5 CA         32.7365  -46.1211  -51.0263 C.3       1 UNK         0.0863 
      6 C6         32.7487  -45.3336  -52.3607 C.3       11 UNK        -0.0953 
      7 S7         34.4168  -44.7731  -52.8516 S.3       11 UNK        -0.2369 
      8 C8         34.0908  -43.0826  -53.4491 C.3       11 UNK         0.0226 
      9 C9         33.1109  -43.0625  -54.6152 C.ar      11 UNK        -0.0699 
     10 C10        33.4223  -43.7207  -55.8078 C.ar      11 UNK        -0.0804 
     11 C11        32.5085  -43.7385  -56.8630 C.ar      11 UNK        -0.0871 
     12 C12        31.3011  -43.0448  -56.7422 C.ar      11 UNK        -0.1008 
     13 C13        30.9644  -42.3912  -55.5495 C.ar      11 UNK        -0.0735 
     14 C14        31.8829  -42.4039  -54.4941 C.ar      11 UNK        -0.0945 
     15 C15        29.6280  -41.6726  -55.3351 C.3       11 UNK         0.0169 
     16 S16        28.3888  -41.8275  -56.6712 S.3       11 UNK        -0.2669 
     17 C17        27.8780  -43.5758  -56.5184 C.3       11 UNK        -0.0850 
     18 CA         26.9721  -44.0370  -57.6960 C.3       10 UNK         0.0855 
     19 C          27.7444  -44.4280  -58.9924 C.2       10 UNK         0.5543 
     20 N          27.2542  -45.3692  -59.7918 N.am      10 UNK        -0.7343 
     21 O          28.7948  -43.8700  -59.2952 O.2       10 UNK        -0.5027 
     22 N          26.0518  -45.0990  -57.2666 N.am      10 UNK        -0.4495 
     23 C          24.7318  -44.9624  -57.0949 C.2       10 UNK         0.4903 
     24 O          24.1431  -43.8824  -57.1662 O.2       10 UNK        -0.4860 
     25 CA         23.9270  -46.2449  -56.7917 C.3       9 UNK         0.0227 
     26 CB         22.4563  -46.1385  -57.2476 C.3       9 UNK        -0.1964 
     27 N          24.5318  -47.4811  -57.3080 N.am      9 UNK        -0.4231 
     28 C          24.8388  -47.7769  -58.5833 C.2       9 UNK         0.5014 
     29 O          24.6714  -46.9941  -59.5200 O.2       9 UNK        -0.5270 
     30 CA         25.4758  -49.1537  -58.8608 C.3       8 UNK         0.0284 
     31 CB         26.5782  -49.0641  -59.9327 C.3       8 UNK        -0.1977 
     32 N          26.0567  -49.7203  -57.6440 N.am      8 UNK        -0.4342 
     33 C          25.5500  -50.7313  -56.9258 C.2       8 UNK         0.5039 
     34 O          24.5626  -51.3851  -57.2627 O.2       8 UNK        -0.5547 
     35 CA         26.2399  -51.0478  -55.5840 C.3       7 UNK         0.0281 
     36 CB         27.1775  -52.2564  -55.7339 C.3       7 UNK        -0.1963 
     37 N          26.9883  -49.9085  -55.0374 N.am      7 UNK        -0.4444 
     38 C          26.4168  -48.7797  -54.5856 C.2       7 UNK         0.5104 
     39 O          25.1985  -48.6167  -54.5253 O.2       7 UNK        -0.5100 
     40 CA         27.3407  -47.6048  -54.2099 C.3       6 UNK         0.0396 
     41 CB         27.5966  -47.5814  -52.6952 C.3       6 UNK        -0.1801 
     42 N          28.6238  -47.6090  -54.9167 N.am      6 UNK        -0.4747 
     43 C          28.7841  -47.5534  -56.2478 C.2       6 UNK         0.5012 
     44 O          27.8466  -47.4191  -57.0347 O.2       6 UNK        -0.5003 
     45 CA         30.2216  -47.7121  -56.7891 C.3       5 UNK         0.0782 
     46 C46        30.7964  -46.3173  -57.1167 C.3       11 UNK        -0.0868 
     47 S47        32.4873  -46.3478  -57.8024 S.3       11 UNK        -0.2515 
     48 C48        32.7856  -44.5712  -58.1065 C.3       11 UNK         0.0199 
     49 N          31.0991  -48.4683  -55.8820 N.am      5 UNK        -0.4607 
     50 C          30.9042  -49.7302  -55.4722 C.2       4 UNK         0.5031 
     51 O          29.9185  -50.3947  -55.7929 O.2       4 UNK        -0.5119 
     52 CA         31.9283  -50.3299  -54.4902 C.3       4 UNK         0.0263 
     53 CB         32.1996  -51.8245  -54.7635 C.3       4 UNK        -0.1967 
     54 N          33.1776  -49.5659  -54.3675 N.am      4 UNK        -0.4237 
     55 C          34.1511  -49.4200  -55.2833 C.2       3 UNK         0.4908 
     56 O          34.1089  -49.9118  -56.4109 O.2       3 UNK        -0.5102 
     57 CA         35.3792  -48.5689  -54.8949 C.3       3 UNK         0.0241 
     58 CB         35.3682  -47.2350  -55.6591 C.3       3 UNK        -0.1971 
     59 N          35.4735  -48.2837  -53.4612 N.am      3 UNK        -0.4139 
     60 C          35.7590  -49.1801  -52.5057 C.2       2 UNK         0.5016 
     61 O          36.0972  -50.3413  -52.7358 O.2       2 UNK        -0.5319 
     62 CA         35.6032  -48.7146  -51.0439 C.3       2 UNK         0.0286 
     63 CB         36.9785  -48.4121  -50.4273 C.3       2 UNK        -0.1963 
     64 N          34.7332  -47.5420  -50.8751 N.am      2 UNK        -0.4790 
     65 C          33.4285  -47.4914  -51.1826 C.2       1 UNK         0.5024 
     66 O          32.7996  -48.4460  -51.6470 O.2       1 UNK        -0.4888 
     67 H67        28.9268  -46.5950  -49.8503 H         1 UNK         0.0892 
     68 H68        29.3474  -47.9241  -48.7683 H         1 UNK         0.0892 
     69 H69        29.2640  -46.2724  -48.1496 H         1 UNK         0.0892 
     70 H70        30.6379  -46.1417  -51.2193 H         1 UNK         0.3107 
     71 H71        33.2795  -45.5400  -50.2773 H         1 UNK         0.0773 
     72 H72        32.1110  -44.4537  -52.2626 H         1 UNK         0.0680 
     73 H73        32.3222  -45.9224  -53.1756 H         1 UNK         0.0680 
     74 H74        33.7252  -42.4773  -52.6182 H         1 UNK         0.0650 
     75 H75        35.0323  -42.6334  -53.7675 H         1 UNK         0.0650 
     76 H76        34.3583  -44.2545  -55.8978 H         1 UNK         0.1397 
     77 H77        30.6108  -43.0617  -57.5727 H         1 UNK         0.1363 
     78 H78        31.6347  -41.9038  -53.5677 H         1 UNK         0.1355 
     79 H79        29.8332  -40.6107  -55.1932 H         1 UNK         0.0707 
     80 H80        29.1768  -42.0245  -54.4060 H         1 UNK         0.0707 
     81 H81        28.7482  -44.2239  -56.4161 H         1 UNK         0.1034 
     82 H82        27.3361  -43.6612  -55.5751 H         1 UNK         0.1034 
     83 H83        26.3756  -43.1769  -58.0044 H         1 UNK         0.0482 
     84 H84        27.7589  -45.6069  -60.6301 H         1 UNK         0.3460 
     85 H85        26.3659  -45.8149  -59.5945 H         1 UNK         0.3460 
     86 H86        26.4669  -46.0248  -57.2140 H         1 UNK         0.2989 
     87 H87        23.9271  -46.3440  -55.7054 H         1 UNK         0.0559 
     88 H88        21.9505  -45.3055  -56.7579 H         1 UNK         0.0848 
     89 H89        21.8977  -47.0415  -57.0013 H         1 UNK         0.0848 
     90 H90        22.3785  -45.9788  -58.3236 H         1 UNK         0.0848 
     91 H91        24.7306  -48.1789  -56.6007 H         1 UNK         0.3144 
     92 H92        24.6825  -49.8003  -59.2408 H         1 UNK         0.0727 
     93 H93        27.3780  -48.3857  -59.6328 H         1 UNK         0.0790 
     94 H94        26.1792  -48.7011  -60.8807 H         1 UNK         0.0790 
     95 H95        27.0228  -50.0407  -60.1250 H         1 UNK         0.0790 
     96 H96        26.8535  -49.2131  -57.2740 H         1 UNK         0.3215 
     97 H97        25.4581  -51.3100  -54.8677 H         1 UNK         0.0863 
     98 H98        27.6646  -52.5037  -54.7906 H         1 UNK         0.0808 
     99 H99        27.9554  -52.0747  -56.4764 H         1 UNK         0.0808 
    100 H100       26.6240  -53.1399  -56.0548 H         1 UNK         0.0808 
    101 H101       28.0004  -49.9630  -55.0967 H         1 UNK         0.3118 
    102 H102       26.8205  -46.6839  -54.4825 H         1 UNK         0.0546 
    103 H103       28.1524  -48.4595  -52.3640 H         1 UNK         0.0828 
    104 H104       26.6569  -47.5628  -52.1411 H         1 UNK         0.0828 
    105 H105       28.1584  -46.6946  -52.4026 H         1 UNK         0.0828 
    106 H106       29.4517  -47.7225  -54.3506 H         1 UNK         0.3005 
    107 H107       30.1471  -48.2821  -57.7178 H         1 UNK         0.1257 
    108 H108       30.1587  -45.8001  -57.8352 H         1 UNK         0.0775 
    109 H109       30.8058  -45.7113  -56.2092 H         1 UNK         0.0775 
    110 H110       33.8195  -44.4299  -58.4246 H         1 UNK         0.0840 
    111 H111       32.1600  -44.2413  -58.9378 H         1 UNK         0.0840 
    112 H112       31.9464  -47.9998  -55.5982 H         1 UNK         0.2987 
    113 H113       31.4564  -50.2657  -53.5085 H         1 UNK         0.0785 
    114 H114       31.2836  -52.4104  -54.6773 H         1 UNK         0.0798 
    115 H115       32.9133  -52.2351  -54.0494 H         1 UNK         0.0798 
    116 H116       32.5934  -51.9901  -55.7666 H         1 UNK         0.0798 
    117 H117       33.2981  -49.1135  -53.4662 H         1 UNK         0.3079 
    118 H118       36.2693  -49.1288  -55.1893 H         1 UNK         0.0794 
    119 H119       35.3498  -47.4005  -56.7373 H         1 UNK         0.0786 
    120 H120       36.2551  -46.6404  -55.4390 H         1 UNK         0.0786 
    121 H121       34.4916  -46.6375  -55.4074 H         1 UNK         0.0786 
    122 H122       35.2321  -47.3467  -53.1695 H         1 UNK         0.3032 
    123 H123       35.1525  -49.5434  -50.4930 H         1 UNK         0.1094 
    124 H124       37.4690  -47.5744  -50.9248 H         1 UNK         0.0794 
    125 H125       36.8950  -48.1727  -49.3669 H         1 UNK         0.0794 
    126 H126       37.6422  -49.2741  -50.5103 H         1 UNK         0.0794 
    127 H127       35.1760  -46.7039  -50.5241 H         1 UNK         0.3016 
@<TRIPOS>BOND
     1    1    2 1    
     2    1   67 1    
     3    1   68 1    
     4    1   69 1    
     5    2    3 2    
     6    2    4 am   BACKBONE|DICT|INTERRES
     7    4    5 1    
     8    4   70 1    
     9    5    6 1    
    10    5   65 1    
    11    5   71 1    
    12    6    7 1    
    13    6   72 1    
    14    6   73 1    
    15    7    8 1    
    16    8    9 1    
    17    8   74 1    
    18    8   75 1    
    19    9   10 ar   
    20    9   14 ar   
    21   10   11 ar   
    22   10   76 1    
    23   11   12 ar   
    24   11   48 1    
    25   12   13 ar   
    26   12   77 1    
    27   13   14 ar   
    28   13   15 1    
    29   14   78 1    
    30   15   16 1    
    31   15   79 1    
    32   15   80 1    
    33   16   17 1    
    34   17   18 1    
    35   17   81 1    
    36   17   82 1    
    37   18   19 1    
    38   18   22 1    
    39   18   83 1    
    40   19   20 am   BACKBONE|DICT|INTERRES
    41   19   21 2    
    42   20   84 1    
    43   20   85 1    
    44   22   23 am   BACKBONE|DICT|INTERRES
    45   22   86 1    
    46   23   24 2    
    47   23   25 1    
    48   25   26 1    
    49   25   27 1    
    50   25   87 1    
    51   26   88 1    
    52   26   89 1    
    53   26   90 1    
    54   27   28 am   BACKBONE|DICT|INTERRES
    55   27   91 1    
    56   28   29 2    
    57   28   30 1    
    58   30   31 1    
    59   30   32 1    
    60   30   92 1    
    61   31   93 1    
    62   31   94 1    
    63   31   95 1    
    64   32   33 am   BACKBONE|DICT|INTERRES
    65   32   96 1    
    66   33   34 2    
    67   33   35 1    
    68   35   36 1    
    69   35   37 1    
    70   35   97 1    
    71   36   98 1    
    72   36   99 1    
    73   36  100 1    
    74   37   38 am   BACKBONE|DICT|INTERRES
    75   37  101 1    
    76   38   39 2    
    77   38   40 1    
    78   40   41 1    
    79   40   42 1    
    80   40  102 1    
    81   41  103 1    
    82   41  104 1    
    83   41  105 1    
    84   42   43 am   BACKBONE|DICT|INTERRES
    85   42  106 1    
    86   43   44 2    
    87   43   45 1    
    88   45   46 1    
    89   45   49 1    
    90   45  107 1    
    91   46   47 1    
    92   46  108 1    
    93   46  109 1    
    94   47   48 1    
    95   48  110 1    
    96   48  111 1    
    97   49   50 am   BACKBONE|DICT|INTERRES
    98   49  112 1    
    99   50   51 2    
   100   50   52 1    
   101   52   53 1    
   102   52   54 1    
   103   52  113 1    
   104   53  114 1    
   105   53  115 1    
   106   53  116 1    
   107   54   55 am   BACKBONE|DICT|INTERRES
   108   54  117 1    
   109   55   56 2    
   110   55   57 1    
   111   57   58 1    
   112   57   59 1    
   113   57  118 1    
   114   58  119 1    
   115   58  120 1    
   116   58  121 1    
   117   59   60 am   BACKBONE|DICT|INTERRES
   118   59  122 1    
   119   60   61 2    
   120   60   62 1    
   121   62   63 1    
   122   62   64 1    
   123   62  123 1    
   124   63  124 1    
   125   63  125 1    
   126   63  126 1    
   127   64   65 am   BACKBONE|DICT|INTERRES
   128   64  127 1    
   129   65   66 2    
@<TRIPOS>SUBSTRUCTURE
     1 UNK         1 GROUP             0       ****    0 ROOT    
